MODEL 1
REMARK VINA RESULT:      -7.8      0.000      0.000
REMARK  Name = 445302
REMARK  4 active torsions:
REMARK  status: ('A' for Active; 'I' for Inactive)
REMARK    1  A    between atoms: C_1  and  C_9
REMARK    2  A    between atoms: C_2  and  O_15
REMARK    3  A    between atoms: N_8  and  O_11
REMARK    4  A    between atoms: O_11  and  C_13
REMARK                            x       y       z     vdW  Elec       q    Type
REMARK                         _______ _______ _______ _____ _____    ______ ____
ROOT
ATOM      1  C   UNL     1      33.885 -21.511 -19.496  0.00  0.00    +0.090 C 
ATOM      2  C   UNL     1      35.269 -21.343 -19.532  0.00  0.00    +0.138 C 
ATOM      3  C   UNL     1      33.062 -20.675 -20.251  0.00  0.00    +0.008 C 
ATOM      4  C   UNL     1      35.830 -20.341 -20.324  0.00  0.00    +0.037 C 
ATOM      5  C   UNL     1      33.623 -19.673 -21.043  0.00  0.00    +0.000 C 
ATOM      6  C   UNL     1      35.007 -19.506 -21.079  0.00  0.00    +0.003 C 
ENDROOT
BRANCH   1   9
ATOM      7  O   UNL     1      33.769 -23.692 -18.634  0.00  0.00    -0.267 OA
ATOM      8  N   UNL     1      32.155 -22.196 -17.943  0.00  0.00    -0.141 N 
ATOM      9  C   UNL     1      33.279 -22.550 -18.676  0.00  0.00    +0.280 C 
ATOM     10  H   UNL     1      31.781 -21.286 -17.972  0.00  0.00    +0.196 HD
BRANCH   8  11
ATOM     11  O   UNL     1      31.581 -23.211 -17.155  0.00  0.00    -0.346 OA
BRANCH  11  13
ATOM     12  O   UNL     1      29.421 -22.397 -17.031  0.00  0.00    -0.248 OA
ATOM     13  C   UNL     1      30.456 -22.788 -16.509  0.00  0.00    +0.340 C 
ATOM     14  C   UNL     1      30.670 -22.870 -15.028  0.00  0.00    +0.123 C 
ENDBRANCH  11  13
ENDBRANCH   8  11
ENDBRANCH   1   9
BRANCH   2  15
ATOM     15  O   UNL     1      36.091 -22.149 -18.800  0.00  0.00    -0.505 OA
ATOM     16  H   UNL     1      35.859 -23.045 -18.654  0.00  0.00    +0.292 HD
ENDBRANCH   2  15
TORSDOF 4
ENDMDL
MODEL 2
REMARK VINA RESULT:      -7.7      3.949      6.276
REMARK  Name = 445302
REMARK  4 active torsions:
REMARK  status: ('A' for Active; 'I' for Inactive)
REMARK    1  A    between atoms: C_1  and  C_9
REMARK    2  A    between atoms: C_2  and  O_15
REMARK    3  A    between atoms: N_8  and  O_11
REMARK    4  A    between atoms: O_11  and  C_13
REMARK                            x       y       z     vdW  Elec       q    Type
REMARK                         _______ _______ _______ _____ _____    ______ ____
ROOT
ATOM      1  C   UNL     1      34.763 -20.112 -20.535  0.00  0.00    +0.090 C 
ATOM      2  C   UNL     1      33.555 -20.695 -20.151  0.00  0.00    +0.138 C 
ATOM      3  C   UNL     1      35.968 -20.622 -20.052  0.00  0.00    +0.008 C 
ATOM      4  C   UNL     1      33.552 -21.788 -19.285  0.00  0.00    +0.037 C 
ATOM      5  C   UNL     1      35.965 -21.717 -19.186  0.00  0.00    +0.000 C 
ATOM      6  C   UNL     1      34.757 -22.298 -18.802  0.00  0.00    +0.003 C 
ENDROOT
BRANCH   1   9
ATOM      7  O   UNL     1      34.412 -19.084 -22.617  0.00  0.00    -0.267 OA
ATOM      8  N   UNL     1      35.230 -17.764 -20.912  0.00  0.00    -0.141 N 
ATOM      9  C   UNL     1      34.788 -18.970 -21.438  0.00  0.00    +0.280 C 
ATOM     10  H   UNL     1      35.515 -17.679 -19.973  0.00  0.00    +0.196 HD
BRANCH   8  11
ATOM     11  O   UNL     1      35.249 -16.669 -21.796  0.00  0.00    -0.346 OA
BRANCH  11  13
ATOM     12  O   UNL     1      34.877 -14.968 -20.276  0.00  0.00    -0.248 OA
ATOM     13  C   UNL     1      34.589 -15.587 -21.291  0.00  0.00    +0.340 C 
ATOM     14  C   UNL     1      33.427 -15.253 -22.177  0.00  0.00    +0.123 C 
ENDBRANCH  11  13
ENDBRANCH   8  11
ENDBRANCH   1   9
BRANCH   2  15
ATOM     15  O   UNL     1      32.367 -20.209 -20.611  0.00  0.00    -0.505 OA
ATOM     16  H   UNL     1      32.018 -19.413 -20.260  0.00  0.00    +0.292 HD
ENDBRANCH   2  15
TORSDOF 4
ENDMDL
MODEL 3
REMARK VINA RESULT:      -7.7      4.432      6.785
REMARK  Name = 445302
REMARK  4 active torsions:
REMARK  status: ('A' for Active; 'I' for Inactive)
REMARK    1  A    between atoms: C_1  and  C_9
REMARK    2  A    between atoms: C_2  and  O_15
REMARK    3  A    between atoms: N_8  and  O_11
REMARK    4  A    between atoms: O_11  and  C_13
REMARK                            x       y       z     vdW  Elec       q    Type
REMARK                         _______ _______ _______ _____ _____    ______ ____
ROOT
ATOM      1  C   UNL     1      34.585 -19.461 -20.868  0.00  0.00    +0.090 C 
ATOM      2  C   UNL     1      35.792 -20.014 -20.440  0.00  0.00    +0.138 C 
ATOM      3  C   UNL     1      33.379 -20.074 -20.528  0.00  0.00    +0.008 C 
ATOM      4  C   UNL     1      35.794 -21.177 -19.672  0.00  0.00    +0.037 C 
ATOM      5  C   UNL     1      33.381 -21.238 -19.759  0.00  0.00    +0.000 C 
ATOM      6  C   UNL     1      34.587 -21.790 -19.332  0.00  0.00    +0.003 C 
ENDROOT
BRANCH   1   9
ATOM      7  O   UNL     1      34.003 -17.219 -21.252  0.00  0.00    -0.267 OA
ATOM      8  N   UNL     1      35.203 -18.295 -22.901  0.00  0.00    -0.141 N 
ATOM      9  C   UNL     1      34.562 -18.247 -21.671  0.00  0.00    +0.280 C 
ATOM     10  H   UNL     1      35.654 -19.110 -23.221  0.00  0.00    +0.196 HD
BRANCH   8  11
ATOM     11  O   UNL     1      35.172 -17.114 -23.665  0.00  0.00    -0.346 OA
BRANCH  11  13
ATOM     12  O   UNL     1      34.653 -16.506 -25.834  0.00  0.00    -0.248 OA
ATOM     13  C   UNL     1      34.717 -17.331 -24.933  0.00  0.00    +0.340 C 
ATOM     14  C   UNL     1      34.293 -18.762 -25.073  0.00  0.00    +0.123 C 
ENDBRANCH  11  13
ENDBRANCH   8  11
ENDBRANCH   1   9
BRANCH   2  15
ATOM     15  O   UNL     1      36.982 -19.431 -20.764  0.00  0.00    -0.505 OA
ATOM     16  H   UNL     1      37.328 -19.521 -21.630  0.00  0.00    +0.292 HD
ENDBRANCH   2  15
TORSDOF 4
ENDMDL
MODEL 4
REMARK VINA RESULT:      -7.5      2.613      3.566
REMARK  Name = 445302
REMARK  4 active torsions:
REMARK  status: ('A' for Active; 'I' for Inactive)
REMARK    1  A    between atoms: C_1  and  C_9
REMARK    2  A    between atoms: C_2  and  O_15
REMARK    3  A    between atoms: N_8  and  O_11
REMARK    4  A    between atoms: O_11  and  C_13
REMARK                            x       y       z     vdW  Elec       q    Type
REMARK                         _______ _______ _______ _____ _____    ______ ____
ROOT
ATOM      1  C   UNL     1      34.321 -21.372 -19.565  0.00  0.00    +0.090 C 
ATOM      2  C   UNL     1      35.444 -20.822 -20.183  0.00  0.00    +0.138 C 
ATOM      3  C   UNL     1      33.053 -20.863 -19.845  0.00  0.00    +0.008 C 
ATOM      4  C   UNL     1      35.299 -19.765 -21.081  0.00  0.00    +0.037 C 
ATOM      5  C   UNL     1      32.908 -19.805 -20.743  0.00  0.00    +0.000 C 
ATOM      6  C   UNL     1      34.031 -19.256 -21.361  0.00  0.00    +0.003 C 
ENDROOT
BRANCH   1   9
ATOM      7  O   UNL     1      33.824 -23.535 -18.799  0.00  0.00    -0.267 OA
ATOM      8  N   UNL     1      35.313 -22.290 -17.554  0.00  0.00    -0.141 N 
ATOM      9  C   UNL     1      34.451 -22.476 -18.625  0.00  0.00    +0.280 C 
ATOM     10  H   UNL     1      35.816 -21.452 -17.430  0.00  0.00    +0.196 HD
BRANCH   8  11
ATOM     11  O   UNL     1      35.428 -23.366 -16.654  0.00  0.00    -0.346 OA
BRANCH  11  13
ATOM     12  O   UNL     1      36.772 -23.937 -14.862  0.00  0.00    -0.248 OA
ATOM     13  C   UNL     1      36.505 -23.234 -15.827  0.00  0.00    +0.340 C 
ATOM     14  C   UNL     1      37.341 -22.074 -16.276  0.00  0.00    +0.123 C 
ENDBRANCH  11  13
ENDBRANCH   8  11
ENDBRANCH   1   9
BRANCH   2  15
ATOM     15  O   UNL     1      36.693 -21.304 -19.922  0.00  0.00    -0.505 OA
ATOM     16  H   UNL     1      37.431 -20.727 -19.938  0.00  0.00    +0.292 HD
ENDBRANCH   2  15
TORSDOF 4
ENDMDL
MODEL 5
REMARK VINA RESULT:      -7.5      4.089      6.084
REMARK  Name = 445302
REMARK  4 active torsions:
REMARK  status: ('A' for Active; 'I' for Inactive)
REMARK    1  A    between atoms: C_1  and  C_9
REMARK    2  A    between atoms: C_2  and  O_15
REMARK    3  A    between atoms: N_8  and  O_11
REMARK    4  A    between atoms: O_11  and  C_13
REMARK                            x       y       z     vdW  Elec       q    Type
REMARK                         _______ _______ _______ _____ _____    ______ ____
ROOT
ATOM      1  C   UNL     1      34.584 -20.059 -20.535  0.00  0.00    +0.090 C 
ATOM      2  C   UNL     1      35.764 -20.612 -20.038  0.00  0.00    +0.138 C 
ATOM      3  C   UNL     1      33.352 -20.592 -20.157  0.00  0.00    +0.008 C 
ATOM      4  C   UNL     1      35.713 -21.697 -19.164  0.00  0.00    +0.037 C 
ATOM      5  C   UNL     1      33.300 -21.678 -19.282  0.00  0.00    +0.000 C 
ATOM      6  C   UNL     1      34.480 -22.230 -18.786  0.00  0.00    +0.003 C 
ENDROOT
BRANCH   1   9
ATOM      7  O   UNL     1      34.259 -19.054 -22.632  0.00  0.00    -0.267 OA
ATOM      8  N   UNL     1      35.040 -17.711 -20.929  0.00  0.00    -0.141 N 
ATOM      9  C   UNL     1      34.616 -18.926 -21.449  0.00  0.00    +0.280 C 
ATOM     10  H   UNL     1      35.310 -17.615 -19.986  0.00  0.00    +0.196 HD
BRANCH   8  11
ATOM     11  O   UNL     1      35.065 -16.625 -21.823  0.00  0.00    -0.346 OA
BRANCH  11  13
ATOM     12  O   UNL     1      34.916 -14.915 -20.275  0.00  0.00    -0.248 OA
ATOM     13  C   UNL     1      34.526 -15.497 -21.279  0.00  0.00    +0.340 C 
ATOM     14  C   UNL     1      33.355 -15.054 -22.103  0.00  0.00    +0.123 C 
ENDBRANCH  11  13
ENDBRANCH   8  11
ENDBRANCH   1   9
BRANCH   2  15
ATOM     15  O   UNL     1      36.979 -20.106 -20.397  0.00  0.00    -0.505 OA
ATOM     16  H   UNL     1      37.503 -20.550 -21.034  0.00  0.00    +0.292 HD
ENDBRANCH   2  15
TORSDOF 4
ENDMDL
MODEL 6
REMARK VINA RESULT:      -7.4      3.666      5.135
REMARK  Name = 445302
REMARK  4 active torsions:
REMARK  status: ('A' for Active; 'I' for Inactive)
REMARK    1  A    between atoms: C_1  and  C_9
REMARK    2  A    between atoms: C_2  and  O_15
REMARK    3  A    between atoms: N_8  and  O_11
REMARK    4  A    between atoms: O_11  and  C_13
REMARK                            x       y       z     vdW  Elec       q    Type
REMARK                         _______ _______ _______ _____ _____    ______ ____
ROOT
ATOM      1  C   UNL     1      34.967 -18.063 -22.651  0.00  0.00    +0.090 C 
ATOM      2  C   UNL     1      34.857 -16.674 -22.594  0.00  0.00    +0.138 C 
ATOM      3  C   UNL     1      34.849 -18.722 -23.875  0.00  0.00    +0.008 C 
ATOM      4  C   UNL     1      34.631 -15.943 -23.760  0.00  0.00    +0.037 C 
ATOM      5  C   UNL     1      34.623 -17.990 -25.042  0.00  0.00    +0.000 C 
ATOM      6  C   UNL     1      34.513 -16.602 -24.984  0.00  0.00    +0.003 C 
ENDROOT
BRANCH   1   9
ATOM      7  O   UNL     1      36.009 -18.455 -20.584  0.00  0.00    -0.267 OA
ATOM      8  N   UNL     1      34.479 -20.020 -21.307  0.00  0.00    -0.141 N 
ATOM      9  C   UNL     1      35.204 -18.845 -21.446  0.00  0.00    +0.280 C 
ATOM     10  H   UNL     1      33.833 -20.316 -21.990  0.00  0.00    +0.196 HD
BRANCH   8  11
ATOM     11  O   UNL     1      34.718 -20.765 -20.138  0.00  0.00    -0.346 OA
BRANCH  11  13
ATOM     12  O   UNL     1      32.476 -20.630 -19.589  0.00  0.00    -0.248 OA
ATOM     13  C   UNL     1      33.562 -21.194 -19.554  0.00  0.00    +0.340 C 
ATOM     14  C   UNL     1      33.811 -22.489 -18.844  0.00  0.00    +0.123 C 
ENDBRANCH  11  13
ENDBRANCH   8  11
ENDBRANCH   1   9
BRANCH   2  15
ATOM     15  O   UNL     1      34.968 -16.012 -21.407  0.00  0.00    -0.505 OA
ATOM     16  H   UNL     1      35.282 -15.129 -21.389  0.00  0.00    +0.292 HD
ENDBRANCH   2  15
TORSDOF 4
ENDMDL
MODEL 7
REMARK VINA RESULT:      -7.4      2.381      3.209
REMARK  Name = 445302
REMARK  4 active torsions:
REMARK  status: ('A' for Active; 'I' for Inactive)
REMARK    1  A    between atoms: C_1  and  C_9
REMARK    2  A    between atoms: C_2  and  O_15
REMARK    3  A    between atoms: N_8  and  O_11
REMARK    4  A    between atoms: O_11  and  C_13
REMARK                            x       y       z     vdW  Elec       q    Type
REMARK                         _______ _______ _______ _____ _____    ______ ____
ROOT
ATOM      1  C   UNL     1      34.812 -21.371 -19.653  0.00  0.00    +0.090 C 
ATOM      2  C   UNL     1      33.879 -20.551 -20.287  0.00  0.00    +0.138 C 
ATOM      3  C   UNL     1      36.169 -21.053 -19.706  0.00  0.00    +0.008 C 
ATOM      4  C   UNL     1      34.302 -19.413 -20.973  0.00  0.00    +0.037 C 
ATOM      5  C   UNL     1      36.593 -19.914 -20.392  0.00  0.00    +0.000 C 
ATOM      6  C   UNL     1      35.660 -19.095 -21.026  0.00  0.00    +0.003 C 
ENDROOT
BRANCH   1   9
ATOM      7  O   UNL     1      33.869 -23.519 -19.533  0.00  0.00    -0.267 OA
ATOM      8  N   UNL     1      34.620 -22.584 -17.564  0.00  0.00    -0.141 N 
ATOM      9  C   UNL     1      34.391 -22.564 -18.932  0.00  0.00    +0.280 C 
ATOM     10  H   UNL     1      35.047 -21.828 -17.097  0.00  0.00    +0.196 HD
BRANCH   8  11
ATOM     11  O   UNL     1      34.209 -23.743 -16.880  0.00  0.00    -0.346 OA
BRANCH  11  13
ATOM     12  O   UNL     1      36.094 -24.318 -15.671  0.00  0.00    -0.248 OA
ATOM     13  C   UNL     1      34.928 -23.952 -15.740  0.00  0.00    +0.340 C 
ATOM     14  C   UNL     1      34.069 -23.663 -14.547  0.00  0.00    +0.123 C 
ENDBRANCH  11  13
ENDBRANCH   8  11
ENDBRANCH   1   9
BRANCH   2  15
ATOM     15  O   UNL     1      32.548 -20.846 -20.248  0.00  0.00    -0.505 OA
ATOM     16  H   UNL     1      32.129 -21.014 -19.427  0.00  0.00    +0.292 HD
ENDBRANCH   2  15
TORSDOF 4
ENDMDL
MODEL 8
REMARK VINA RESULT:      -7.4      4.296      6.365
REMARK  Name = 445302
REMARK  4 active torsions:
REMARK  status: ('A' for Active; 'I' for Inactive)
REMARK    1  A    between atoms: C_1  and  C_9
REMARK    2  A    between atoms: C_2  and  O_15
REMARK    3  A    between atoms: N_8  and  O_11
REMARK    4  A    between atoms: O_11  and  C_13
REMARK                            x       y       z     vdW  Elec       q    Type
REMARK                         _______ _______ _______ _____ _____    ______ ____
ROOT
ATOM      1  C   UNL     1      33.165 -23.504 -15.490  0.00  0.00    +0.090 C 
ATOM      2  C   UNL     1      32.711 -23.453 -14.172  0.00  0.00    +0.138 C 
ATOM      3  C   UNL     1      32.278 -23.273 -16.542  0.00  0.00    +0.008 C 
ATOM      4  C   UNL     1      31.371 -23.170 -13.906  0.00  0.00    +0.037 C 
ATOM      5  C   UNL     1      30.938 -22.990 -16.275  0.00  0.00    +0.000 C 
ATOM      6  C   UNL     1      30.485 -22.939 -14.958  0.00  0.00    +0.003 C 
ENDROOT
BRANCH   1   9
ATOM      7  O   UNL     1      35.197 -23.097 -16.593  0.00  0.00    -0.267 OA
ATOM      8  N   UNL     1      35.131 -24.873 -15.125  0.00  0.00    -0.141 N 
ATOM      9  C   UNL     1      34.559 -23.798 -15.789  0.00  0.00    +0.280 C 
ATOM     10  H   UNL     1      34.622 -25.417 -14.480  0.00  0.00    +0.196 HD
BRANCH   8  11
ATOM     11  O   UNL     1      36.479 -25.145 -15.424  0.00  0.00    -0.346 OA
BRANCH  11  13
ATOM     12  O   UNL     1      36.686 -27.324 -16.165  0.00  0.00    -0.248 OA
ATOM     13  C   UNL     1      36.779 -26.469 -15.295  0.00  0.00    +0.340 C 
ATOM     14  C   UNL     1      37.253 -26.740 -13.899  0.00  0.00    +0.123 C 
ENDBRANCH  11  13
ENDBRANCH   8  11
ENDBRANCH   1   9
BRANCH   2  15
ATOM     15  O   UNL     1      33.561 -23.677 -13.130  0.00  0.00    -0.505 OA
ATOM     16  H   UNL     1      33.780 -24.555 -12.884  0.00  0.00    +0.292 HD
ENDBRANCH   2  15
TORSDOF 4
ENDMDL
MODEL 9
REMARK VINA RESULT:      -7.3      7.085      9.275
REMARK  Name = 445302
REMARK  4 active torsions:
REMARK  status: ('A' for Active; 'I' for Inactive)
REMARK    1  A    between atoms: C_1  and  C_9
REMARK    2  A    between atoms: C_2  and  O_15
REMARK    3  A    between atoms: N_8  and  O_11
REMARK    4  A    between atoms: O_11  and  C_13
REMARK                            x       y       z     vdW  Elec       q    Type
REMARK                         _______ _______ _______ _____ _____    ______ ____
ROOT
ATOM      1  C   UNL     1      34.680 -17.317 -23.748  0.00  0.00    +0.090 C 
ATOM      2  C   UNL     1      34.892 -16.406 -22.713  0.00  0.00    +0.138 C 
ATOM      3  C   UNL     1      34.669 -18.686 -23.481  0.00  0.00    +0.008 C 
ATOM      4  C   UNL     1      35.092 -16.864 -21.411  0.00  0.00    +0.037 C 
ATOM      5  C   UNL     1      34.870 -19.144 -22.178  0.00  0.00    +0.000 C 
ATOM      6  C   UNL     1      35.082 -18.233 -21.144  0.00  0.00    +0.003 C 
ENDROOT
BRANCH   1   9
ATOM      7  O   UNL     1      35.118 -17.348 -26.055  0.00  0.00    -0.267 OA
ATOM      8  N   UNL     1      33.503 -15.882 -25.307  0.00  0.00    -0.141 N 
ATOM      9  C   UNL     1      34.468 -16.860 -25.115  0.00  0.00    +0.280 C 
ATOM     10  H   UNL     1      32.983 -15.510 -24.558  0.00  0.00    +0.196 HD
BRANCH   8  11
ATOM     11  O   UNL     1      33.309 -15.451 -26.633  0.00  0.00    -0.346 OA
BRANCH  11  13
ATOM     12  O   UNL     1      33.833 -13.508 -27.769  0.00  0.00    -0.248 OA
ATOM     13  C   UNL     1      33.465 -14.103 -26.765  0.00  0.00    +0.340 C 
ATOM     14  C   UNL     1      33.113 -13.430 -25.473  0.00  0.00    +0.123 C 
ENDBRANCH  11  13
ENDBRANCH   8  11
ENDBRANCH   1   9
BRANCH   2  15
ATOM     15  O   UNL     1      34.907 -15.064 -22.955  0.00  0.00    -0.505 OA
ATOM     16  H   UNL     1      35.664 -14.557 -22.738  0.00  0.00    +0.292 HD
ENDBRANCH   2  15
TORSDOF 4
ENDMDL
