MODEL 1
REMARK VINA RESULT:      -5.6      0.000      0.000
REMARK  Name = 6914643
REMARK  4 active torsions:
REMARK  status: ('A' for Active; 'I' for Inactive)
REMARK    1  A    between atoms: N_4  and  C_24
REMARK    2  A    between atoms: C_8  and  N_20
REMARK    3  A    between atoms: C_24  and  C_25
REMARK    4  A    between atoms: C_26  and  C_32
REMARK                            x       y       z     vdW  Elec       q    Type
REMARK                         _______ _______ _______ _____ _____    ______ ____
ROOT
ATOM      1  O   UNL     1      32.632 -13.369 -25.414  0.00  0.00    -0.272 OA
ATOM      2  O   UNL     1      34.576 -17.253 -23.640  0.00  0.00    -0.252 OA
ATOM      3  N   UNL     1      32.219 -11.444 -20.432  0.00  0.00    -0.274 N 
ATOM      4  N   UNL     1      32.466 -12.421 -22.580  0.00  0.00    -0.254 N 
ATOM      5  N   UNL     1      33.183 -13.631 -20.851  0.00  0.00    -0.360 NA
ATOM      6  N   UNL     1      33.945 -15.569 -22.163  0.00  0.00    -0.218 N 
ATOM      7  N   UNL     1      33.608 -15.323 -24.548  0.00  0.00    -0.210 N 
ATOM      8  C   UNL     1      32.158  -8.998 -20.171  0.00  0.00    -0.045 C 
ATOM      9  C   UNL     1      33.050 -10.244 -20.270  0.00  0.00    +0.073 C 
ATOM     10  C   UNL     1      31.100  -9.158 -19.073  0.00  0.00    -0.018 C 
ATOM     11  C   UNL     1      31.197 -11.652 -19.400  0.00  0.00    +0.094 C 
ATOM     12  C   UNL     1      30.288 -10.430 -19.304  0.00  0.00    +0.019 C 
ATOM     13  C   UNL     1      32.629 -12.496 -21.221  0.00  0.00    +0.243 C 
ATOM     14  C   UNL     1      32.950 -13.587 -23.104  0.00  0.00    +0.221 C 
ATOM     15  C   UNL     1      33.382 -14.308 -22.025  0.00  0.00    +0.197 C 
ATOM     16  C   UNL     1      33.026 -14.031 -24.457  0.00  0.00    +0.259 C 
ATOM     17  C   UNL     1      34.082 -16.135 -23.455  0.00  0.00    +0.318 C 
ATOM     18  C   UNL     1      34.392 -16.299 -20.982  0.00  0.00    +0.124 C 
ATOM     19  C   UNL     1      33.738 -15.889 -25.888  0.00  0.00    +0.124 C 
ENDROOT
BRANCH   8  20
ATOM     20  N   UNL     1      32.977  -7.818 -19.902  0.00  0.00    +0.383 N 
ATOM     21  H   UNL     1      33.695  -7.732 -20.621  0.00  0.00    -0.089 HD
ATOM     22  H   UNL     1      33.420  -7.913 -18.988  0.00  0.00    -0.089 HD
ATOM     23  H   UNL     1      32.387  -6.986 -19.909  0.00  0.00    -0.089 HD
ENDBRANCH   8  20
BRANCH   4  24
ATOM     24  C   UNL     1      31.892 -11.322 -23.322  0.00  0.00    +0.123 C 
BRANCH  24  25
ATOM     25  C   UNL     1      32.934 -10.295 -23.676  0.00  0.00    +0.007 C 
ATOM     26  C   UNL     1      32.628  -8.939 -23.703  0.00  0.00    +0.066 C 
ATOM     27  C   UNL     1      34.216 -10.739 -23.977  0.00  0.00    -0.002 C 
ATOM     28  C   UNL     1      33.617  -8.015 -24.036  0.00  0.00    +0.010 C 
ATOM     29  C   UNL     1      35.206  -9.814 -24.310  0.00  0.00    -0.000 C 
ATOM     30  C   UNL     1      34.907  -8.451 -24.340  0.00  0.00    +0.001 C 
BRANCH  26  32
ATOM     31  N   UNL     1      30.246  -8.080 -23.150  0.00  0.00    -0.191 NA
ATOM     32  C   UNL     1      31.313  -8.465 -23.397  0.00  0.00    +0.100 C 
ENDBRANCH  26  32
ENDBRANCH  24  25
ENDBRANCH   4  24
TORSDOF 4
ENDMDL
MODEL 2
REMARK VINA RESULT:      -5.4     11.944     14.802
REMARK  Name = 6914643
REMARK  4 active torsions:
REMARK  status: ('A' for Active; 'I' for Inactive)
REMARK    1  A    between atoms: N_4  and  C_24
REMARK    2  A    between atoms: C_8  and  N_20
REMARK    3  A    between atoms: C_24  and  C_25
REMARK    4  A    between atoms: C_26  and  C_32
REMARK                            x       y       z     vdW  Elec       q    Type
REMARK                         _______ _______ _______ _____ _____    ______ ____
ROOT
ATOM      1  O   UNL     1      37.283 -24.789 -15.645  0.00  0.00    -0.272 OA
ATOM      2  O   UNL     1      38.216 -24.743 -11.047  0.00  0.00    -0.252 OA
ATOM      3  N   UNL     1      32.090 -24.190 -14.475  0.00  0.00    -0.274 N 
ATOM      4  N   UNL     1      34.419 -24.452 -14.844  0.00  0.00    -0.254 N 
ATOM      5  N   UNL     1      33.760 -24.311 -12.719  0.00  0.00    -0.360 NA
ATOM      6  N   UNL     1      35.999 -24.523 -11.718  0.00  0.00    -0.218 N 
ATOM      7  N   UNL     1      37.774 -24.769 -13.347  0.00  0.00    -0.210 N 
ATOM      8  C   UNL     1      30.662 -23.148 -16.186  0.00  0.00    -0.045 C 
ATOM      9  C   UNL     1      31.588 -22.908 -14.985  0.00  0.00    +0.073 C 
ATOM     10  C   UNL     1      29.548 -24.141 -15.839  0.00  0.00    -0.018 C 
ATOM     11  C   UNL     1      31.063 -25.175 -14.114  0.00  0.00    +0.094 C 
ATOM     12  C   UNL     1      30.146 -25.440 -15.305  0.00  0.00    +0.019 C 
ATOM     13  C   UNL     1      33.368 -24.310 -13.976  0.00  0.00    +0.243 C 
ATOM     14  C   UNL     1      35.551 -24.550 -14.086  0.00  0.00    +0.221 C 
ATOM     15  C   UNL     1      35.120 -24.462 -12.790  0.00  0.00    +0.197 C 
ATOM     16  C   UNL     1      36.914 -24.711 -14.476  0.00  0.00    +0.259 C 
ATOM     17  C   UNL     1      37.387 -24.681 -11.961  0.00  0.00    +0.318 C 
ATOM     18  C   UNL     1      35.492 -24.423 -10.355  0.00  0.00    +0.124 C 
ATOM     19  C   UNL     1      39.199 -24.934 -13.619  0.00  0.00    +0.124 C 
ENDROOT
BRANCH   8  20
ATOM     20  N   UNL     1      30.078 -21.883 -16.627  0.00  0.00    +0.383 N 
ATOM     21  H   UNL     1      29.215 -22.068 -17.140  0.00  0.00    -0.089 HD
ATOM     22  H   UNL     1      30.737 -21.398 -17.236  0.00  0.00    -0.089 HD
ATOM     23  H   UNL     1      29.873 -21.301 -15.815  0.00  0.00    -0.089 HD
ENDBRANCH   8  20
BRANCH   4  24
ATOM     24  C   UNL     1      34.347 -24.492 -16.287  0.00  0.00    +0.123 C 
BRANCH  24  25
ATOM     25  C   UNL     1      35.062 -23.320 -16.905  0.00  0.00    +0.007 C 
ATOM     26  C   UNL     1      34.979 -23.064 -18.268  0.00  0.00    +0.066 C 
ATOM     27  C   UNL     1      35.811 -22.497 -16.073  0.00  0.00    -0.002 C 
ATOM     28  C   UNL     1      35.654 -21.970 -18.808  0.00  0.00    +0.010 C 
ATOM     29  C   UNL     1      36.487 -21.402 -16.612  0.00  0.00    -0.000 C 
ATOM     30  C   UNL     1      36.409 -21.139 -17.980  0.00  0.00    +0.001 C 
BRANCH  26  32
ATOM     31  N   UNL     1      33.592 -24.582 -19.845  0.00  0.00    -0.191 NA
ATOM     32  C   UNL     1      34.212 -23.902 -19.139  0.00  0.00    +0.100 C 
ENDBRANCH  26  32
ENDBRANCH  24  25
ENDBRANCH   4  24
TORSDOF 4
ENDMDL
MODEL 3
REMARK VINA RESULT:      -5.1     11.659     14.464
REMARK  Name = 6914643
REMARK  4 active torsions:
REMARK  status: ('A' for Active; 'I' for Inactive)
REMARK    1  A    between atoms: N_4  and  C_24
REMARK    2  A    between atoms: C_8  and  N_20
REMARK    3  A    between atoms: C_24  and  C_25
REMARK    4  A    between atoms: C_26  and  C_32
REMARK                            x       y       z     vdW  Elec       q    Type
REMARK                         _______ _______ _______ _____ _____    ______ ____
ROOT
ATOM      1  O   UNL     1      32.119 -23.356 -17.667  0.00  0.00    -0.272 OA
ATOM      2  O   UNL     1      28.990 -22.423 -14.298  0.00  0.00    -0.252 OA
ATOM      3  N   UNL     1      35.718 -24.454 -13.855  0.00  0.00    -0.274 N 
ATOM      4  N   UNL     1      34.023 -23.939 -15.433  0.00  0.00    -0.254 N 
ATOM      5  N   UNL     1      33.459 -23.777 -13.282  0.00  0.00    -0.360 NA
ATOM      6  N   UNL     1      31.131 -23.072 -13.657  0.00  0.00    -0.218 N 
ATOM      7  N   UNL     1      30.535 -22.884 -15.997  0.00  0.00    -0.210 N 
ATOM      8  C   UNL     1      37.553 -25.983 -14.444  0.00  0.00    -0.045 C 
ATOM      9  C   UNL     1      36.118 -25.866 -13.911  0.00  0.00    +0.073 C 
ATOM     10  C   UNL     1      38.520 -25.110 -13.637  0.00  0.00    -0.018 C 
ATOM     11  C   UNL     1      36.603 -23.574 -13.083  0.00  0.00    +0.094 C 
ATOM     12  C   UNL     1      38.031 -23.664 -13.615  0.00  0.00    +0.019 C 
ATOM     13  C   UNL     1      34.426 -24.066 -14.129  0.00  0.00    +0.243 C 
ATOM     14  C   UNL     1      32.716 -23.545 -15.410  0.00  0.00    +0.221 C 
ATOM     15  C   UNL     1      32.396 -23.453 -14.083  0.00  0.00    +0.197 C 
ATOM     16  C   UNL     1      31.814 -23.269 -16.480  0.00  0.00    +0.259 C 
ATOM     17  C   UNL     1      30.133 -22.768 -14.617  0.00  0.00    +0.318 C 
ATOM     18  C   UNL     1      30.838 -22.990 -12.231  0.00  0.00    +0.124 C 
ATOM     19  C   UNL     1      29.522 -22.573 -17.001  0.00  0.00    +0.124 C 
ENDROOT
BRANCH   8  20
ATOM     20  N   UNL     1      37.990 -27.377 -14.399  0.00  0.00    +0.383 N 
ATOM     21  H   UNL     1      38.985 -27.414 -14.175  0.00  0.00    -0.089 HD
ATOM     22  H   UNL     1      37.829 -27.814 -15.307  0.00  0.00    -0.089 HD
ATOM     23  H   UNL     1      37.462 -27.877 -13.683  0.00  0.00    -0.089 HD
ENDBRANCH   8  20
BRANCH   4  24
ATOM     24  C   UNL     1      34.826 -24.176 -16.611  0.00  0.00    +0.123 C 
BRANCH  24  25
ATOM     25  C   UNL     1      35.623 -22.956 -16.988  0.00  0.00    +0.007 C 
ATOM     26  C   UNL     1      35.488 -22.367 -18.239  0.00  0.00    +0.066 C 
ATOM     27  C   UNL     1      36.502 -22.432 -16.047  0.00  0.00    -0.002 C 
ATOM     28  C   UNL     1      36.243 -21.238 -18.555  0.00  0.00    +0.010 C 
ATOM     29  C   UNL     1      37.257 -21.302 -16.363  0.00  0.00    -0.000 C 
ATOM     30  C   UNL     1      37.127 -20.705 -17.618  0.00  0.00    +0.001 C 
BRANCH  26  32
ATOM     31  N   UNL     1      33.860 -23.324 -20.014  0.00  0.00    -0.191 NA
ATOM     32  C   UNL     1      34.589 -22.895 -19.219  0.00  0.00    +0.100 C 
ENDBRANCH  26  32
ENDBRANCH  24  25
ENDBRANCH   4  24
TORSDOF 4
ENDMDL
MODEL 4
REMARK VINA RESULT:      -4.9      1.867      2.700
REMARK  Name = 6914643
REMARK  4 active torsions:
REMARK  status: ('A' for Active; 'I' for Inactive)
REMARK    1  A    between atoms: N_4  and  C_24
REMARK    2  A    between atoms: C_8  and  N_20
REMARK    3  A    between atoms: C_24  and  C_25
REMARK    4  A    between atoms: C_26  and  C_32
REMARK                            x       y       z     vdW  Elec       q    Type
REMARK                         _______ _______ _______ _____ _____    ______ ____
ROOT
ATOM      1  O   UNL     1      33.644 -15.352 -25.753  0.00  0.00    -0.272 OA
ATOM      2  O   UNL     1      35.515 -18.427 -22.743  0.00  0.00    -0.252 OA
ATOM      3  N   UNL     1      32.416 -12.209 -21.592  0.00  0.00    -0.274 N 
ATOM      4  N   UNL     1      33.022 -13.699 -23.336  0.00  0.00    -0.254 N 
ATOM      5  N   UNL     1      33.545 -14.333 -21.264  0.00  0.00    -0.360 NA
ATOM      6  N   UNL     1      34.590 -16.474 -21.882  0.00  0.00    -0.218 N 
ATOM      7  N   UNL     1      34.587 -16.907 -24.264  0.00  0.00    -0.210 N 
ATOM      8  C   UNL     1      32.189  -9.799 -22.028  0.00  0.00    -0.045 C 
ATOM      9  C   UNL     1      33.150 -10.940 -21.667  0.00  0.00    +0.073 C 
ATOM     10  C   UNL     1      30.994  -9.754 -21.070  0.00  0.00    -0.018 C 
ATOM     11  C   UNL     1      31.268 -12.226 -20.678  0.00  0.00    +0.094 C 
ATOM     12  C   UNL     1      30.292 -11.109 -21.038  0.00  0.00    +0.019 C 
ATOM     13  C   UNL     1      32.990 -13.393 -22.001  0.00  0.00    +0.243 C 
ATOM     14  C   UNL     1      33.637 -14.914 -23.451  0.00  0.00    +0.221 C 
ATOM     15  C   UNL     1      33.947 -15.278 -22.170  0.00  0.00    +0.197 C 
ATOM     16  C   UNL     1      33.930 -15.696 -24.608  0.00  0.00    +0.259 C 
ATOM     17  C   UNL     1      34.941 -17.350 -22.939  0.00  0.00    +0.318 C 
ATOM     18  C   UNL     1      34.899 -16.818 -20.499  0.00  0.00    +0.124 C 
ATOM     19  C   UNL     1      34.939 -17.796 -25.367  0.00  0.00    +0.124 C 
ENDROOT
BRANCH   8  20
ATOM     20  N   UNL     1      32.897  -8.521 -21.998  0.00  0.00    +0.383 N 
ATOM     21  H   UNL     1      33.627  -8.520 -22.710  0.00  0.00    -0.089 HD
ATOM     22  H   UNL     1      33.319  -8.387 -21.079  0.00  0.00    -0.089 HD
ATOM     23  H   UNL     1      32.240  -7.763 -22.184  0.00  0.00    -0.089 HD
ENDBRANCH   8  20
BRANCH   4  24
ATOM     24  C   UNL     1      32.503 -12.895 -24.419  0.00  0.00    +0.123 C 
BRANCH  24  25
ATOM     25  C   UNL     1      33.578 -12.034 -25.027  0.00  0.00    +0.007 C 
ATOM     26  C   UNL     1      33.856 -12.083 -26.388  0.00  0.00    +0.066 C 
ATOM     27  C   UNL     1      34.290 -11.185 -24.188  0.00  0.00    -0.002 C 
ATOM     28  C   UNL     1      34.859 -11.272 -26.918  0.00  0.00    +0.010 C 
ATOM     29  C   UNL     1      35.294 -10.374 -24.717  0.00  0.00    -0.000 C 
ATOM     30  C   UNL     1      35.578 -10.417 -26.083  0.00  0.00    +0.001 C 
BRANCH  26  32
ATOM     31  N   UNL     1      32.547 -13.656 -27.977  0.00  0.00    -0.191 NA
ATOM     32  C   UNL     1      33.133 -12.952 -27.265  0.00  0.00    +0.100 C 
ENDBRANCH  26  32
ENDBRANCH  24  25
ENDBRANCH   4  24
TORSDOF 4
ENDMDL
MODEL 5
REMARK VINA RESULT:      -4.3     10.865     14.643
REMARK  Name = 6914643
REMARK  4 active torsions:
REMARK  status: ('A' for Active; 'I' for Inactive)
REMARK    1  A    between atoms: N_4  and  C_24
REMARK    2  A    between atoms: C_8  and  N_20
REMARK    3  A    between atoms: C_24  and  C_25
REMARK    4  A    between atoms: C_26  and  C_32
REMARK                            x       y       z     vdW  Elec       q    Type
REMARK                         _______ _______ _______ _____ _____    ______ ____
ROOT
ATOM      1  O   UNL     1      36.511 -22.863 -15.310  0.00  0.00    -0.272 OA
ATOM      2  O   UNL     1      36.874 -21.214 -19.687  0.00  0.00    -0.252 OA
ATOM      3  N   UNL     1      31.258 -23.530 -16.125  0.00  0.00    -0.274 N 
ATOM      4  N   UNL     1      33.596 -23.183 -15.906  0.00  0.00    -0.254 N 
ATOM      5  N   UNL     1      32.691 -22.640 -17.870  0.00  0.00    -0.360 NA
ATOM      6  N   UNL     1      34.773 -21.872 -18.934  0.00  0.00    -0.218 N 
ATOM      7  N   UNL     1      36.717 -22.034 -17.499  0.00  0.00    -0.210 N 
ATOM      8  C   UNL     1      30.116 -25.239 -14.772  0.00  0.00    -0.045 C 
ATOM      9  C   UNL     1      30.901 -24.953 -16.060  0.00  0.00    +0.073 C 
ATOM     10  C   UNL     1      28.911 -24.302 -14.636  0.00  0.00    -0.018 C 
ATOM     11  C   UNL     1      30.139 -22.589 -16.012  0.00  0.00    +0.094 C 
ATOM     12  C   UNL     1      29.361 -22.846 -14.725  0.00  0.00    +0.019 C 
ATOM     13  C   UNL     1      32.456 -23.118 -16.666  0.00  0.00    +0.243 C 
ATOM     14  C   UNL     1      34.618 -22.715 -16.682  0.00  0.00    +0.221 C 
ATOM     15  C   UNL     1      34.037 -22.390 -17.877  0.00  0.00    +0.197 C 
ATOM     16  C   UNL     1      36.007 -22.565 -16.390  0.00  0.00    +0.259 C 
ATOM     17  C   UNL     1      36.168 -21.671 -18.782  0.00  0.00    +0.318 C 
ATOM     18  C   UNL     1      34.109 -21.542 -20.189  0.00  0.00    +0.124 C 
ATOM     19  C   UNL     1      38.152 -21.833 -17.321  0.00  0.00    +0.124 C 
ENDROOT
BRANCH   8  20
ATOM     20  N   UNL     1      29.668 -26.630 -14.758  0.00  0.00    +0.383 N 
ATOM     21  H   UNL     1      28.772 -26.693 -14.274  0.00  0.00    -0.089 HD
ATOM     22  H   UNL     1      30.358 -27.205 -14.275  0.00  0.00    -0.089 HD
ATOM     23  H   UNL     1      29.560 -26.962 -15.717  0.00  0.00    -0.089 HD
ENDBRANCH   8  20
BRANCH   4  24
ATOM     24  C   UNL     1      33.700 -23.655 -14.544  0.00  0.00    +0.123 C 
BRANCH  24  25
ATOM     25  C   UNL     1      34.797 -24.675 -14.399  0.00  0.00    +0.007 C 
ATOM     26  C   UNL     1      35.488 -24.823 -13.202  0.00  0.00    +0.066 C 
ATOM     27  C   UNL     1      35.103 -25.469 -15.497  0.00  0.00    -0.002 C 
ATOM     28  C   UNL     1      36.500 -25.777 -13.102  0.00  0.00    +0.010 C 
ATOM     29  C   UNL     1      36.116 -26.423 -15.398  0.00  0.00    -0.000 C 
ATOM     30  C   UNL     1      36.814 -26.578 -14.200  0.00  0.00    +0.001 C 
BRANCH  26  32
ATOM     31  N   UNL     1      34.940 -23.356 -11.136  0.00  0.00    -0.191 NA
ATOM     32  C   UNL     1      35.185 -24.012 -12.061  0.00  0.00    +0.100 C 
ENDBRANCH  26  32
ENDBRANCH  24  25
ENDBRANCH   4  24
TORSDOF 4
ENDMDL
MODEL 6
REMARK VINA RESULT:      -4.0     10.513     14.304
REMARK  Name = 6914643
REMARK  4 active torsions:
REMARK  status: ('A' for Active; 'I' for Inactive)
REMARK    1  A    between atoms: N_4  and  C_24
REMARK    2  A    between atoms: C_8  and  N_20
REMARK    3  A    between atoms: C_24  and  C_25
REMARK    4  A    between atoms: C_26  and  C_32
REMARK                            x       y       z     vdW  Elec       q    Type
REMARK                         _______ _______ _______ _____ _____    ______ ____
ROOT
ATOM      1  O   UNL     1      32.264 -23.187 -18.091  0.00  0.00    -0.272 OA
ATOM      2  O   UNL     1      35.091 -20.285 -20.457  0.00  0.00    -0.252 OA
ATOM      3  N   UNL     1      36.315 -24.207 -14.737  0.00  0.00    -0.274 N 
ATOM      4  N   UNL     1      34.612 -23.660 -16.298  0.00  0.00    -0.254 N 
ATOM      5  N   UNL     1      36.588 -22.671 -16.596  0.00  0.00    -0.360 NA
ATOM      6  N   UNL     1      35.954 -21.382 -18.595  0.00  0.00    -0.218 N 
ATOM      7  N   UNL     1      33.661 -21.729 -19.291  0.00  0.00    -0.210 N 
ATOM      8  C   UNL     1      35.736 -24.942 -12.462  0.00  0.00    -0.045 C 
ATOM      9  C   UNL     1      35.995 -23.741 -13.382  0.00  0.00    +0.073 C 
ATOM     10  C   UNL     1      36.902 -25.936 -12.504  0.00  0.00    -0.018 C 
ATOM     11  C   UNL     1      37.433 -25.152 -14.836  0.00  0.00    +0.094 C 
ATOM     12  C   UNL     1      37.180 -26.363 -13.942  0.00  0.00    +0.019 C 
ATOM     13  C   UNL     1      35.899 -23.509 -15.850  0.00  0.00    +0.243 C 
ATOM     14  C   UNL     1      34.479 -22.865 -17.400  0.00  0.00    +0.221 C 
ATOM     15  C   UNL     1      35.701 -22.272 -17.561  0.00  0.00    +0.197 C 
ATOM     16  C   UNL     1      33.354 -22.645 -18.251  0.00  0.00    +0.259 C 
ATOM     17  C   UNL     1      34.924 -21.070 -19.517  0.00  0.00    +0.318 C 
ATOM     18  C   UNL     1      37.274 -20.774 -18.724  0.00  0.00    +0.124 C 
ATOM     19  C   UNL     1      32.587 -21.423 -20.231  0.00  0.00    +0.124 C 
ENDROOT
BRANCH   8  20
ATOM     20  N   UNL     1      35.524 -24.484 -11.090  0.00  0.00    +0.383 N 
ATOM     21  H   UNL     1      36.118 -25.021 -10.457  0.00  0.00    -0.089 HD
ATOM     22  H   UNL     1      34.546 -24.618 -10.834  0.00  0.00    -0.089 HD
ATOM     23  H   UNL     1      35.762 -23.494 -11.021  0.00  0.00    -0.089 HD
ENDBRANCH   8  20
BRANCH   4  24
ATOM     24  C   UNL     1      33.589 -24.500 -15.717  0.00  0.00    +0.123 C 
BRANCH  24  25
ATOM     25  C   UNL     1      32.565 -23.684 -14.974  0.00  0.00    +0.007 C 
ATOM     26  C   UNL     1      31.223 -24.045 -14.971  0.00  0.00    +0.066 C 
ATOM     27  C   UNL     1      32.998 -22.556 -14.289  0.00  0.00    -0.002 C 
ATOM     28  C   UNL     1      30.301 -23.266 -14.274  0.00  0.00    +0.010 C 
ATOM     29  C   UNL     1      32.076 -21.776 -13.591  0.00  0.00    -0.000 C 
ATOM     30  C   UNL     1      30.726 -22.131 -13.584  0.00  0.00    +0.001 C 
BRANCH  26  32
ATOM     31  N   UNL     1      30.385 -26.142 -16.241  0.00  0.00    -0.191 NA
ATOM     32  C   UNL     1      30.761 -25.204 -15.673  0.00  0.00    +0.100 C 
ENDBRANCH  26  32
ENDBRANCH  24  25
ENDBRANCH   4  24
TORSDOF 4
ENDMDL
MODEL 7
REMARK VINA RESULT:      -3.9      2.077      3.396
REMARK  Name = 6914643
REMARK  4 active torsions:
REMARK  status: ('A' for Active; 'I' for Inactive)
REMARK    1  A    between atoms: N_4  and  C_24
REMARK    2  A    between atoms: C_8  and  N_20
REMARK    3  A    between atoms: C_24  and  C_25
REMARK    4  A    between atoms: C_26  and  C_32
REMARK                            x       y       z     vdW  Elec       q    Type
REMARK                         _______ _______ _______ _____ _____    ______ ____
ROOT
ATOM      1  O   UNL     1      35.330 -15.051 -23.775  0.00  0.00    -0.272 OA
ATOM      2  O   UNL     1      33.423 -18.120 -20.782  0.00  0.00    -0.252 OA
ATOM      3  N   UNL     1      31.967 -11.323 -21.909  0.00  0.00    -0.274 N 
ATOM      4  N   UNL     1      33.395 -13.073 -22.637  0.00  0.00    -0.254 N 
ATOM      5  N   UNL     1      31.936 -13.586 -21.031  0.00  0.00    -0.360 NA
ATOM      6  N   UNL     1      32.599 -15.944 -20.795  0.00  0.00    -0.218 N 
ATOM      7  N   UNL     1      34.390 -16.606 -22.284  0.00  0.00    -0.210 N 
ATOM      8  C   UNL     1      32.664  -8.973 -22.112  0.00  0.00    -0.045 C 
ATOM      9  C   UNL     1      32.708 -10.241 -21.248  0.00  0.00    +0.073 C 
ATOM     10  C   UNL     1      31.224  -8.593 -22.470  0.00  0.00    -0.018 C 
ATOM     11  C   UNL     1      30.576 -11.017 -22.262  0.00  0.00    +0.094 C 
ATOM     12  C   UNL     1      30.518  -9.769 -23.139  0.00  0.00    +0.019 C 
ATOM     13  C   UNL     1      32.385 -12.633 -21.822  0.00  0.00    +0.243 C 
ATOM     14  C   UNL     1      33.599 -14.391 -22.342  0.00  0.00    +0.221 C 
ATOM     15  C   UNL     1      32.694 -14.679 -21.358  0.00  0.00    +0.197 C 
ATOM     16  C   UNL     1      34.524 -15.329 -22.890  0.00  0.00    +0.259 C 
ATOM     17  C   UNL     1      33.461 -16.975 -21.246  0.00  0.00    +0.318 C 
ATOM     18  C   UNL     1      31.619 -16.202 -19.747  0.00  0.00    +0.124 C 
ATOM     19  C   UNL     1      35.286 -17.654 -22.764  0.00  0.00    +0.124 C 
ENDROOT
BRANCH   8  20
ATOM     20  N   UNL     1      33.309  -7.866 -21.407  0.00  0.00    +0.383 N 
ATOM     21  H   UNL     1      32.599  -7.204 -21.095  0.00  0.00    -0.089 HD
ATOM     22  H   UNL     1      33.960  -7.395 -22.036  0.00  0.00    -0.089 HD
ATOM     23  H   UNL     1      33.816  -8.227 -20.599  0.00  0.00    -0.089 HD
ENDBRANCH   8  20
BRANCH   4  24
ATOM     24  C   UNL     1      34.110 -12.294 -23.622  0.00  0.00    +0.123 C 
BRANCH  24  25
ATOM     25  C   UNL     1      33.705 -12.672 -25.021  0.00  0.00    +0.007 C 
ATOM     26  C   UNL     1      34.173 -11.964 -26.122  0.00  0.00    +0.066 C 
ATOM     27  C   UNL     1      32.846 -13.752 -25.185  0.00  0.00    -0.002 C 
ATOM     28  C   UNL     1      33.777 -12.341 -27.405  0.00  0.00    +0.010 C 
ATOM     29  C   UNL     1      32.449 -14.129 -26.468  0.00  0.00    -0.000 C 
ATOM     30  C   UNL     1      32.915 -13.423 -27.579  0.00  0.00    +0.001 C 
BRANCH  26  32
ATOM     31  N   UNL     1      35.775  -9.945 -25.848  0.00  0.00    -0.191 NA
ATOM     32  C   UNL     1      35.058 -10.849 -25.970  0.00  0.00    +0.100 C 
ENDBRANCH  26  32
ENDBRANCH  24  25
ENDBRANCH   4  24
TORSDOF 4
ENDMDL
MODEL 8
REMARK VINA RESULT:      -3.0     12.747     15.420
REMARK  Name = 6914643
REMARK  4 active torsions:
REMARK  status: ('A' for Active; 'I' for Inactive)
REMARK    1  A    between atoms: N_4  and  C_24
REMARK    2  A    between atoms: C_8  and  N_20
REMARK    3  A    between atoms: C_24  and  C_25
REMARK    4  A    between atoms: C_26  and  C_32
REMARK                            x       y       z     vdW  Elec       q    Type
REMARK                         _______ _______ _______ _____ _____    ______ ____
ROOT
ATOM      1  O   UNL     1      32.754 -24.403 -17.001  0.00  0.00    -0.272 OA
ATOM      2  O   UNL     1      29.049 -22.918 -14.535  0.00  0.00    -0.252 OA
ATOM      3  N   UNL     1      35.690 -24.125 -12.529  0.00  0.00    -0.274 N 
ATOM      4  N   UNL     1      34.270 -24.201 -14.428  0.00  0.00    -0.254 N 
ATOM      5  N   UNL     1      33.336 -23.536 -12.516  0.00  0.00    -0.360 NA
ATOM      6  N   UNL     1      31.076 -23.174 -13.421  0.00  0.00    -0.218 N 
ATOM      7  N   UNL     1      30.884 -23.660 -15.786  0.00  0.00    -0.210 N 
ATOM      8  C   UNL     1      37.671 -25.577 -12.390  0.00  0.00    -0.045 C 
ATOM      9  C   UNL     1      36.162 -25.458 -12.135  0.00  0.00    +0.073 C 
ATOM     10  C   UNL     1      38.440 -24.436 -11.714  0.00  0.00    -0.018 C 
ATOM     11  C   UNL     1      36.385 -22.995 -11.901  0.00  0.00    +0.094 C 
ATOM     12  C   UNL     1      37.885 -23.087 -12.163  0.00  0.00    +0.019 C 
ATOM     13  C   UNL     1      34.447 -23.944 -13.093  0.00  0.00    +0.243 C 
ATOM     14  C   UNL     1      32.960 -23.938 -14.714  0.00  0.00    +0.221 C 
ATOM     15  C   UNL     1      32.412 -23.533 -13.528  0.00  0.00    +0.197 C 
ATOM     16  C   UNL     1      32.244 -24.037 -15.944  0.00  0.00    +0.259 C 
ATOM     17  C   UNL     1      30.245 -23.226 -14.569  0.00  0.00    +0.318 C 
ATOM     18  C   UNL     1      30.538 -22.750 -12.134  0.00  0.00    +0.124 C 
ATOM     19  C   UNL     1      30.046 -23.719 -16.980  0.00  0.00    +0.124 C 
ENDROOT
BRANCH   8  20
ATOM     20  N   UNL     1      38.161 -26.864 -11.899  0.00  0.00    +0.383 N 
ATOM     21  H   UNL     1      37.383 -27.521 -11.836  0.00  0.00    -0.089 HD
ATOM     22  H   UNL     1      38.578 -26.740 -10.976  0.00  0.00    -0.089 HD
ATOM     23  H   UNL     1      38.863 -27.229 -12.543  0.00  0.00    -0.089 HD
ENDBRANCH   8  20
BRANCH   4  24
ATOM     24  C   UNL     1      35.275 -24.662 -15.359  0.00  0.00    +0.123 C 
BRANCH  24  25
ATOM     25  C   UNL     1      36.167 -23.535 -15.807  0.00  0.00    +0.007 C 
ATOM     26  C   UNL     1      37.550 -23.665 -15.796  0.00  0.00    +0.066 C 
ATOM     27  C   UNL     1      35.568 -22.356 -16.233  0.00  0.00    -0.002 C 
ATOM     28  C   UNL     1      38.347 -22.601 -16.217  0.00  0.00    +0.010 C 
ATOM     29  C   UNL     1      36.365 -21.291 -16.654  0.00  0.00    -0.000 C 
ATOM     30  C   UNL     1      37.755 -21.413 -16.646  0.00  0.00    +0.001 C 
BRANCH  26  32
ATOM     31  N   UNL     1      38.696 -25.851 -15.005  0.00  0.00    -0.191 NA
ATOM     32  C   UNL     1      38.183 -24.873 -15.359  0.00  0.00    +0.100 C 
ENDBRANCH  26  32
ENDBRANCH  24  25
ENDBRANCH   4  24
TORSDOF 4
ENDMDL
MODEL 9
REMARK VINA RESULT:      -2.9     12.093     14.318
REMARK  Name = 6914643
REMARK  4 active torsions:
REMARK  status: ('A' for Active; 'I' for Inactive)
REMARK    1  A    between atoms: N_4  and  C_24
REMARK    2  A    between atoms: C_8  and  N_20
REMARK    3  A    between atoms: C_24  and  C_25
REMARK    4  A    between atoms: C_26  and  C_32
REMARK                            x       y       z     vdW  Elec       q    Type
REMARK                         _______ _______ _______ _____ _____    ______ ____
ROOT
ATOM      1  O   UNL     1      31.236 -21.637 -17.045  0.00  0.00    -0.272 OA
ATOM      2  O   UNL     1      27.763 -24.575 -15.896  0.00  0.00    -0.252 OA
ATOM      3  N   UNL     1      34.563 -24.596 -14.066  0.00  0.00    -0.274 N 
ATOM      4  N   UNL     1      32.978 -23.382 -15.348  0.00  0.00    -0.254 N 
ATOM      5  N   UNL     1      32.218 -25.185 -14.279  0.00  0.00    -0.360 NA
ATOM      6  N   UNL     1      29.884 -24.994 -15.035  0.00  0.00    -0.218 N 
ATOM      7  N   UNL     1      29.481 -23.095 -16.483  0.00  0.00    -0.210 N 
ATOM      8  C   UNL     1      36.953 -24.532 -14.645  0.00  0.00    -0.045 C 
ATOM      9  C   UNL     1      35.600 -25.211 -14.903  0.00  0.00    +0.073 C 
ATOM     10  C   UNL     1      37.299 -24.532 -13.153  0.00  0.00    -0.018 C 
ATOM     11  C   UNL     1      34.838 -24.580 -12.624  0.00  0.00    +0.094 C 
ATOM     12  C   UNL     1      36.171 -23.889 -12.350  0.00  0.00    +0.019 C 
ATOM     13  C   UNL     1      33.274 -24.437 -14.525  0.00  0.00    +0.243 C 
ATOM     14  C   UNL     1      31.647 -23.468 -15.643  0.00  0.00    +0.221 C 
ATOM     15  C   UNL     1      31.207 -24.579 -14.976  0.00  0.00    +0.197 C 
ATOM     16  C   UNL     1      30.823 -22.632 -16.453  0.00  0.00    +0.259 C 
ATOM     17  C   UNL     1      28.953 -24.254 -15.806  0.00  0.00    +0.318 C 
ATOM     18  C   UNL     1      29.463 -26.186 -14.308  0.00  0.00    +0.124 C 
ATOM     19  C   UNL     1      28.538 -22.318 -17.282  0.00  0.00    +0.124 C 
ENDROOT
BRANCH   8  20
ATOM     20  N   UNL     1      38.005 -25.214 -15.398  0.00  0.00    +0.383 N 
ATOM     21  H   UNL     1      37.746 -26.191 -15.534  0.00  0.00    -0.089 HD
ATOM     22  H   UNL     1      38.882 -25.163 -14.879  0.00  0.00    -0.089 HD
ATOM     23  H   UNL     1      38.121 -24.763 -16.306  0.00  0.00    -0.089 HD
ENDBRANCH   8  20
BRANCH   4  24
ATOM     24  C   UNL     1      33.896 -22.369 -15.818  0.00  0.00    +0.123 C 
BRANCH  24  25
ATOM     25  C   UNL     1      34.207 -22.545 -17.280  0.00  0.00    +0.007 C 
ATOM     26  C   UNL     1      35.464 -22.240 -17.790  0.00  0.00    +0.066 C 
ATOM     27  C   UNL     1      33.201 -23.022 -18.111  0.00  0.00    -0.002 C 
ATOM     28  C   UNL     1      35.718 -22.414 -19.149  0.00  0.00    +0.010 C 
ATOM     29  C   UNL     1      33.455 -23.196 -19.472  0.00  0.00    -0.000 C 
ATOM     30  C   UNL     1      34.714 -22.892 -19.991  0.00  0.00    +0.001 C 
BRANCH  26  32
ATOM     31  N   UNL     1      37.360 -21.349 -16.265  0.00  0.00    -0.191 NA
ATOM     32  C   UNL     1      36.511 -21.747 -16.947  0.00  0.00    +0.100 C 
ENDBRANCH  26  32
ENDBRANCH  24  25
ENDBRANCH   4  24
TORSDOF 4
ENDMDL
