MODEL 1
REMARK VINA RESULT:      -8.2      0.000      0.000
REMARK  Name = 9795056
REMARK  2 active torsions:
REMARK  status: ('A' for Active; 'I' for Inactive)
REMARK    1  A    between atoms: C_5  and  C_13
REMARK    2  A    between atoms: C_5  and  O_19
REMARK                            x       y       z     vdW  Elec       q    Type
REMARK                         _______ _______ _______ _____ _____    ______ ____
ROOT
ATOM      1  O   UNL     1      34.804 -16.505 -20.919  0.00  0.00    -0.335 OA
ATOM      2  N   UNL     1      34.174 -16.056 -23.654  0.00  0.00    +0.393 N 
ATOM      3  C   UNL     1      33.973 -14.995 -22.652  0.00  0.00    -0.018 C 
ATOM      4  C   UNL     1      34.095 -17.412 -23.081  0.00  0.00    -0.005 C 
ATOM      5  C   UNL     1      35.049 -17.568 -21.861  0.00  0.00    +0.186 C 
ATOM      6  C   UNL     1      34.951 -15.205 -21.490  0.00  0.00    +0.125 C 
ATOM      7  C   UNL     1      32.516 -14.978 -22.154  0.00  0.00    -0.019 C 
ATOM      8  C   UNL     1      34.270 -13.648 -23.332  0.00  0.00    -0.019 C 
ATOM      9  C   UNL     1      34.388 -18.400 -24.217  0.00  0.00    -0.018 C 
ATOM     10  H   UNL     1      35.096 -15.934 -24.074  0.00  0.00    -0.084 HD
ATOM     11  H   UNL     1      33.427 -15.972 -24.342  0.00  0.00    -0.084 HD
ENDROOT
BRANCH   5  13
ATOM     12 CL   UNL     1      36.844 -21.764 -19.300  0.00  0.00    -0.082 Cl
ATOM     13  C   UNL     1      34.759 -18.881 -21.125  0.00  0.00    +0.027 C 
ATOM     14  C   UNL     1      35.811 -19.635 -20.609  0.00  0.00    +0.012 C 
ATOM     15  C   UNL     1      33.444 -19.316 -20.972  0.00  0.00    +0.000 C 
ATOM     16  C   UNL     1      35.547 -20.829 -19.937  0.00  0.00    +0.058 C 
ATOM     17  C   UNL     1      33.180 -20.511 -20.301  0.00  0.00    +0.001 C 
ATOM     18  C   UNL     1      34.231 -21.267 -19.784  0.00  0.00    +0.011 C 
ENDBRANCH   5  13
BRANCH   5  19
ATOM     19  O   UNL     1      36.408 -17.508 -22.311  0.00  0.00    -0.362 OA
ATOM     20  H   UNL     1      36.650 -16.584 -22.485  0.00  0.00    +0.213 HD
ENDBRANCH   5  19
TORSDOF 2
ENDMDL
MODEL 2
REMARK VINA RESULT:      -8.0      1.212      1.740
REMARK  Name = 9795056
REMARK  2 active torsions:
REMARK  status: ('A' for Active; 'I' for Inactive)
REMARK    1  A    between atoms: C_5  and  C_13
REMARK    2  A    between atoms: C_5  and  O_19
REMARK                            x       y       z     vdW  Elec       q    Type
REMARK                         _______ _______ _______ _____ _____    ______ ____
ROOT
ATOM      1  O   UNL     1      35.231 -16.854 -20.626  0.00  0.00    -0.335 OA
ATOM      2  N   UNL     1      34.044 -16.546 -23.190  0.00  0.00    +0.393 N 
ATOM      3  C   UNL     1      33.861 -15.521 -22.149  0.00  0.00    -0.018 C 
ATOM      4  C   UNL     1      34.293 -17.890 -22.637  0.00  0.00    -0.005 C 
ATOM      5  C   UNL     1      35.467 -17.874 -21.616  0.00  0.00    +0.186 C 
ATOM      6  C   UNL     1      35.058 -15.555 -21.190  0.00  0.00    +0.125 C 
ATOM      7  C   UNL     1      32.538 -15.735 -21.391  0.00  0.00    -0.019 C 
ATOM      8  C   UNL     1      33.806 -14.151 -22.846  0.00  0.00    -0.019 C 
ATOM      9  C   UNL     1      34.528 -18.831 -23.826  0.00  0.00    -0.018 C 
ATOM     10  H   UNL     1      34.840 -16.281 -23.770  0.00  0.00    -0.084 HD
ATOM     11  H   UNL     1      33.179 -16.594 -23.727  0.00  0.00    -0.084 HD
ENDROOT
BRANCH   5  13
ATOM     12 CL   UNL     1      32.972 -21.855 -19.309  0.00  0.00    -0.082 Cl
ATOM     13  C   UNL     1      35.535 -19.208 -20.863  0.00  0.00    +0.027 C 
ATOM     14  C   UNL     1      34.360 -19.848 -20.476  0.00  0.00    +0.012 C 
ATOM     15  C   UNL     1      36.773 -19.777 -20.570  0.00  0.00    +0.000 C 
ATOM     16  C   UNL     1      34.422 -21.062 -19.792  0.00  0.00    +0.058 C 
ATOM     17  C   UNL     1      36.835 -20.991 -19.885  0.00  0.00    +0.001 C 
ATOM     18  C   UNL     1      35.660 -21.634 -19.496  0.00  0.00    +0.011 C 
ENDBRANCH   5  13
BRANCH   5  19
ATOM     19  O   UNL     1      36.693 -17.599 -22.307  0.00  0.00    -0.362 OA
ATOM     20  H   UNL     1      37.344 -17.246 -21.680  0.00  0.00    +0.213 HD
ENDBRANCH   5  19
TORSDOF 2
ENDMDL
MODEL 3
REMARK VINA RESULT:      -8.0      6.477      9.576
REMARK  Name = 9795056
REMARK  2 active torsions:
REMARK  status: ('A' for Active; 'I' for Inactive)
REMARK    1  A    between atoms: C_5  and  C_13
REMARK    2  A    between atoms: C_5  and  O_19
REMARK                            x       y       z     vdW  Elec       q    Type
REMARK                         _______ _______ _______ _____ _____    ______ ____
ROOT
ATOM      1  O   UNL     1      37.006 -23.808 -15.786  0.00  0.00    -0.335 OA
ATOM      2  N   UNL     1      35.372 -25.179 -13.908  0.00  0.00    +0.393 N 
ATOM      3  C   UNL     1      36.757 -25.612 -14.155  0.00  0.00    -0.018 C 
ATOM      4  C   UNL     1      34.767 -24.493 -15.064  0.00  0.00    -0.005 C 
ATOM      5  C   UNL     1      35.666 -23.324 -15.562  0.00  0.00    +0.186 C 
ATOM      6  C   UNL     1      37.585 -24.410 -14.629  0.00  0.00    +0.125 C 
ATOM      7  C   UNL     1      36.802 -26.755 -15.184  0.00  0.00    -0.019 C 
ATOM      8  C   UNL     1      37.330 -26.131 -12.825  0.00  0.00    -0.019 C 
ATOM      9  C   UNL     1      33.363 -24.046 -14.641  0.00  0.00    -0.018 C 
ATOM     10  H   UNL     1      35.368 -24.540 -13.113  0.00  0.00    -0.084 HD
ATOM     11  H   UNL     1      34.818 -26.016 -13.728  0.00  0.00    -0.084 HD
ENDROOT
BRANCH   5  13
ATOM     12 CL   UNL     1      36.599 -20.698 -19.992  0.00  0.00    -0.082 Cl
ATOM     13  C   UNL     1      35.159 -22.801 -16.911  0.00  0.00    +0.027 C 
ATOM     14  C   UNL     1      36.012 -22.074 -17.739  0.00  0.00    +0.012 C 
ATOM     15  C   UNL     1      33.847 -23.055 -17.305  0.00  0.00    +0.000 C 
ATOM     16  C   UNL     1      35.549 -21.598 -18.967  0.00  0.00    +0.058 C 
ATOM     17  C   UNL     1      33.385 -22.579 -18.533  0.00  0.00    +0.001 C 
ATOM     18  C   UNL     1      34.236 -21.851 -19.364  0.00  0.00    +0.011 C 
ENDBRANCH   5  13
BRANCH   5  19
ATOM     19  O   UNL     1      35.690 -22.288 -14.572  0.00  0.00    -0.362 OA
ATOM     20  H   UNL     1      35.869 -22.677 -13.702  0.00  0.00    +0.213 HD
ENDBRANCH   5  19
TORSDOF 2
ENDMDL
MODEL 4
REMARK VINA RESULT:      -7.9      3.243      5.862
REMARK  Name = 9795056
REMARK  2 active torsions:
REMARK  status: ('A' for Active; 'I' for Inactive)
REMARK    1  A    between atoms: C_5  and  C_13
REMARK    2  A    between atoms: C_5  and  O_19
REMARK                            x       y       z     vdW  Elec       q    Type
REMARK                         _______ _______ _______ _____ _____    ______ ____
ROOT
ATOM      1  O   UNL     1      34.490 -18.376 -23.459  0.00  0.00    -0.335 OA
ATOM      2  N   UNL     1      34.686 -18.080 -20.640  0.00  0.00    +0.393 N 
ATOM      3  C   UNL     1      34.350 -19.383 -21.237  0.00  0.00    -0.018 C 
ATOM      4  C   UNL     1      34.292 -16.939 -21.485  0.00  0.00    -0.005 C 
ATOM      5  C   UNL     1      34.852 -17.084 -22.930  0.00  0.00    +0.186 C 
ATOM      6  C   UNL     1      34.943 -19.460 -22.650  0.00  0.00    +0.125 C 
ATOM      7  C   UNL     1      32.826 -19.599 -21.264  0.00  0.00    -0.019 C 
ATOM      8  C   UNL     1      34.981 -20.478 -20.360  0.00  0.00    -0.019 C 
ATOM      9  C   UNL     1      34.761 -15.665 -20.772  0.00  0.00    -0.018 C 
ATOM     10  H   UNL     1      35.695 -18.042 -20.493  0.00  0.00    -0.084 HD
ATOM     11  H   UNL     1      34.170 -18.003 -19.764  0.00  0.00    -0.084 HD
ENDROOT
BRANCH   5  13
ATOM     12 CL   UNL     1      33.179 -12.182 -23.673  0.00  0.00    -0.082 Cl
ATOM     13  C   UNL     1      34.217 -16.039 -23.854  0.00  0.00    +0.027 C 
ATOM     14  C   UNL     1      34.012 -14.739 -23.395  0.00  0.00    +0.012 C 
ATOM     15  C   UNL     1      33.847 -16.391 -25.151  0.00  0.00    +0.000 C 
ATOM     16  C   UNL     1      33.435 -13.788 -24.237  0.00  0.00    +0.058 C 
ATOM     17  C   UNL     1      33.270 -15.439 -25.992  0.00  0.00    +0.001 C 
ATOM     18  C   UNL     1      33.064 -14.138 -25.535  0.00  0.00    +0.011 C 
ENDBRANCH   5  13
BRANCH   5  19
ATOM     19  O   UNL     1      36.279 -16.960 -22.900  0.00  0.00    -0.362 OA
ATOM     20  H   UNL     1      36.653 -17.337 -23.712  0.00  0.00    +0.213 HD
ENDBRANCH   5  19
TORSDOF 2
ENDMDL
MODEL 5
REMARK VINA RESULT:      -7.7      3.076      5.636
REMARK  Name = 9795056
REMARK  2 active torsions:
REMARK  status: ('A' for Active; 'I' for Inactive)
REMARK    1  A    between atoms: C_5  and  C_13
REMARK    2  A    between atoms: C_5  and  O_19
REMARK                            x       y       z     vdW  Elec       q    Type
REMARK                         _______ _______ _______ _____ _____    ______ ____
ROOT
ATOM      1  O   UNL     1      36.604 -19.089 -21.432  0.00  0.00    -0.335 OA
ATOM      2  N   UNL     1      34.780 -20.476 -19.751  0.00  0.00    +0.393 N 
ATOM      3  C   UNL     1      36.189 -20.896 -19.840  0.00  0.00    -0.018 C 
ATOM      4  C   UNL     1      34.304 -19.794 -20.968  0.00  0.00    -0.005 C 
ATOM      5  C   UNL     1      35.244 -18.617 -21.361  0.00  0.00    +0.186 C 
ATOM      6  C   UNL     1      37.054 -19.686 -20.217  0.00  0.00    +0.125 C 
ATOM      7  C   UNL     1      36.360 -22.038 -20.858  0.00  0.00    -0.019 C 
ATOM      8  C   UNL     1      36.611 -21.412 -18.454  0.00  0.00    -0.019 C 
ATOM      9  C   UNL     1      32.857 -19.360 -20.706  0.00  0.00    -0.018 C 
ATOM     10  H   UNL     1      34.681 -19.838 -18.961  0.00  0.00    -0.084 HD
ATOM     11  H   UNL     1      34.217 -21.318 -19.635  0.00  0.00    -0.084 HD
ENDROOT
BRANCH   5  13
ATOM     12 CL   UNL     1      33.848 -14.619 -24.437  0.00  0.00    -0.082 Cl
ATOM     13  C   UNL     1      34.888 -18.096 -22.758  0.00  0.00    +0.027 C 
ATOM     14  C   UNL     1      34.568 -16.752 -22.938  0.00  0.00    +0.012 C 
ATOM     15  C   UNL     1      34.886 -18.969 -23.845  0.00  0.00    +0.000 C 
ATOM     16  C   UNL     1      34.245 -16.279 -24.210  0.00  0.00    +0.058 C 
ATOM     17  C   UNL     1      34.563 -18.495 -25.117  0.00  0.00    +0.001 C 
ATOM     18  C   UNL     1      34.242 -17.150 -25.300  0.00  0.00    +0.011 C 
ENDBRANCH   5  13
BRANCH   5  19
ATOM     19  O   UNL     1      35.145 -17.582 -20.375  0.00  0.00    -0.362 OA
ATOM     20  H   UNL     1      35.972 -17.537 -19.869  0.00  0.00    +0.213 HD
ENDBRANCH   5  19
TORSDOF 2
ENDMDL
MODEL 6
REMARK VINA RESULT:      -7.6      8.219     10.237
REMARK  Name = 9795056
REMARK  2 active torsions:
REMARK  status: ('A' for Active; 'I' for Inactive)
REMARK    1  A    between atoms: C_5  and  C_13
REMARK    2  A    between atoms: C_5  and  O_19
REMARK                            x       y       z     vdW  Elec       q    Type
REMARK                         _______ _______ _______ _____ _____    ______ ____
ROOT
ATOM      1  O   UNL     1      35.192 -24.818 -13.682  0.00  0.00    -0.335 OA
ATOM      2  N   UNL     1      37.609 -23.354 -13.982  0.00  0.00    +0.393 N 
ATOM      3  C   UNL     1      37.287 -24.019 -12.709  0.00  0.00    -0.018 C 
ATOM      4  C   UNL     1      36.412 -22.988 -14.760  0.00  0.00    -0.005 C 
ATOM      5  C   UNL     1      35.470 -24.211 -14.959  0.00  0.00    +0.186 C 
ATOM      6  C   UNL     1      36.370 -25.218 -12.983  0.00  0.00    +0.125 C 
ATOM      7  C   UNL     1      36.631 -23.035 -11.723  0.00  0.00    -0.019 C 
ATOM      8  C   UNL     1      38.606 -24.517 -12.094  0.00  0.00    -0.019 C 
ATOM      9  C   UNL     1      36.900 -22.371 -16.077  0.00  0.00    -0.018 C 
ATOM     10  H   UNL     1      38.181 -23.986 -14.543  0.00  0.00    -0.084 HD
ATOM     11  H   UNL     1      38.103 -22.490 -13.758  0.00  0.00    -0.084 HD
ENDROOT
BRANCH   5  13
ATOM     12 CL   UNL     1      30.420 -23.080 -14.182  0.00  0.00    -0.082 Cl
ATOM     13  C   UNL     1      34.123 -23.757 -15.531  0.00  0.00    +0.027 C 
ATOM     14  C   UNL     1      33.016 -23.639 -14.693  0.00  0.00    +0.012 C 
ATOM     15  C   UNL     1      34.009 -23.462 -16.889  0.00  0.00    +0.000 C 
ATOM     16  C   UNL     1      31.790 -23.225 -15.214  0.00  0.00    +0.058 C 
ATOM     17  C   UNL     1      32.782 -23.047 -17.409  0.00  0.00    +0.001 C 
ATOM     18  C   UNL     1      31.673 -22.929 -16.572  0.00  0.00    +0.011 C 
ENDBRANCH   5  13
BRANCH   5  19
ATOM     19  O   UNL     1      36.109 -25.166 -15.816  0.00  0.00    -0.362 OA
ATOM     20  H   UNL     1      36.078 -24.850 -16.732  0.00  0.00    +0.213 HD
ENDBRANCH   5  19
TORSDOF 2
ENDMDL
MODEL 7
REMARK VINA RESULT:      -7.4      5.504      7.719
REMARK  Name = 9795056
REMARK  2 active torsions:
REMARK  status: ('A' for Active; 'I' for Inactive)
REMARK    1  A    between atoms: C_5  and  C_13
REMARK    2  A    between atoms: C_5  and  O_19
REMARK                            x       y       z     vdW  Elec       q    Type
REMARK                         _______ _______ _______ _____ _____    ______ ____
ROOT
ATOM      1  O   UNL     1      32.060 -10.034 -23.417  0.00  0.00    -0.335 OA
ATOM      2  N   UNL     1      31.769  -8.744 -20.902  0.00  0.00    +0.393 N 
ATOM      3  C   UNL     1      32.100  -7.969 -22.109  0.00  0.00    -0.018 C 
ATOM      4  C   UNL     1      32.218 -10.146 -20.975  0.00  0.00    -0.005 C 
ATOM      5  C   UNL     1      31.707 -10.837 -22.273  0.00  0.00    +0.186 C 
ATOM      6  C   UNL     1      31.557  -8.701 -23.344  0.00  0.00    +0.125 C 
ATOM      7  C   UNL     1      33.620  -7.747 -22.222  0.00  0.00    -0.019 C 
ATOM      8  C   UNL     1      31.415  -6.598 -21.988  0.00  0.00    -0.019 C 
ATOM      9  C   UNL     1      31.750 -10.839 -19.689  0.00  0.00    -0.018 C 
ATOM     10  H   UNL     1      30.757  -8.733 -20.777  0.00  0.00    -0.084 HD
ATOM     11  H   UNL     1      32.256  -8.310 -20.118  0.00  0.00    -0.084 HD
ENDROOT
BRANCH   5  13
ATOM     12 CL   UNL     1      32.354 -15.792 -20.718  0.00  0.00    -0.082 Cl
ATOM     13  C   UNL     1      32.397 -12.193 -22.461  0.00  0.00    +0.027 C 
ATOM     14  C   UNL     1      32.095 -13.250 -21.604  0.00  0.00    +0.012 C 
ATOM     15  C   UNL     1      33.322 -12.365 -23.488  0.00  0.00    +0.000 C 
ATOM     16  C   UNL     1      32.722 -14.484 -21.775  0.00  0.00    +0.058 C 
ATOM     17  C   UNL     1      33.949 -13.600 -23.659  0.00  0.00    +0.001 C 
ATOM     18  C   UNL     1      33.649 -14.659 -22.803  0.00  0.00    +0.011 C 
ENDBRANCH   5  13
BRANCH   5  19
ATOM     19  O   UNL     1      30.283 -10.977 -22.207  0.00  0.00    -0.362 OA
ATOM     20  H   UNL     1      29.872 -10.098 -22.185  0.00  0.00    +0.213 HD
ENDBRANCH   5  19
TORSDOF 2
ENDMDL
MODEL 8
REMARK VINA RESULT:      -7.3      3.233      5.869
REMARK  Name = 9795056
REMARK  2 active torsions:
REMARK  status: ('A' for Active; 'I' for Inactive)
REMARK    1  A    between atoms: C_5  and  C_13
REMARK    2  A    between atoms: C_5  and  O_19
REMARK                            x       y       z     vdW  Elec       q    Type
REMARK                         _______ _______ _______ _____ _____    ______ ____
ROOT
ATOM      1  O   UNL     1      34.276 -18.092 -23.372  0.00  0.00    -0.335 OA
ATOM      2  N   UNL     1      34.959 -18.176 -20.616  0.00  0.00    +0.393 N 
ATOM      3  C   UNL     1      34.539 -19.397 -21.323  0.00  0.00    -0.018 C 
ATOM      4  C   UNL     1      34.408 -16.946 -21.212  0.00  0.00    -0.005 C 
ATOM      5  C   UNL     1      34.708 -16.872 -22.737  0.00  0.00    +0.186 C 
ATOM      6  C   UNL     1      34.876 -19.259 -22.813  0.00  0.00    +0.125 C 
ATOM      7  C   UNL     1      33.037 -19.664 -21.117  0.00  0.00    -0.019 C 
ATOM      8  C   UNL     1      35.329 -20.576 -20.729  0.00  0.00    -0.019 C 
ATOM      9  C   UNL     1      34.979 -15.764 -20.419  0.00  0.00    -0.018 C 
ATOM     10  H   UNL     1      35.978 -18.120 -20.640  0.00  0.00    -0.084 HD
ATOM     11  H   UNL     1      34.603 -18.237 -19.662  0.00  0.00    -0.084 HD
ENDROOT
BRANCH   5  13
ATOM     12 CL   UNL     1      33.226 -14.322 -27.060  0.00  0.00    -0.082 Cl
ATOM     13  C   UNL     1      33.907 -15.735 -23.383  0.00  0.00    +0.027 C 
ATOM     14  C   UNL     1      33.930 -15.568 -24.766  0.00  0.00    +0.012 C 
ATOM     15  C   UNL     1      33.158 -14.873 -22.583  0.00  0.00    +0.000 C 
ATOM     16  C   UNL     1      33.200 -14.533 -25.352  0.00  0.00    +0.058 C 
ATOM     17  C   UNL     1      32.429 -13.839 -23.171  0.00  0.00    +0.001 C 
ATOM     18  C   UNL     1      32.450 -13.669 -24.555  0.00  0.00    +0.011 C 
ENDBRANCH   5  13
BRANCH   5  19
ATOM     19  O   UNL     1      36.116 -16.701 -22.936  0.00  0.00    -0.362 OA
ATOM     20  H   UNL     1      36.298 -15.781 -23.187  0.00  0.00    +0.213 HD
ENDBRANCH   5  19
TORSDOF 2
ENDMDL
MODEL 9
REMARK VINA RESULT:      -7.3      8.738     10.725
REMARK  Name = 9795056
REMARK  2 active torsions:
REMARK  status: ('A' for Active; 'I' for Inactive)
REMARK    1  A    between atoms: C_5  and  C_13
REMARK    2  A    between atoms: C_5  and  O_19
REMARK                            x       y       z     vdW  Elec       q    Type
REMARK                         _______ _______ _______ _____ _____    ______ ____
ROOT
ATOM      1  O   UNL     1      36.141 -25.626 -13.661  0.00  0.00    -0.335 OA
ATOM      2  N   UNL     1      38.314 -24.156 -14.750  0.00  0.00    +0.393 N 
ATOM      3  C   UNL     1      38.513 -25.045 -13.594  0.00  0.00    -0.018 C 
ATOM      4  C   UNL     1      36.938 -23.639 -14.850  0.00  0.00    -0.005 C 
ATOM      5  C   UNL     1      35.895 -24.793 -14.811  0.00  0.00    +0.186 C 
ATOM      6  C   UNL     1      37.462 -26.162 -13.629  0.00  0.00    +0.125 C 
ATOM      7  C   UNL     1      38.440 -24.257 -12.273  0.00  0.00    -0.019 C 
ATOM      8  C   UNL     1      39.917 -25.663 -13.714  0.00  0.00    -0.019 C 
ATOM      9  C   UNL     1      36.864 -22.790 -16.125  0.00  0.00    -0.018 C 
ATOM     10  H   UNL     1      38.528 -24.677 -15.601  0.00  0.00    -0.084 HD
ATOM     11  H   UNL     1      38.933 -23.354 -14.629  0.00  0.00    -0.084 HD
ENDROOT
BRANCH   5  13
ATOM     12 CL   UNL     1      31.595 -22.766 -17.000  0.00  0.00    -0.082 Cl
ATOM     13  C   UNL     1      34.480 -24.227 -14.648  0.00  0.00    +0.027 C 
ATOM     14  C   UNL     1      33.767 -23.805 -15.768  0.00  0.00    +0.012 C 
ATOM     15  C   UNL     1      33.910 -24.137 -13.379  0.00  0.00    +0.000 C 
ATOM     16  C   UNL     1      32.479 -23.290 -15.619  0.00  0.00    +0.058 C 
ATOM     17  C   UNL     1      32.622 -23.622 -13.230  0.00  0.00    +0.001 C 
ATOM     18  C   UNL     1      31.906 -23.199 -14.350  0.00  0.00    +0.011 C 
ENDBRANCH   5  13
BRANCH   5  19
ATOM     19  O   UNL     1      36.011 -25.577 -16.005  0.00  0.00    -0.362 OA
ATOM     20  H   UNL     1      35.572 -26.432 -15.875  0.00  0.00    +0.213 HD
ENDBRANCH   5  19
TORSDOF 2
ENDMDL
