MODEL 1
REMARK VINA RESULT:     -10.0      0.000      0.000
REMARK  Name = 24180722
REMARK  3 active torsions:
REMARK  status: ('A' for Active; 'I' for Inactive)
REMARK    1  A    between atoms: C_3  and  C_11
REMARK    2  A    between atoms: C_11  and  C_12
REMARK    3  A    between atoms: C_15  and  O_18
REMARK                            x       y       z     vdW  Elec       q    Type
REMARK                         _______ _______ _______ _____ _____    ______ ____
ROOT
ATOM      1  N   UNL     1      34.549 -18.733 -25.128  0.00  0.00    -0.297 N 
ATOM      2  N   UNL     1      33.702 -16.569 -25.762  0.00  0.00    -0.229 NA
ATOM      3  C   UNL     1      35.315 -18.298 -23.084  0.00  0.00    -0.000 C 
ATOM      4  C   UNL     1      34.768 -17.101 -23.619  0.00  0.00    +0.029 C 
ATOM      5  C   UNL     1      34.299 -17.407 -24.893  0.00  0.00    +0.132 C 
ATOM      6  C   UNL     1      35.166 -19.284 -24.036  0.00  0.00    +0.059 C 
ATOM      7  C   UNL     1      34.610 -15.779 -23.172  0.00  0.00    +0.004 C 
ATOM      8  C   UNL     1      33.998 -14.870 -24.033  0.00  0.00    +0.021 C 
ATOM      9  C   UNL     1      33.577 -15.310 -25.280  0.00  0.00    +0.100 C 
ATOM     10  H   UNL     1      34.321 -19.216 -25.955  0.00  0.00    +0.154 HD
ENDROOT
BRANCH   3  11
ATOM     11  C   UNL     1      35.933 -18.466 -21.754  0.00  0.00    +0.054 C 
BRANCH  11  12
ATOM     12  C   UNL     1      35.087 -19.460 -20.985  0.00  0.00    -0.015 C 
ATOM     13  C   UNL     1      35.698 -20.452 -20.220  0.00  0.00    +0.033 C 
ATOM     14  C   UNL     1      33.695 -19.381 -21.044  0.00  0.00    -0.004 C 
ATOM     15  C   UNL     1      34.919 -21.367 -19.512  0.00  0.00    +0.138 C 
ATOM     16  C   UNL     1      32.915 -20.297 -20.337  0.00  0.00    +0.003 C 
ATOM     17  C   UNL     1      33.527 -21.289 -19.571  0.00  0.00    +0.037 C 
BRANCH  15  18
ATOM     18  O   UNL     1      35.514 -22.337 -18.766  0.00  0.00    -0.471 OA
ATOM     19  C   UNL     1      36.484 -21.914 -17.809  0.00  0.00    +0.252 C 
ENDBRANCH  15  18
ENDBRANCH  11  12
ENDBRANCH   3  11
TORSDOF 3
ENDMDL
MODEL 2
REMARK VINA RESULT:      -9.8      1.413      1.919
REMARK  Name = 24180722
REMARK  3 active torsions:
REMARK  status: ('A' for Active; 'I' for Inactive)
REMARK    1  A    between atoms: C_3  and  C_11
REMARK    2  A    between atoms: C_11  and  C_12
REMARK    3  A    between atoms: C_15  and  O_18
REMARK                            x       y       z     vdW  Elec       q    Type
REMARK                         _______ _______ _______ _____ _____    ______ ____
ROOT
ATOM      1  N   UNL     1      34.232 -15.446 -21.552  0.00  0.00    -0.297 N 
ATOM      2  N   UNL     1      33.468 -14.826 -23.750  0.00  0.00    -0.229 NA
ATOM      3  C   UNL     1      35.277 -17.360 -21.998  0.00  0.00    -0.000 C 
ATOM      4  C   UNL     1      34.753 -16.845 -23.214  0.00  0.00    +0.029 C 
ATOM      5  C   UNL     1      34.108 -15.652 -22.900  0.00  0.00    +0.132 C 
ATOM      6  C   UNL     1      34.940 -16.479 -20.993  0.00  0.00    +0.059 C 
ATOM      7  C   UNL     1      34.747 -17.248 -24.558  0.00  0.00    +0.004 C 
ATOM      8  C   UNL     1      34.098 -16.430 -25.481  0.00  0.00    +0.021 C 
ATOM      9  C   UNL     1      33.494 -15.264 -25.031  0.00  0.00    +0.100 C 
ATOM     10  H   UNL     1      33.867 -14.677 -21.059  0.00  0.00    +0.154 HD
ENDROOT
BRANCH   3  11
ATOM     11  C   UNL     1      36.043 -18.611 -21.830  0.00  0.00    +0.054 C 
BRANCH  11  12
ATOM     12  C   UNL     1      35.174 -19.569 -21.041  0.00  0.00    -0.015 C 
ATOM     13  C   UNL     1      35.762 -20.511 -20.198  0.00  0.00    +0.033 C 
ATOM     14  C   UNL     1      33.785 -19.507 -21.157  0.00  0.00    -0.004 C 
ATOM     15  C   UNL     1      34.962 -21.394 -19.472  0.00  0.00    +0.138 C 
ATOM     16  C   UNL     1      32.985 -20.390 -20.431  0.00  0.00    +0.003 C 
ATOM     17  C   UNL     1      33.573 -21.333 -19.588  0.00  0.00    +0.037 C 
BRANCH  15  18
ATOM     18  O   UNL     1      35.535 -22.315 -18.651  0.00  0.00    -0.471 OA
ATOM     19  C   UNL     1      36.572 -21.857 -17.784  0.00  0.00    +0.252 C 
ENDBRANCH  15  18
ENDBRANCH  11  12
ENDBRANCH   3  11
TORSDOF 3
ENDMDL
MODEL 3
REMARK VINA RESULT:      -9.6      1.415      1.782
REMARK  Name = 24180722
REMARK  3 active torsions:
REMARK  status: ('A' for Active; 'I' for Inactive)
REMARK    1  A    between atoms: C_3  and  C_11
REMARK    2  A    between atoms: C_11  and  C_12
REMARK    3  A    between atoms: C_15  and  O_18
REMARK                            x       y       z     vdW  Elec       q    Type
REMARK                         _______ _______ _______ _____ _____    ______ ____
ROOT
ATOM      1  N   UNL     1      34.380 -16.645 -24.235  0.00  0.00    -0.297 N 
ATOM      2  N   UNL     1      33.354 -14.775 -23.115  0.00  0.00    -0.229 NA
ATOM      3  C   UNL     1      35.437 -17.619 -22.536  0.00  0.00    -0.000 C 
ATOM      4  C   UNL     1      34.763 -16.471 -22.041  0.00  0.00    +0.029 C 
ATOM      5  C   UNL     1      34.115 -15.887 -23.126  0.00  0.00    +0.132 C 
ATOM      6  C   UNL     1      35.184 -17.700 -23.888  0.00  0.00    +0.059 C 
ATOM      7  C   UNL     1      34.621 -15.847 -20.791  0.00  0.00    +0.004 C 
ATOM      8  C   UNL     1      33.844 -14.692 -20.724  0.00  0.00    +0.021 C 
ATOM      9  C   UNL     1      33.252 -14.217 -21.886  0.00  0.00    +0.100 C 
ATOM     10  H   UNL     1      34.047 -16.460 -25.142  0.00  0.00    +0.154 HD
ENDROOT
BRANCH   3  11
ATOM     11  C   UNL     1      36.263 -18.560 -21.753  0.00  0.00    +0.054 C 
BRANCH  11  12
ATOM     12  C   UNL     1      35.317 -19.502 -21.037  0.00  0.00    -0.015 C 
ATOM     13  C   UNL     1      35.820 -20.467 -20.165  0.00  0.00    +0.033 C 
ATOM     14  C   UNL     1      33.942 -19.403 -21.251  0.00  0.00    -0.004 C 
ATOM     15  C   UNL     1      34.948 -21.335 -19.506  0.00  0.00    +0.138 C 
ATOM     16  C   UNL     1      33.070 -20.271 -20.592  0.00  0.00    +0.003 C 
ATOM     17  C   UNL     1      33.573 -21.236 -19.720  0.00  0.00    +0.037 C 
BRANCH  15  18
ATOM     18  O   UNL     1      35.438 -22.278 -18.657  0.00  0.00    -0.471 OA
ATOM     19  C   UNL     1      36.527 -21.893 -17.819  0.00  0.00    +0.252 C 
ENDBRANCH  15  18
ENDBRANCH  11  12
ENDBRANCH   3  11
TORSDOF 3
ENDMDL
MODEL 4
REMARK VINA RESULT:      -9.6      3.118      6.614
REMARK  Name = 24180722
REMARK  3 active torsions:
REMARK  status: ('A' for Active; 'I' for Inactive)
REMARK    1  A    between atoms: C_3  and  C_11
REMARK    2  A    between atoms: C_11  and  C_12
REMARK    3  A    between atoms: C_15  and  O_18
REMARK                            x       y       z     vdW  Elec       q    Type
REMARK                         _______ _______ _______ _____ _____    ______ ____
ROOT
ATOM      1  N   UNL     1      32.489 -20.240 -20.534  0.00  0.00    -0.297 N 
ATOM      2  N   UNL     1      32.834 -22.006 -18.933  0.00  0.00    -0.229 NA
ATOM      3  C   UNL     1      34.591 -19.635 -20.945  0.00  0.00    -0.000 C 
ATOM      4  C   UNL     1      34.610 -20.694 -19.998  0.00  0.00    +0.029 C 
ATOM      5  C   UNL     1      33.284 -21.047 -19.763  0.00  0.00    +0.132 C 
ATOM      6  C   UNL     1      33.274 -19.378 -21.256  0.00  0.00    +0.059 C 
ATOM      7  C   UNL     1      35.601 -21.404 -19.302  0.00  0.00    +0.004 C 
ATOM      8  C   UNL     1      35.189 -22.409 -18.428  0.00  0.00    +0.021 C 
ATOM      9  C   UNL     1      33.830 -22.658 -18.289  0.00  0.00    +0.100 C 
ATOM     10  H   UNL     1      31.506 -20.272 -20.564  0.00  0.00    +0.154 HD
ENDROOT
BRANCH   3  11
ATOM     11  C   UNL     1      35.764 -18.932 -21.502  0.00  0.00    +0.054 C 
BRANCH  11  12
ATOM     12  C   UNL     1      35.289 -18.147 -22.707  0.00  0.00    -0.015 C 
ATOM     13  C   UNL     1      35.098 -16.769 -22.612  0.00  0.00    +0.033 C 
ATOM     14  C   UNL     1      35.043 -18.804 -23.913  0.00  0.00    -0.004 C 
ATOM     15  C   UNL     1      34.660 -16.047 -23.722  0.00  0.00    +0.138 C 
ATOM     16  C   UNL     1      34.605 -18.081 -25.024  0.00  0.00    +0.003 C 
ATOM     17  C   UNL     1      34.414 -16.704 -24.928  0.00  0.00    +0.037 C 
BRANCH  15  18
ATOM     18  O   UNL     1      34.472 -14.703 -23.629  0.00  0.00    -0.471 OA
ATOM     19  C   UNL     1      33.414 -14.140 -24.404  0.00  0.00    +0.252 C 
ENDBRANCH  15  18
ENDBRANCH  11  12
ENDBRANCH   3  11
TORSDOF 3
ENDMDL
MODEL 5
REMARK VINA RESULT:      -9.0      1.634      2.425
REMARK  Name = 24180722
REMARK  3 active torsions:
REMARK  status: ('A' for Active; 'I' for Inactive)
REMARK    1  A    between atoms: C_3  and  C_11
REMARK    2  A    between atoms: C_11  and  C_12
REMARK    3  A    between atoms: C_15  and  O_18
REMARK                            x       y       z     vdW  Elec       q    Type
REMARK                         _______ _______ _______ _____ _____    ______ ____
ROOT
ATOM      1  N   UNL     1      35.442 -17.766 -23.744  0.00  0.00    -0.297 N 
ATOM      2  N   UNL     1      35.198 -15.436 -23.186  0.00  0.00    -0.229 NA
ATOM      3  C   UNL     1      34.191 -18.707 -22.162  0.00  0.00    -0.000 C 
ATOM      4  C   UNL     1      34.157 -17.298 -21.977  0.00  0.00    +0.029 C 
ATOM      5  C   UNL     1      34.947 -16.743 -22.980  0.00  0.00    +0.132 C 
ATOM      6  C   UNL     1      34.989 -18.964 -23.255  0.00  0.00    +0.059 C 
ATOM      7  C   UNL     1      33.546 -16.416 -21.072  0.00  0.00    +0.004 C 
ATOM      8  C   UNL     1      33.773 -15.051 -21.240  0.00  0.00    +0.021 C 
ATOM      9  C   UNL     1      34.584 -14.632 -22.285  0.00  0.00    +0.100 C 
ATOM     10  H   UNL     1      36.033 -17.659 -24.523  0.00  0.00    +0.154 HD
ENDROOT
BRANCH   3  11
ATOM     11  C   UNL     1      33.501 -19.719 -21.338  0.00  0.00    +0.054 C 
BRANCH  11  12
ATOM     12  C   UNL     1      34.547 -20.380 -20.465  0.00  0.00    -0.015 C 
ATOM     13  C   UNL     1      34.173 -21.362 -19.549  0.00  0.00    +0.033 C 
ATOM     14  C   UNL     1      35.886 -20.005 -20.578  0.00  0.00    -0.004 C 
ATOM     15  C   UNL     1      35.137 -21.970 -18.744  0.00  0.00    +0.138 C 
ATOM     16  C   UNL     1      36.851 -20.613 -19.774  0.00  0.00    +0.003 C 
ATOM     17  C   UNL     1      36.476 -21.595 -18.858  0.00  0.00    +0.037 C 
BRANCH  15  18
ATOM     18  O   UNL     1      34.773 -22.927 -17.849  0.00  0.00    -0.471 OA
ATOM     19  C   UNL     1      33.375 -23.105 -17.622  0.00  0.00    +0.252 C 
ENDBRANCH  15  18
ENDBRANCH  11  12
ENDBRANCH   3  11
TORSDOF 3
ENDMDL
MODEL 6
REMARK VINA RESULT:      -9.0      3.373      6.408
REMARK  Name = 24180722
REMARK  3 active torsions:
REMARK  status: ('A' for Active; 'I' for Inactive)
REMARK    1  A    between atoms: C_3  and  C_11
REMARK    2  A    between atoms: C_11  and  C_12
REMARK    3  A    between atoms: C_15  and  O_18
REMARK                            x       y       z     vdW  Elec       q    Type
REMARK                         _______ _______ _______ _____ _____    ______ ____
ROOT
ATOM      1  N   UNL     1      36.916 -20.754 -20.091  0.00  0.00    -0.297 N 
ATOM      2  N   UNL     1      35.220 -22.297 -19.354  0.00  0.00    -0.229 NA
ATOM      3  C   UNL     1      35.658 -19.057 -20.793  0.00  0.00    -0.000 C 
ATOM      4  C   UNL     1      34.797 -20.080 -20.314  0.00  0.00    +0.029 C 
ATOM      5  C   UNL     1      35.613 -21.123 -19.884  0.00  0.00    +0.132 C 
ATOM      6  C   UNL     1      36.955 -19.500 -20.644  0.00  0.00    +0.059 C 
ATOM      7  C   UNL     1      33.410 -20.252 -20.189  0.00  0.00    +0.004 C 
ATOM      8  C   UNL     1      32.948 -21.450 -19.646  0.00  0.00    +0.021 C 
ATOM      9  C   UNL     1      33.874 -22.408 -19.258  0.00  0.00    +0.100 C 
ATOM     10  H   UNL     1      37.703 -21.304 -19.878  0.00  0.00    +0.154 HD
ENDROOT
BRANCH   3  11
ATOM     11  C   UNL     1      35.249 -17.753 -21.353  0.00  0.00    +0.054 C 
BRANCH  11  12
ATOM     12  C   UNL     1      34.959 -17.965 -22.824  0.00  0.00    -0.015 C 
ATOM     13  C   UNL     1      34.843 -16.868 -23.677  0.00  0.00    +0.033 C 
ATOM     14  C   UNL     1      34.809 -19.258 -23.326  0.00  0.00    -0.004 C 
ATOM     15  C   UNL     1      34.575 -17.063 -25.033  0.00  0.00    +0.138 C 
ATOM     16  C   UNL     1      34.542 -19.453 -24.681  0.00  0.00    +0.003 C 
ATOM     17  C   UNL     1      34.426 -18.356 -25.534  0.00  0.00    +0.037 C 
BRANCH  15  18
ATOM     18  O   UNL     1      34.460 -15.993 -25.865  0.00  0.00    -0.471 OA
ATOM     19  C   UNL     1      33.224 -15.279 -25.837  0.00  0.00    +0.252 C 
ENDBRANCH  15  18
ENDBRANCH  11  12
ENDBRANCH   3  11
TORSDOF 3
ENDMDL
MODEL 7
REMARK VINA RESULT:      -8.9      3.451      6.279
REMARK  Name = 24180722
REMARK  3 active torsions:
REMARK  status: ('A' for Active; 'I' for Inactive)
REMARK    1  A    between atoms: C_3  and  C_11
REMARK    2  A    between atoms: C_11  and  C_12
REMARK    3  A    between atoms: C_15  and  O_18
REMARK                            x       y       z     vdW  Elec       q    Type
REMARK                         _______ _______ _______ _____ _____    ______ ____
ROOT
ATOM      1  N   UNL     1      36.773 -20.026 -20.232  0.00  0.00    -0.297 N 
ATOM      2  N   UNL     1      34.883 -21.231 -19.351  0.00  0.00    -0.229 NA
ATOM      3  C   UNL     1      35.783 -18.775 -21.784  0.00  0.00    -0.000 C 
ATOM      4  C   UNL     1      34.789 -19.568 -21.150  0.00  0.00    +0.029 C 
ATOM      5  C   UNL     1      35.439 -20.336 -20.189  0.00  0.00    +0.132 C 
ATOM      6  C   UNL     1      36.993 -19.079 -21.198  0.00  0.00    +0.059 C 
ATOM      7  C   UNL     1      33.400 -19.730 -21.276  0.00  0.00    +0.004 C 
ATOM      8  C   UNL     1      32.772 -20.645 -20.432  0.00  0.00    +0.021 C 
ATOM      9  C   UNL     1      33.544 -21.346 -19.516  0.00  0.00    +0.100 C 
ATOM     10  H   UNL     1      37.467 -20.423 -19.659  0.00  0.00    +0.154 HD
ENDROOT
BRANCH   3  11
ATOM     11  C   UNL     1      35.569 -17.800 -22.873  0.00  0.00    +0.054 C 
BRANCH  11  12
ATOM     12  C   UNL     1      34.839 -16.614 -22.279  0.00  0.00    -0.015 C 
ATOM     13  C   UNL     1      34.109 -15.760 -23.105  0.00  0.00    +0.033 C 
ATOM     14  C   UNL     1      34.896 -16.376 -20.906  0.00  0.00    -0.004 C 
ATOM     15  C   UNL     1      33.436 -14.666 -22.558  0.00  0.00    +0.138 C 
ATOM     16  C   UNL     1      34.223 -15.283 -20.359  0.00  0.00    +0.003 C 
ATOM     17  C   UNL     1      33.494 -14.428 -21.185  0.00  0.00    +0.037 C 
BRANCH  15  18
ATOM     18  O   UNL     1      32.726 -13.831 -23.364  0.00  0.00    -0.471 OA
ATOM     19  C   UNL     1      33.462 -13.071 -24.322  0.00  0.00    +0.252 C 
ENDBRANCH  15  18
ENDBRANCH  11  12
ENDBRANCH   3  11
TORSDOF 3
ENDMDL
MODEL 8
REMARK VINA RESULT:      -8.8      3.460      6.914
REMARK  Name = 24180722
REMARK  3 active torsions:
REMARK  status: ('A' for Active; 'I' for Inactive)
REMARK    1  A    between atoms: C_3  and  C_11
REMARK    2  A    between atoms: C_11  and  C_12
REMARK    3  A    between atoms: C_15  and  O_18
REMARK                            x       y       z     vdW  Elec       q    Type
REMARK                         _______ _______ _______ _____ _____    ______ ____
ROOT
ATOM      1  N   UNL     1      36.440 -21.397 -18.955  0.00  0.00    -0.297 N 
ATOM      2  N   UNL     1      35.649 -22.810 -17.172  0.00  0.00    -0.229 NA
ATOM      3  C   UNL     1      34.530 -20.940 -20.002  0.00  0.00    -0.000 C 
ATOM      4  C   UNL     1      34.240 -21.785 -18.897  0.00  0.00    +0.029 C 
ATOM      5  C   UNL     1      35.452 -22.051 -18.266  0.00  0.00    +0.132 C 
ATOM      6  C   UNL     1      35.890 -20.719 -20.012  0.00  0.00    +0.059 C 
ATOM      7  C   UNL     1      33.085 -22.363 -18.348  0.00  0.00    +0.004 C 
ATOM      8  C   UNL     1      33.232 -23.160 -17.214  0.00  0.00    +0.021 C 
ATOM      9  C   UNL     1      34.503 -23.342 -16.686  0.00  0.00    +0.100 C 
ATOM     10  H   UNL     1      37.397 -21.412 -18.727  0.00  0.00    +0.154 HD
ENDROOT
BRANCH   3  11
ATOM     11  C   UNL     1      33.558 -20.393 -20.970  0.00  0.00    +0.054 C 
BRANCH  11  12
ATOM     12  C   UNL     1      34.211 -19.201 -21.640  0.00  0.00    -0.015 C 
ATOM     13  C   UNL     1      34.288 -17.981 -20.970  0.00  0.00    +0.033 C 
ATOM     14  C   UNL     1      34.734 -19.326 -22.927  0.00  0.00    -0.004 C 
ATOM     15  C   UNL     1      34.889 -16.883 -21.587  0.00  0.00    +0.138 C 
ATOM     16  C   UNL     1      35.334 -18.227 -23.544  0.00  0.00    +0.003 C 
ATOM     17  C   UNL     1      35.412 -17.007 -22.874  0.00  0.00    +0.037 C 
BRANCH  15  18
ATOM     18  O   UNL     1      34.963 -15.691 -20.935  0.00  0.00    -0.471 OA
ATOM     19  C   UNL     1      34.372 -14.562 -21.576  0.00  0.00    +0.252 C 
ENDBRANCH  15  18
ENDBRANCH  11  12
ENDBRANCH   3  11
TORSDOF 3
ENDMDL
MODEL 9
REMARK VINA RESULT:      -8.7      6.141      8.413
REMARK  Name = 24180722
REMARK  3 active torsions:
REMARK  status: ('A' for Active; 'I' for Inactive)
REMARK    1  A    between atoms: C_3  and  C_11
REMARK    2  A    between atoms: C_11  and  C_12
REMARK    3  A    between atoms: C_15  and  O_18
REMARK                            x       y       z     vdW  Elec       q    Type
REMARK                         _______ _______ _______ _____ _____    ______ ____
ROOT
ATOM      1  N   UNL     1      32.385  -9.284 -19.148  0.00  0.00    -0.297 N 
ATOM      2  N   UNL     1      32.749  -7.373 -20.568  0.00  0.00    -0.229 NA
ATOM      3  C   UNL     1      31.552 -10.738 -20.613  0.00  0.00    -0.000 C 
ATOM      4  C   UNL     1      31.830  -9.525 -21.299  0.00  0.00    +0.029 C 
ATOM      5  C   UNL     1      32.348  -8.640 -20.357  0.00  0.00    +0.132 C 
ATOM      6  C   UNL     1      31.903 -10.559 -19.292  0.00  0.00    +0.059 C 
ATOM      7  C   UNL     1      31.705  -9.064 -22.619  0.00  0.00    +0.004 C 
ATOM      8  C   UNL     1      32.106  -7.758 -22.893  0.00  0.00    +0.021 C 
ATOM      9  C   UNL     1      32.606  -6.981 -21.856  0.00  0.00    +0.100 C 
ATOM     10  H   UNL     1      32.706  -8.891 -18.305  0.00  0.00    +0.154 HD
ENDROOT
BRANCH   3  11
ATOM     11  C   UNL     1      30.989 -11.971 -21.198  0.00  0.00    +0.054 C 
BRANCH  11  12
ATOM     12  C   UNL     1      32.153 -12.818 -21.672  0.00  0.00    -0.015 C 
ATOM     13  C   UNL     1      32.707 -13.777 -20.825  0.00  0.00    +0.033 C 
ATOM     14  C   UNL     1      32.669 -12.638 -22.955  0.00  0.00    -0.004 C 
ATOM     15  C   UNL     1      33.780 -14.556 -21.261  0.00  0.00    +0.138 C 
ATOM     16  C   UNL     1      33.741 -13.417 -23.391  0.00  0.00    +0.003 C 
ATOM     17  C   UNL     1      34.296 -14.376 -22.545  0.00  0.00    +0.037 C 
BRANCH  15  18
ATOM     18  O   UNL     1      34.322 -15.491 -20.435  0.00  0.00    -0.471 OA
ATOM     19  C   UNL     1      34.865 -16.661 -21.046  0.00  0.00    +0.252 C 
ENDBRANCH  15  18
ENDBRANCH  11  12
ENDBRANCH   3  11
TORSDOF 3
ENDMDL
