MODEL 1
REMARK VINA RESULT:     -11.8      0.000      0.000
REMARK  Name = 11270783
REMARK  7 active torsions:
REMARK  status: ('A' for Active; 'I' for Inactive)
REMARK    1  A    between atoms: N_3  and  C_30
REMARK    2  A    between atoms: N_4  and  C_32
REMARK    3  A    between atoms: C_11  and  C_16
REMARK    4  A    between atoms: N_14  and  C_19
REMARK    5  A    between atoms: C_19  and  C_20
REMARK    6  A    between atoms: C_23  and  C_29
REMARK    7  A    between atoms: C_32  and  C_33
REMARK                            x       y       z     vdW  Elec       q    Type
REMARK                         _______ _______ _______ _____ _____    ______ ____
ROOT
ATOM      1  O   UNL     1      35.056  -9.423 -24.704  0.00  0.00    -0.265 OA
ATOM      2  O   UNL     1      31.812  -8.692 -21.389  0.00  0.00    -0.246 OA
ATOM      3  N   UNL     1      32.068 -10.850 -22.221  0.00  0.00    -0.269 N 
ATOM      4  N   UNL     1      33.438  -9.028 -23.042  0.00  0.00    -0.248 N 
ATOM      5  N   UNL     1      34.176 -12.272 -24.631  0.00  0.00    -0.309 N 
ATOM      6  N   UNL     1      32.563 -13.014 -23.282  0.00  0.00    -0.301 N 
ATOM      7  C   UNL     1      32.756 -11.671 -23.104  0.00  0.00    +0.132 A 
ATOM      8  C   UNL     1      33.742 -11.190 -23.922  0.00  0.00    +0.133 A 
ATOM      9  C   UNL     1      34.167  -9.828 -23.961  0.00  0.00    +0.280 A 
ATOM     10  C   UNL     1      32.390  -9.471 -22.155  0.00  0.00    +0.335 A 
ATOM     11  C   UNL     1      33.436 -13.348 -24.211  0.00  0.00    +0.172 C 
ATOM     12  H   UNL     1      34.885 -12.280 -25.313  0.00  0.00    +0.149 HD
ATOM     13  H   UNL     1      31.918 -13.599 -22.821  0.00  0.00    +0.150 HD
ENDROOT
BRANCH  11  16
ATOM     14  N   UNL     1      34.248 -16.772 -25.022  0.00  0.00    -0.206 N 
ATOM     15  N   UNL     1      33.396 -16.568 -26.042  0.00  0.00    -0.176 NA
ATOM     16  C   UNL     1      33.603 -14.714 -24.741  0.00  0.00    +0.051 C 
ATOM     17  C   UNL     1      34.406 -15.686 -24.211  0.00  0.00    +0.085 C 
ATOM     18  C   UNL     1      33.004 -15.303 -25.863  0.00  0.00    +0.118 C 
BRANCH  14  19
ATOM     19  C   UNL     1      34.891 -18.055 -24.873  0.00  0.00    +0.143 C 
BRANCH  19  20
ATOM     20  C   UNL     1      35.031 -18.434 -23.424  0.00  0.00    -0.000 C 
ATOM     21  C   UNL     1      33.931 -18.933 -22.738  0.00  0.00    +0.001 C 
ATOM     22  C   UNL     1      36.257 -18.282 -22.791  0.00  0.00    -0.003 C 
ATOM     23  C   UNL     1      34.060 -19.286 -21.395  0.00  0.00    +0.071 C 
ATOM     24  C   UNL     1      36.387 -18.635 -21.448  0.00  0.00    -0.000 C 
ATOM     25  C   UNL     1      35.289 -19.137 -20.750  0.00  0.00    +0.004 C 
BRANCH  23  29
ATOM     26  F   UNL     1      32.002 -18.861 -20.252  0.00  0.00    -0.166 F 
ATOM     27  F   UNL     1      32.142 -20.715 -21.367  0.00  0.00    -0.166 F 
ATOM     28  F   UNL     1      33.245 -20.482 -19.509  0.00  0.00    -0.166 F 
ATOM     29  C   UNL     1      32.887 -19.823 -20.649  0.00  0.00    +0.419 C 
ENDBRANCH  23  29
ENDBRANCH  19  20
ENDBRANCH  14  19
ENDBRANCH  11  16
BRANCH   3  30
ATOM     30  C   UNL     1      31.024 -11.401 -21.367  0.00  0.00    +0.112 C 
ATOM     31  C   UNL     1      31.508 -11.581 -19.943  0.00  0.00    +0.027 C 
ENDBRANCH   3  30
BRANCH   4  32
ATOM     32  C   UNL     1      33.767  -7.608 -22.972  0.00  0.00    +0.114 C 
BRANCH  32  33
ATOM     33  C   UNL     1      32.983  -6.780 -23.983  0.00  0.00    +0.025 C 
ATOM     34  C   UNL     1      33.860  -6.235 -25.101  0.00  0.00    +0.002 C 
ENDBRANCH  32  33
ENDBRANCH   4  32
TORSDOF 7
ENDMDL
MODEL 2
REMARK VINA RESULT:     -11.7      1.666      2.302
REMARK  Name = 11270783
REMARK  7 active torsions:
REMARK  status: ('A' for Active; 'I' for Inactive)
REMARK    1  A    between atoms: N_3  and  C_30
REMARK    2  A    between atoms: N_4  and  C_32
REMARK    3  A    between atoms: C_11  and  C_16
REMARK    4  A    between atoms: N_14  and  C_19
REMARK    5  A    between atoms: C_19  and  C_20
REMARK    6  A    between atoms: C_23  and  C_29
REMARK    7  A    between atoms: C_32  and  C_33
REMARK                            x       y       z     vdW  Elec       q    Type
REMARK                         _______ _______ _______ _____ _____    ______ ____
ROOT
ATOM      1  O   UNL     1      34.457 -10.210 -25.092  0.00  0.00    -0.265 OA
ATOM      2  O   UNL     1      31.134  -9.132 -21.955  0.00  0.00    -0.246 OA
ATOM      3  N   UNL     1      31.905 -11.325 -22.029  0.00  0.00    -0.269 N 
ATOM      4  N   UNL     1      32.791  -9.642 -23.529  0.00  0.00    -0.248 N 
ATOM      5  N   UNL     1      34.294 -12.978 -23.989  0.00  0.00    -0.309 N 
ATOM      6  N   UNL     1      32.909 -13.551 -22.337  0.00  0.00    -0.301 N 
ATOM      7  C   UNL     1      32.771 -12.223 -22.640  0.00  0.00    +0.132 A 
ATOM      8  C   UNL     1      33.610 -11.845 -23.652  0.00  0.00    +0.133 A 
ATOM      9  C   UNL     1      33.693 -10.523 -24.183  0.00  0.00    +0.280 A 
ATOM     10  C   UNL     1      31.882  -9.975 -22.460  0.00  0.00    +0.335 A 
ATOM     11  C   UNL     1      33.837 -13.978 -23.170  0.00  0.00    +0.172 C 
ATOM     12  H   UNL     1      34.983 -13.061 -24.686  0.00  0.00    +0.149 HD
ATOM     13  H   UNL     1      32.426 -14.069 -21.654  0.00  0.00    +0.150 HD
ENDROOT
BRANCH  11  16
ATOM     14  N   UNL     1      35.213 -17.283 -22.689  0.00  0.00    -0.206 N 
ATOM     15  N   UNL     1      34.851 -17.449 -23.973  0.00  0.00    -0.176 NA
ATOM     16  C   UNL     1      34.331 -15.367 -23.221  0.00  0.00    +0.051 C 
ATOM     17  C   UNL     1      34.921 -16.046 -22.191  0.00  0.00    +0.085 C 
ATOM     18  C   UNL     1      34.311 -16.271 -24.293  0.00  0.00    +0.118 C 
BRANCH  14  19
ATOM     19  C   UNL     1      35.845 -18.367 -21.977  0.00  0.00    +0.143 C 
BRANCH  19  20
ATOM     20  C   UNL     1      34.836 -19.200 -21.235  0.00  0.00    -0.000 C 
ATOM     21  C   UNL     1      35.260 -20.307 -20.514  0.00  0.00    +0.001 C 
ATOM     22  C   UNL     1      33.493 -18.849 -21.280  0.00  0.00    -0.003 C 
ATOM     23  C   UNL     1      34.325 -21.080 -19.826  0.00  0.00    +0.071 C 
ATOM     24  C   UNL     1      32.557 -19.620 -20.591  0.00  0.00    -0.000 C 
ATOM     25  C   UNL     1      32.972 -20.735 -19.864  0.00  0.00    +0.004 C 
BRANCH  23  29
ATOM     26  F   UNL     1      34.114 -22.423 -17.858  0.00  0.00    -0.166 F 
ATOM     27  F   UNL     1      34.586 -23.454 -19.706  0.00  0.00    -0.166 F 
ATOM     28  F   UNL     1      36.095 -22.229 -18.732  0.00  0.00    -0.166 F 
ATOM     29  C   UNL     1      34.768 -22.271 -19.048  0.00  0.00    +0.419 C 
ENDBRANCH  23  29
ENDBRANCH  19  20
ENDBRANCH  14  19
ENDBRANCH  11  16
BRANCH   3  30
ATOM     30  C   UNL     1      31.026 -11.769 -20.954  0.00  0.00    +0.112 C 
ATOM     31  C   UNL     1      31.593 -11.419 -19.594  0.00  0.00    +0.027 C 
ENDBRANCH   3  30
BRANCH   4  32
ATOM     32  C   UNL     1      32.767  -8.251 -23.969  0.00  0.00    +0.114 C 
BRANCH  32  33
ATOM     33  C   UNL     1      33.993  -7.474 -23.503  0.00  0.00    +0.025 C 
ATOM     34  C   UNL     1      34.670  -6.713 -24.634  0.00  0.00    +0.002 C 
ENDBRANCH  32  33
ENDBRANCH   4  32
TORSDOF 7
ENDMDL
MODEL 3
REMARK VINA RESULT:     -11.0      2.160      3.471
REMARK  Name = 11270783
REMARK  7 active torsions:
REMARK  status: ('A' for Active; 'I' for Inactive)
REMARK    1  A    between atoms: N_3  and  C_30
REMARK    2  A    between atoms: N_4  and  C_32
REMARK    3  A    between atoms: C_11  and  C_16
REMARK    4  A    between atoms: N_14  and  C_19
REMARK    5  A    between atoms: C_19  and  C_20
REMARK    6  A    between atoms: C_23  and  C_29
REMARK    7  A    between atoms: C_32  and  C_33
REMARK                            x       y       z     vdW  Elec       q    Type
REMARK                         _______ _______ _______ _____ _____    ______ ____
ROOT
ATOM      1  O   UNL     1      31.382 -11.909 -20.762  0.00  0.00    -0.265 OA
ATOM      2  O   UNL     1      32.667  -8.883 -24.115  0.00  0.00    -0.246 OA
ATOM      3  N   UNL     1      33.495 -11.055 -24.217  0.00  0.00    -0.269 N 
ATOM      4  N   UNL     1      32.010 -10.371 -22.430  0.00  0.00    -0.248 N 
ATOM      5  N   UNL     1      33.080 -13.893 -22.205  0.00  0.00    -0.309 N 
ATOM      6  N   UNL     1      34.208 -13.405 -24.066  0.00  0.00    -0.301 N 
ATOM      7  C   UNL     1      33.518 -12.310 -23.622  0.00  0.00    +0.132 A 
ATOM      8  C   UNL     1      32.816 -12.582 -22.480  0.00  0.00    +0.133 A 
ATOM      9  C   UNL     1      32.003 -11.638 -21.786  0.00  0.00    +0.280 A 
ATOM     10  C   UNL     1      32.725 -10.019 -23.631  0.00  0.00    +0.335 A 
ATOM     11  C   UNL     1      33.923 -14.345 -23.188  0.00  0.00    +0.172 C 
ATOM     12  H   UNL     1      32.732 -14.414 -21.447  0.00  0.00    +0.149 HD
ATOM     13  H   UNL     1      34.787 -13.476 -24.859  0.00  0.00    +0.150 HD
ENDROOT
BRANCH  11  16
ATOM     14  N   UNL     1      35.308 -17.647 -22.714  0.00  0.00    -0.206 N 
ATOM     15  N   UNL     1      35.065 -17.767 -24.030  0.00  0.00    -0.176 NA
ATOM     16  C   UNL     1      34.444 -15.724 -23.248  0.00  0.00    +0.051 C 
ATOM     17  C   UNL     1      34.952 -16.436 -22.196  0.00  0.00    +0.085 C 
ATOM     18  C   UNL     1      34.535 -16.584 -24.351  0.00  0.00    +0.118 C 
BRANCH  14  19
ATOM     19  C   UNL     1      35.893 -18.750 -21.990  0.00  0.00    +0.143 C 
BRANCH  19  20
ATOM     20  C   UNL     1      34.857 -19.498 -21.197  0.00  0.00    -0.000 C 
ATOM     21  C   UNL     1      35.249 -20.552 -20.383  0.00  0.00    +0.001 C 
ATOM     22  C   UNL     1      33.524 -19.124 -21.289  0.00  0.00    -0.003 C 
ATOM     23  C   UNL     1      34.289 -21.246 -19.646  0.00  0.00    +0.071 C 
ATOM     24  C   UNL     1      32.563 -19.817 -20.552  0.00  0.00    -0.000 C 
ATOM     25  C   UNL     1      32.945 -20.878 -19.731  0.00  0.00    +0.004 C 
BRANCH  23  29
ATOM     26  F   UNL     1      36.016 -22.348 -18.411  0.00  0.00    -0.166 F 
ATOM     27  F   UNL     1      34.011 -22.432 -17.589  0.00  0.00    -0.166 F 
ATOM     28  F   UNL     1      34.507 -23.595 -19.357  0.00  0.00    -0.166 F 
ATOM     29  C   UNL     1      34.697 -22.379 -18.768  0.00  0.00    +0.419 C 
ENDBRANCH  23  29
ENDBRANCH  19  20
ENDBRANCH  14  19
ENDBRANCH  11  16
BRANCH   3  30
ATOM     30  C   UNL     1      34.257 -10.805 -25.434  0.00  0.00    +0.112 C 
ATOM     31  C   UNL     1      35.558 -10.089 -25.137  0.00  0.00    +0.027 C 
ENDBRANCH   3  30
BRANCH   4  32
ATOM     32  C   UNL     1      31.217  -9.304 -21.829  0.00  0.00    +0.114 C 
BRANCH  32  33
ATOM     33  C   UNL     1      31.986  -8.545 -20.754  0.00  0.00    +0.025 C 
ATOM     34  C   UNL     1      32.185  -7.077 -21.100  0.00  0.00    +0.002 C 
ENDBRANCH  32  33
ENDBRANCH   4  32
TORSDOF 7
ENDMDL
MODEL 4
REMARK VINA RESULT:     -10.7      7.208     11.740
REMARK  Name = 11270783
REMARK  7 active torsions:
REMARK  status: ('A' for Active; 'I' for Inactive)
REMARK    1  A    between atoms: N_3  and  C_30
REMARK    2  A    between atoms: N_4  and  C_32
REMARK    3  A    between atoms: C_11  and  C_16
REMARK    4  A    between atoms: N_14  and  C_19
REMARK    5  A    between atoms: C_19  and  C_20
REMARK    6  A    between atoms: C_23  and  C_29
REMARK    7  A    between atoms: C_32  and  C_33
REMARK                            x       y       z     vdW  Elec       q    Type
REMARK                         _______ _______ _______ _____ _____    ______ ____
ROOT
ATOM      1  O   UNL     1      38.307 -22.597 -16.105  0.00  0.00    -0.265 OA
ATOM      2  O   UNL     1      34.717 -24.794 -14.023  0.00  0.00    -0.246 OA
ATOM      3  N   UNL     1      34.290 -23.586 -15.965  0.00  0.00    -0.269 N 
ATOM      4  N   UNL     1      36.526 -23.708 -15.040  0.00  0.00    -0.248 N 
ATOM      5  N   UNL     1      36.302 -21.692 -18.120  0.00  0.00    -0.309 N 
ATOM      6  N   UNL     1      34.142 -22.240 -18.020  0.00  0.00    -0.301 N 
ATOM      7  C   UNL     1      34.826 -22.791 -16.970  0.00  0.00    +0.132 A 
ATOM      8  C   UNL     1      36.155 -22.470 -17.007  0.00  0.00    +0.133 A 
ATOM      9  C   UNL     1      37.119 -22.900 -16.047  0.00  0.00    +0.280 A 
ATOM     10  C   UNL     1      35.136 -24.083 -14.943  0.00  0.00    +0.335 A 
ATOM     11  C   UNL     1      35.062 -21.581 -18.696  0.00  0.00    +0.172 C 
ATOM     12  H   UNL     1      37.137 -21.287 -18.446  0.00  0.00    +0.149 HD
ATOM     13  H   UNL     1      33.182 -22.316 -18.224  0.00  0.00    +0.150 HD
ENDROOT
BRANCH  11  16
ATOM     14  N   UNL     1      35.048 -19.673 -21.762  0.00  0.00    -0.206 N 
ATOM     15  N   UNL     1      33.714 -19.758 -21.625  0.00  0.00    -0.176 NA
ATOM     16  C   UNL     1      34.798 -20.815 -19.928  0.00  0.00    +0.051 C 
ATOM     17  C   UNL     1      35.745 -20.294 -20.766  0.00  0.00    +0.085 C 
ATOM     18  C   UNL     1      33.568 -20.459 -20.498  0.00  0.00    +0.118 C 
BRANCH  14  19
ATOM     19  C   UNL     1      35.609 -18.972 -22.891  0.00  0.00    +0.143 C 
BRANCH  19  20
ATOM     20  C   UNL     1      34.948 -17.635 -23.092  0.00  0.00    -0.000 C 
ATOM     21  C   UNL     1      34.645 -16.849 -21.989  0.00  0.00    +0.001 C 
ATOM     22  C   UNL     1      34.651 -17.205 -24.378  0.00  0.00    -0.003 C 
ATOM     23  C   UNL     1      34.033 -15.610 -22.175  0.00  0.00    +0.071 C 
ATOM     24  C   UNL     1      34.040 -15.966 -24.565  0.00  0.00    -0.000 C 
ATOM     25  C   UNL     1      33.730 -15.168 -23.464  0.00  0.00    +0.004 C 
BRANCH  23  29
ATOM     26  F   UNL     1      32.800 -15.326 -20.145  0.00  0.00    -0.166 F 
ATOM     27  F   UNL     1      34.784 -14.454 -20.221  0.00  0.00    -0.166 F 
ATOM     28  F   UNL     1      33.162 -13.556 -21.354  0.00  0.00    -0.166 F 
ATOM     29  C   UNL     1      33.703 -14.757 -20.998  0.00  0.00    +0.419 C 
ENDBRANCH  23  29
ENDBRANCH  19  20
ENDBRANCH  14  19
ENDBRANCH  11  16
BRANCH   3  30
ATOM     30  C   UNL     1      32.868 -23.905 -15.961  0.00  0.00    +0.112 C 
ATOM     31  C   UNL     1      32.092 -22.970 -15.056  0.00  0.00    +0.027 C 
ENDBRANCH   3  30
BRANCH   4  32
ATOM     32  C   UNL     1      37.395 -24.223 -13.988  0.00  0.00    +0.114 C 
BRANCH  32  33
ATOM     33  C   UNL     1      38.080 -25.525 -14.386  0.00  0.00    +0.025 C 
ATOM     34  C   UNL     1      39.596 -25.448 -14.282  0.00  0.00    +0.002 C 
ENDBRANCH  32  33
ENDBRANCH   4  32
TORSDOF 7
ENDMDL
MODEL 5
REMARK VINA RESULT:     -10.7      7.502     11.977
REMARK  Name = 11270783
REMARK  7 active torsions:
REMARK  status: ('A' for Active; 'I' for Inactive)
REMARK    1  A    between atoms: N_3  and  C_30
REMARK    2  A    between atoms: N_4  and  C_32
REMARK    3  A    between atoms: C_11  and  C_16
REMARK    4  A    between atoms: N_14  and  C_19
REMARK    5  A    between atoms: C_19  and  C_20
REMARK    6  A    between atoms: C_23  and  C_29
REMARK    7  A    between atoms: C_32  and  C_33
REMARK                            x       y       z     vdW  Elec       q    Type
REMARK                         _______ _______ _______ _____ _____    ______ ____
ROOT
ATOM      1  O   UNL     1      38.405 -22.685 -16.127  0.00  0.00    -0.265 OA
ATOM      2  O   UNL     1      35.003 -24.913 -13.780  0.00  0.00    -0.246 OA
ATOM      3  N   UNL     1      34.420 -23.712 -15.685  0.00  0.00    -0.269 N 
ATOM      4  N   UNL     1      36.719 -23.812 -14.931  0.00  0.00    -0.248 N 
ATOM      5  N   UNL     1      36.245 -21.802 -17.987  0.00  0.00    -0.309 N 
ATOM      6  N   UNL     1      34.105 -22.370 -17.725  0.00  0.00    -0.301 N 
ATOM      7  C   UNL     1      34.871 -22.914 -16.729  0.00  0.00    +0.132 A 
ATOM      8  C   UNL     1      36.190 -22.580 -16.866  0.00  0.00    +0.133 A 
ATOM      9  C   UNL     1      37.228 -22.999 -15.980  0.00  0.00    +0.280 A 
ATOM     10  C   UNL     1      35.345 -24.200 -14.729  0.00  0.00    +0.335 A 
ATOM     11  C   UNL     1      34.965 -21.704 -18.468  0.00  0.00    +0.172 C 
ATOM     12  H   UNL     1      37.050 -21.390 -18.375  0.00  0.00    +0.149 HD
ATOM     13  H   UNL     1      33.133 -22.456 -17.856  0.00  0.00    +0.150 HD
ENDROOT
BRANCH  11  16
ATOM     14  N   UNL     1      34.689 -19.673 -21.441  0.00  0.00    -0.206 N 
ATOM     15  N   UNL     1      33.397 -20.040 -21.383  0.00  0.00    -0.176 NA
ATOM     16  C   UNL     1      34.602 -20.942 -19.677  0.00  0.00    +0.051 C 
ATOM     17  C   UNL     1      35.455 -20.190 -20.437  0.00  0.00    +0.085 C 
ATOM     18  C   UNL     1      33.351 -20.818 -20.298  0.00  0.00    +0.118 C 
BRANCH  14  19
ATOM     19  C   UNL     1      35.141 -18.810 -22.506  0.00  0.00    +0.143 C 
BRANCH  19  20
ATOM     20  C   UNL     1      34.809 -17.370 -22.224  0.00  0.00    -0.000 C 
ATOM     21  C   UNL     1      34.348 -16.559 -23.252  0.00  0.00    +0.001 C 
ATOM     22  C   UNL     1      34.967 -16.871 -20.938  0.00  0.00    -0.003 C 
ATOM     23  C   UNL     1      34.040 -15.224 -22.991  0.00  0.00    +0.071 C 
ATOM     24  C   UNL     1      34.658 -15.536 -20.676  0.00  0.00    -0.000 C 
ATOM     25  C   UNL     1      34.195 -14.713 -21.701  0.00  0.00    +0.004 C 
BRANCH  23  29
ATOM     26  F   UNL     1      33.463 -14.972 -25.298  0.00  0.00    -0.166 F 
ATOM     27  F   UNL     1      32.294 -13.842 -23.863  0.00  0.00    -0.166 F 
ATOM     28  F   UNL     1      34.344 -13.258 -24.292  0.00  0.00    -0.166 F 
ATOM     29  C   UNL     1      33.544 -14.345 -24.088  0.00  0.00    +0.419 C 
ENDBRANCH  23  29
ENDBRANCH  19  20
ENDBRANCH  14  19
ENDBRANCH  11  16
BRANCH   3  30
ATOM     30  C   UNL     1      33.005 -24.045 -15.574  0.00  0.00    +0.112 C 
ATOM     31  C   UNL     1      32.268 -23.049 -14.703  0.00  0.00    +0.027 C 
ENDBRANCH   3  30
BRANCH   4  32
ATOM     32  C   UNL     1      37.670 -24.316 -13.947  0.00  0.00    +0.114 C 
BRANCH  32  33
ATOM     33  C   UNL     1      38.283 -25.649 -14.362  0.00  0.00    +0.025 C 
ATOM     34  C   UNL     1      39.798 -25.587 -14.484  0.00  0.00    +0.002 C 
ENDBRANCH  32  33
ENDBRANCH   4  32
TORSDOF 7
ENDMDL
MODEL 6
REMARK VINA RESULT:     -10.5      5.457     10.056
REMARK  Name = 11270783
REMARK  7 active torsions:
REMARK  status: ('A' for Active; 'I' for Inactive)
REMARK    1  A    between atoms: N_3  and  C_30
REMARK    2  A    between atoms: N_4  and  C_32
REMARK    3  A    between atoms: C_11  and  C_16
REMARK    4  A    between atoms: N_14  and  C_19
REMARK    5  A    between atoms: C_19  and  C_20
REMARK    6  A    between atoms: C_23  and  C_29
REMARK    7  A    between atoms: C_32  and  C_33
REMARK                            x       y       z     vdW  Elec       q    Type
REMARK                         _______ _______ _______ _____ _____    ______ ____
ROOT
ATOM      1  O   UNL     1      35.010 -16.410 -21.243  0.00  0.00    -0.265 OA
ATOM      2  O   UNL     1      34.434 -17.450 -25.786  0.00  0.00    -0.246 OA
ATOM      3  N   UNL     1      33.536 -15.456 -24.992  0.00  0.00    -0.269 N 
ATOM      4  N   UNL     1      34.736 -16.956 -23.516  0.00  0.00    -0.248 N 
ATOM      5  N   UNL     1      33.484 -13.917 -21.845  0.00  0.00    -0.309 N 
ATOM      6  N   UNL     1      32.701 -13.429 -23.875  0.00  0.00    -0.301 N 
ATOM      7  C   UNL     1      33.358 -14.629 -23.890  0.00  0.00    +0.132 A 
ATOM      8  C   UNL     1      33.849 -14.953 -22.655  0.00  0.00    +0.133 A 
ATOM      9  C   UNL     1      34.579 -16.143 -22.362  0.00  0.00    +0.280 A 
ATOM     10  C   UNL     1      34.245 -16.674 -24.843  0.00  0.00    +0.335 A 
ATOM     11  C   UNL     1      32.795 -13.024 -22.624  0.00  0.00    +0.172 C 
ATOM     12  H   UNL     1      33.678 -13.828 -20.884  0.00  0.00    +0.149 HD
ATOM     13  H   UNL     1      32.258 -12.971 -24.626  0.00  0.00    +0.150 HD
ENDROOT
BRANCH  11  16
ATOM     14  N   UNL     1      31.644  -9.676 -21.911  0.00  0.00    -0.206 N 
ATOM     15  N   UNL     1      31.162 -10.248 -20.794  0.00  0.00    -0.176 NA
ATOM     16  C   UNL     1      32.228 -11.761 -22.115  0.00  0.00    +0.051 C 
ATOM     17  C   UNL     1      32.294 -10.545 -22.738  0.00  0.00    +0.085 C 
ATOM     18  C   UNL     1      31.524 -11.527 -20.926  0.00  0.00    +0.118 C 
BRANCH  14  19
ATOM     19  C   UNL     1      31.445  -8.265 -22.136  0.00  0.00    +0.143 C 
BRANCH  19  20
ATOM     20  C   UNL     1      32.516  -7.693 -23.024  0.00  0.00    -0.000 C 
ATOM     21  C   UNL     1      32.180  -6.738 -23.973  0.00  0.00    +0.001 C 
ATOM     22  C   UNL     1      33.827  -8.127 -22.881  0.00  0.00    -0.003 C 
ATOM     23  C   UNL     1      33.173  -6.207 -24.796  0.00  0.00    +0.071 C 
ATOM     24  C   UNL     1      34.821  -7.596 -23.703  0.00  0.00    -0.000 C 
ATOM     25  C   UNL     1      34.494  -6.636 -24.661  0.00  0.00    +0.004 C 
BRANCH  23  29
ATOM     26  F   UNL     1      33.295  -3.932 -25.525  0.00  0.00    -0.166 F 
ATOM     27  F   UNL     1      33.312  -5.460 -27.064  0.00  0.00    -0.166 F 
ATOM     28  F   UNL     1      31.477  -5.034 -25.980  0.00  0.00    -0.166 F 
ATOM     29  C   UNL     1      32.824  -5.180 -25.819  0.00  0.00    +0.419 C 
ENDBRANCH  23  29
ENDBRANCH  19  20
ENDBRANCH  14  19
ENDBRANCH  11  16
BRANCH   3  30
ATOM     30  C   UNL     1      32.996 -15.075 -26.291  0.00  0.00    +0.112 C 
ATOM     31  C   UNL     1      33.521 -13.725 -26.735  0.00  0.00    +0.027 C 
ENDBRANCH   3  30
BRANCH   4  32
ATOM     32  C   UNL     1      35.467 -18.210 -23.366  0.00  0.00    +0.114 C 
BRANCH  32  33
ATOM     33  C   UNL     1      34.615 -19.306 -22.736  0.00  0.00    +0.025 C 
ATOM     34  C   UNL     1      35.174 -19.794 -21.407  0.00  0.00    +0.002 C 
ENDBRANCH  32  33
ENDBRANCH   4  32
TORSDOF 7
ENDMDL
MODEL 7
REMARK VINA RESULT:     -10.2      1.891      3.147
REMARK  Name = 11270783
REMARK  7 active torsions:
REMARK  status: ('A' for Active; 'I' for Inactive)
REMARK    1  A    between atoms: N_3  and  C_30
REMARK    2  A    between atoms: N_4  and  C_32
REMARK    3  A    between atoms: C_11  and  C_16
REMARK    4  A    between atoms: N_14  and  C_19
REMARK    5  A    between atoms: C_19  and  C_20
REMARK    6  A    between atoms: C_23  and  C_29
REMARK    7  A    between atoms: C_32  and  C_33
REMARK                            x       y       z     vdW  Elec       q    Type
REMARK                         _______ _______ _______ _____ _____    ______ ____
ROOT
ATOM      1  O   UNL     1      30.454 -10.286 -22.020  0.00  0.00    -0.265 OA
ATOM      2  O   UNL     1      33.739  -7.948 -24.427  0.00  0.00    -0.246 OA
ATOM      3  N   UNL     1      34.105 -10.199 -23.969  0.00  0.00    -0.269 N 
ATOM      4  N   UNL     1      32.084  -9.089 -23.225  0.00  0.00    -0.248 N 
ATOM      5  N   UNL     1      32.253 -12.651 -22.286  0.00  0.00    -0.309 N 
ATOM      6  N   UNL     1      34.215 -12.576 -23.341  0.00  0.00    -0.301 N 
ATOM      7  C   UNL     1      33.606 -11.351 -23.373  0.00  0.00    +0.132 A 
ATOM      8  C   UNL     1      32.399 -11.369 -22.731  0.00  0.00    +0.133 A 
ATOM      9  C   UNL     1      31.534 -10.241 -22.601  0.00  0.00    +0.280 A 
ATOM     10  C   UNL     1      33.347  -9.003 -23.915  0.00  0.00    +0.335 A 
ATOM     11  C   UNL     1      33.372 -13.340 -22.676  0.00  0.00    +0.172 C 
ATOM     12  H   UNL     1      31.490 -13.012 -21.780  0.00  0.00    +0.149 HD
ATOM     13  H   UNL     1      35.085 -12.830 -23.726  0.00  0.00    +0.150 HD
ENDROOT
BRANCH  11  16
ATOM     14  N   UNL     1      34.136 -16.868 -22.560  0.00  0.00    -0.206 N 
ATOM     15  N   UNL     1      33.678 -16.766 -21.300  0.00  0.00    -0.176 NA
ATOM     16  C   UNL     1      33.597 -14.768 -22.385  0.00  0.00    +0.051 C 
ATOM     17  C   UNL     1      34.108 -15.693 -23.253  0.00  0.00    +0.085 C 
ATOM     18  C   UNL     1      33.350 -15.475 -21.200  0.00  0.00    +0.118 C 
BRANCH  14  19
ATOM     19  C   UNL     1      34.599 -18.143 -23.053  0.00  0.00    +0.143 C 
BRANCH  19  20
ATOM     20  C   UNL     1      35.210 -18.968 -21.953  0.00  0.00    -0.000 C 
ATOM     21  C   UNL     1      34.414 -19.853 -21.239  0.00  0.00    +0.001 C 
ATOM     22  C   UNL     1      36.562 -18.835 -21.669  0.00  0.00    -0.003 C 
ATOM     23  C   UNL     1      34.979 -20.619 -20.220  0.00  0.00    +0.071 C 
ATOM     24  C   UNL     1      37.129 -19.601 -20.651  0.00  0.00    -0.000 C 
ATOM     25  C   UNL     1      36.338 -20.493 -19.926  0.00  0.00    +0.004 C 
BRANCH  23  29
ATOM     26  F   UNL     1      33.923 -22.761 -20.086  0.00  0.00    -0.166 F 
ATOM     27  F   UNL     1      34.663 -21.912 -18.233  0.00  0.00    -0.166 F 
ATOM     28  F   UNL     1      32.892 -21.076 -19.178  0.00  0.00    -0.166 F 
ATOM     29  C   UNL     1      34.135 -21.573 -19.446  0.00  0.00    +0.419 C 
ENDBRANCH  23  29
ENDBRANCH  19  20
ENDBRANCH  14  19
ENDBRANCH  11  16
BRANCH   3  30
ATOM     30  C   UNL     1      35.397 -10.221 -24.643  0.00  0.00    +0.112 C 
ATOM     31  C   UNL     1      35.258 -10.624 -26.096  0.00  0.00    +0.027 C 
ENDBRANCH   3  30
BRANCH   4  32
ATOM     32  C   UNL     1      31.306  -7.856 -23.172  0.00  0.00    +0.114 C 
BRANCH  32  33
ATOM     33  C   UNL     1      31.635  -7.015 -21.944  0.00  0.00    +0.025 C 
ATOM     34  C   UNL     1      31.342  -5.536 -22.150  0.00  0.00    +0.002 C 
ENDBRANCH  32  33
ENDBRANCH   4  32
TORSDOF 7
ENDMDL
MODEL 8
REMARK VINA RESULT:     -10.2      4.699      7.534
REMARK  Name = 11270783
REMARK  7 active torsions:
REMARK  status: ('A' for Active; 'I' for Inactive)
REMARK    1  A    between atoms: N_3  and  C_30
REMARK    2  A    between atoms: N_4  and  C_32
REMARK    3  A    between atoms: C_11  and  C_16
REMARK    4  A    between atoms: N_14  and  C_19
REMARK    5  A    between atoms: C_19  and  C_20
REMARK    6  A    between atoms: C_23  and  C_29
REMARK    7  A    between atoms: C_32  and  C_33
REMARK                            x       y       z     vdW  Elec       q    Type
REMARK                         _______ _______ _______ _____ _____    ______ ____
ROOT
ATOM      1  O   UNL     1      34.356 -15.053 -20.583  0.00  0.00    -0.265 OA
ATOM      2  O   UNL     1      34.340 -15.479 -25.260  0.00  0.00    -0.246 OA
ATOM      3  N   UNL     1      34.565 -17.409 -23.980  0.00  0.00    -0.269 N 
ATOM      4  N   UNL     1      34.345 -15.238 -22.930  0.00  0.00    -0.248 N 
ATOM      5  N   UNL     1      34.675 -18.020 -20.532  0.00  0.00    -0.309 N 
ATOM      6  N   UNL     1      34.785 -19.265 -22.378  0.00  0.00    -0.301 N 
ATOM      7  C   UNL     1      34.639 -17.942 -22.700  0.00  0.00    +0.132 A 
ATOM      8  C   UNL     1      34.570 -17.155 -21.583  0.00  0.00    +0.133 A 
ATOM      9  C   UNL     1      34.417 -15.736 -21.601  0.00  0.00    +0.280 A 
ATOM     10  C   UNL     1      34.412 -16.010 -24.146  0.00  0.00    +0.335 A 
ATOM     11  C   UNL     1      34.803 -19.278 -21.061  0.00  0.00    +0.172 C 
ATOM     12  H   UNL     1      34.662 -17.785 -19.576  0.00  0.00    +0.149 HD
ATOM     13  H   UNL     1      34.860 -20.032 -22.991  0.00  0.00    +0.150 HD
ENDROOT
BRANCH  11  16
ATOM     14  N   UNL     1      34.534 -22.361 -19.199  0.00  0.00    -0.206 N 
ATOM     15  N   UNL     1      35.830 -22.127 -18.927  0.00  0.00    -0.176 NA
ATOM     16  C   UNL     1      34.944 -20.498 -20.245  0.00  0.00    +0.051 C 
ATOM     17  C   UNL     1      33.957 -21.410 -19.989  0.00  0.00    +0.085 C 
ATOM     18  C   UNL     1      36.074 -20.983 -19.571  0.00  0.00    +0.118 C 
BRANCH  14  19
ATOM     19  C   UNL     1      33.892 -23.538 -18.666  0.00  0.00    +0.143 C 
BRANCH  19  20
ATOM     20  C   UNL     1      33.547 -23.365 -17.213  0.00  0.00    -0.000 C 
ATOM     21  C   UNL     1      32.215 -23.372 -16.820  0.00  0.00    +0.001 C 
ATOM     22  C   UNL     1      34.564 -23.203 -16.282  0.00  0.00    -0.003 C 
ATOM     23  C   UNL     1      31.894 -23.213 -15.472  0.00  0.00    +0.071 C 
ATOM     24  C   UNL     1      34.244 -23.044 -14.934  0.00  0.00    -0.000 C 
ATOM     25  C   UNL     1      32.910 -23.049 -14.528  0.00  0.00    +0.004 C 
BRANCH  23  29
ATOM     26  F   UNL     1      29.792 -24.352 -15.395  0.00  0.00    -0.166 F 
ATOM     27  F   UNL     1      30.307 -23.121 -13.686  0.00  0.00    -0.166 F 
ATOM     28  F   UNL     1      29.753 -22.185 -15.568  0.00  0.00    -0.166 F 
ATOM     29  C   UNL     1      30.468 -23.219 -15.038  0.00  0.00    +0.419 C 
ENDBRANCH  23  29
ENDBRANCH  19  20
ENDBRANCH  14  19
ENDBRANCH  11  16
BRANCH   3  30
ATOM     30  C   UNL     1      34.644 -18.283 -25.145  0.00  0.00    +0.112 C 
ATOM     31  C   UNL     1      33.289 -18.862 -25.496  0.00  0.00    +0.027 C 
ENDBRANCH   3  30
BRANCH   4  32
ATOM     32  C   UNL     1      34.187 -13.798 -23.103  0.00  0.00    +0.114 C 
BRANCH  32  33
ATOM     33  C   UNL     1      32.727 -13.391 -23.268  0.00  0.00    +0.025 C 
ATOM     34  C   UNL     1      32.130 -12.815 -21.993  0.00  0.00    +0.002 C 
ENDBRANCH  32  33
ENDBRANCH   4  32
TORSDOF 7
ENDMDL
MODEL 9
REMARK VINA RESULT:     -10.0      7.123     11.845
REMARK  Name = 11270783
REMARK  7 active torsions:
REMARK  status: ('A' for Active; 'I' for Inactive)
REMARK    1  A    between atoms: N_3  and  C_30
REMARK    2  A    between atoms: N_4  and  C_32
REMARK    3  A    between atoms: C_11  and  C_16
REMARK    4  A    between atoms: N_14  and  C_19
REMARK    5  A    between atoms: C_19  and  C_20
REMARK    6  A    between atoms: C_23  and  C_29
REMARK    7  A    between atoms: C_32  and  C_33
REMARK                            x       y       z     vdW  Elec       q    Type
REMARK                         _______ _______ _______ _____ _____    ______ ____
ROOT
ATOM      1  O   UNL     1      30.250 -23.144 -16.404  0.00  0.00    -0.265 OA
ATOM      2  O   UNL     1      33.875 -24.991 -14.058  0.00  0.00    -0.246 OA
ATOM      3  N   UNL     1      34.325 -23.708 -15.946  0.00  0.00    -0.269 N 
ATOM      4  N   UNL     1      32.048 -24.082 -15.209  0.00  0.00    -0.248 N 
ATOM      5  N   UNL     1      32.304 -21.994 -18.238  0.00  0.00    -0.309 N 
ATOM      6  N   UNL     1      34.494 -22.314 -17.968  0.00  0.00    -0.301 N 
ATOM      7  C   UNL     1      33.791 -22.955 -16.984  0.00  0.00    +0.132 A 
ATOM      8  C   UNL     1      32.442 -22.775 -17.127  0.00  0.00    +0.133 A 
ATOM      9  C   UNL     1      31.455 -23.322 -16.253  0.00  0.00    +0.280 A 
ATOM     10  C   UNL     1      33.457 -24.311 -15.002  0.00  0.00    +0.335 A 
ATOM     11  C   UNL     1      33.567 -21.743 -18.709  0.00  0.00    +0.172 C 
ATOM     12  H   UNL     1      31.459 -21.673 -18.627  0.00  0.00    +0.149 HD
ATOM     13  H   UNL     1      35.470 -22.286 -18.093  0.00  0.00    +0.150 HD
ENDROOT
BRANCH  11  16
ATOM     14  N   UNL     1      34.858 -19.783 -21.454  0.00  0.00    -0.206 N 
ATOM     15  N   UNL     1      33.564 -19.722 -21.814  0.00  0.00    -0.176 NA
ATOM     16  C   UNL     1      33.846 -20.927 -19.906  0.00  0.00    +0.051 C 
ATOM     17  C   UNL     1      35.079 -20.498 -20.313  0.00  0.00    +0.085 C 
ATOM     18  C   UNL     1      32.949 -20.425 -20.860  0.00  0.00    +0.118 C 
BRANCH  14  19
ATOM     19  C   UNL     1      35.857 -19.127 -22.262  0.00  0.00    +0.143 C 
BRANCH  19  20
ATOM     20  C   UNL     1      35.261 -18.009 -23.074  0.00  0.00    -0.000 C 
ATOM     21  C   UNL     1      34.970 -16.798 -22.461  0.00  0.00    +0.001 C 
ATOM     22  C   UNL     1      35.010 -18.204 -24.425  0.00  0.00    -0.003 C 
ATOM     23  C   UNL     1      34.418 -15.761 -23.213  0.00  0.00    +0.071 C 
ATOM     24  C   UNL     1      34.459 -17.167 -25.178  0.00  0.00    -0.000 C 
ATOM     25  C   UNL     1      34.163 -15.946 -24.573  0.00  0.00    +0.004 C 
BRANCH  23  29
ATOM     26  F   UNL     1      34.327 -13.377 -23.373  0.00  0.00    -0.166 F 
ATOM     27  F   UNL     1      32.800 -14.341 -22.173  0.00  0.00    -0.166 F 
ATOM     28  F   UNL     1      34.844 -14.233 -21.443  0.00  0.00    -0.166 F 
ATOM     29  C   UNL     1      34.103 -14.456 -22.566  0.00  0.00    +0.419 C 
ENDBRANCH  23  29
ENDBRANCH  19  20
ENDBRANCH  14  19
ENDBRANCH  11  16
BRANCH   3  30
ATOM     30  C   UNL     1      35.769 -23.876 -15.829  0.00  0.00    +0.112 C 
ATOM     31  C   UNL     1      36.389 -22.780 -14.989  0.00  0.00    +0.027 C 
ENDBRANCH   3  30
BRANCH   4  32
ATOM     32  C   UNL     1      31.157 -24.703 -14.235  0.00  0.00    +0.114 C 
BRANCH  32  33
ATOM     33  C   UNL     1      30.190 -25.689 -14.880  0.00  0.00    +0.025 C 
ATOM     34  C   UNL     1      28.734 -25.365 -14.581  0.00  0.00    +0.002 C 
ENDBRANCH  32  33
ENDBRANCH   4  32
TORSDOF 7
ENDMDL
