MODEL 1
REMARK VINA RESULT:     -11.8      0.000      0.000
REMARK  Name = 447656
REMARK  5 active torsions:
REMARK  status: ('A' for Active; 'I' for Inactive)
REMARK    1  A    between atoms: N_5  and  C_14
REMARK    2  A    between atoms: C_6  and  O_25
REMARK    3  A    between atoms: C_17  and  C_22
REMARK    4  A    between atoms: O_25  and  C_26
REMARK    5  A    between atoms: C_26  and  C_27
REMARK                            x       y       z     vdW  Elec       q    Type
REMARK                         _______ _______ _______ _____ _____    ______ ____
ROOT
ATOM      1  N   UNL     1      33.944 -23.916 -16.024  0.00  0.00    -0.293 NA
ATOM      2  N   UNL     1      30.572 -22.696 -16.838  0.00  0.00    -0.266 NA
ATOM      3  N   UNL     1      32.405 -23.901 -14.131  0.00  0.00    -0.316 NA
ATOM      4  N   UNL     1      30.179 -23.093 -14.680  0.00  0.00    -0.296 N 
ATOM      5  N   UNL     1      34.616 -24.629 -13.896  0.00  0.00    -0.238 N 
ATOM      6  C   UNL     1      32.997 -23.430 -16.853  0.00  0.00    +0.288 C 
ATOM      7  C   UNL     1      31.746 -23.175 -16.330  0.00  0.00    +0.215 C 
ATOM      8  C   UNL     1      31.476 -23.414 -14.989  0.00  0.00    +0.196 C 
ATOM      9  C   UNL     1      33.595 -24.120 -14.731  0.00  0.00    +0.207 C 
ATOM     10  C   UNL     1      29.664 -22.665 -15.814  0.00  0.00    +0.164 C 
ATOM     11  H   UNL     1      30.409 -22.423 -17.770  0.00  0.00    +0.126 HD
ATOM     12  H   UNL     1      29.732 -23.166 -13.806  0.00  0.00    +0.150 HD
ATOM     13  H   UNL     1      34.334 -24.768 -12.964  0.00  0.00    +0.166 HD
ENDROOT
BRANCH   5  14
ATOM     14  C   UNL     1      35.957 -24.978 -14.139  0.00  0.00    +0.058 C 
ATOM     15  C   UNL     1      36.263 -26.169 -14.804  0.00  0.00    +0.015 C 
ATOM     16  C   UNL     1      36.988 -24.137 -13.716  0.00  0.00    +0.015 C 
ATOM     17  C   UNL     1      38.620 -25.672 -14.622  0.00  0.00    +0.053 C 
ATOM     18  C   UNL     1      37.592 -26.515 -15.045  0.00  0.00    +0.006 C 
ATOM     19  C   UNL     1      38.318 -24.483 -13.958  0.00  0.00    +0.006 C 
BRANCH  17  22
ATOM     20  O   UNL     1      40.529 -25.857 -15.988  0.00  0.00    -0.270 OA
ATOM     21  N   UNL     1      40.739 -26.565 -13.817  0.00  0.00    -0.325 N 
ATOM     22  C   UNL     1      40.005 -26.033 -14.873  0.00  0.00    +0.243 C 
ATOM     23  H   UNL     1      41.680 -26.822 -13.951  0.00  0.00    +0.145 HD
ATOM     24  H   UNL     1      40.316 -26.688 -12.936  0.00  0.00    +0.145 HD
ENDBRANCH  17  22
ENDBRANCH   5  14
BRANCH   6  25
ATOM     25  O   UNL     1      33.318 -23.211 -18.171  0.00  0.00    -0.453 OA
BRANCH  25  26
ATOM     26  C   UNL     1      34.536 -22.540 -18.433  0.00  0.00    +0.208 C 
BRANCH  26  27
ATOM     27  C   UNL     1      34.363 -21.695 -19.693  0.00  0.00    +0.044 C 
ATOM     28  C   UNL     1      33.054 -20.895 -19.633  0.00  0.00    +0.004 C 
ATOM     29  C   UNL     1      35.564 -20.761 -19.890  0.00  0.00    +0.004 C 
ATOM     30  C   UNL     1      32.883 -20.001 -20.859  0.00  0.00    +0.000 C 
ATOM     31  C   UNL     1      35.388 -19.867 -21.114  0.00  0.00    +0.000 C 
ATOM     32  C   UNL     1      34.083 -19.081 -21.056  0.00  0.00    +0.000 C 
ENDBRANCH  26  27
ENDBRANCH  25  26
ENDBRANCH   6  25
TORSDOF 5
ENDMDL
MODEL 2
REMARK VINA RESULT:     -11.7      2.113      6.819
REMARK  Name = 447656
REMARK  5 active torsions:
REMARK  status: ('A' for Active; 'I' for Inactive)
REMARK    1  A    between atoms: N_5  and  C_14
REMARK    2  A    between atoms: C_6  and  O_25
REMARK    3  A    between atoms: C_17  and  C_22
REMARK    4  A    between atoms: O_25  and  C_26
REMARK    5  A    between atoms: C_26  and  C_27
REMARK                            x       y       z     vdW  Elec       q    Type
REMARK                         _______ _______ _______ _____ _____    ______ ____
ROOT
ATOM      1  N   UNL     1      33.667 -23.503 -15.785  0.00  0.00    -0.293 NA
ATOM      2  N   UNL     1      37.315 -23.952 -15.679  0.00  0.00    -0.266 NA
ATOM      3  N   UNL     1      34.468 -24.701 -13.816  0.00  0.00    -0.316 NA
ATOM      4  N   UNL     1      36.881 -24.992 -13.757  0.00  0.00    -0.296 N 
ATOM      5  N   UNL     1      32.190 -24.275 -14.139  0.00  0.00    -0.238 N 
ATOM      6  C   UNL     1      34.921 -23.366 -16.265  0.00  0.00    +0.288 C 
ATOM      7  C   UNL     1      35.959 -23.894 -15.525  0.00  0.00    +0.215 C 
ATOM      8  C   UNL     1      35.715 -24.546 -14.324  0.00  0.00    +0.196 C 
ATOM      9  C   UNL     1      33.519 -24.153 -14.606  0.00  0.00    +0.207 C 
ATOM     10  C   UNL     1      37.823 -24.618 -14.596  0.00  0.00    +0.164 C 
ATOM     11  H   UNL     1      37.832 -23.582 -16.432  0.00  0.00    +0.126 HD
ATOM     12  H   UNL     1      36.989 -25.482 -12.909  0.00  0.00    +0.150 HD
ATOM     13  H   UNL     1      32.113 -24.751 -13.281  0.00  0.00    +0.166 HD
ENDROOT
BRANCH   5  14
ATOM     14  C   UNL     1      30.956 -23.849 -14.662  0.00  0.00    +0.058 C 
ATOM     15  C   UNL     1      30.602 -22.498 -14.614  0.00  0.00    +0.015 C 
ATOM     16  C   UNL     1      30.078 -24.774 -15.231  0.00  0.00    +0.015 C 
ATOM     17  C   UNL     1      28.504 -23.001 -15.700  0.00  0.00    +0.053 C 
ATOM     18  C   UNL     1      29.379 -22.075 -15.132  0.00  0.00    +0.006 C 
ATOM     19  C   UNL     1      28.854 -24.351 -15.750  0.00  0.00    +0.006 C 
BRANCH  17  22
ATOM     20  O   UNL     1      26.255 -22.331 -15.502  0.00  0.00    -0.270 OA
ATOM     21  N   UNL     1      27.137 -22.383 -17.618  0.00  0.00    -0.325 N 
ATOM     22  C   UNL     1      27.229 -22.561 -16.241  0.00  0.00    +0.243 C 
ATOM     23  H   UNL     1      26.288 -22.086 -18.021  0.00  0.00    +0.145 HD
ATOM     24  H   UNL     1      27.919 -22.556 -18.191  0.00  0.00    +0.145 HD
ENDBRANCH  17  22
ENDBRANCH   5  14
BRANCH   6  25
ATOM     25  O   UNL     1      35.107 -22.712 -17.458  0.00  0.00    -0.453 OA
BRANCH  25  26
ATOM     26  C   UNL     1      33.999 -22.655 -18.339  0.00  0.00    +0.208 C 
BRANCH  26  27
ATOM     27  C   UNL     1      34.397 -21.835 -19.565  0.00  0.00    +0.044 C 
ATOM     28  C   UNL     1      33.331 -20.777 -19.879  0.00  0.00    +0.004 C 
ATOM     29  C   UNL     1      35.770 -21.182 -19.358  0.00  0.00    +0.004 C 
ATOM     30  C   UNL     1      33.732 -19.909 -21.070  0.00  0.00    +0.000 C 
ATOM     31  C   UNL     1      36.166 -20.313 -20.549  0.00  0.00    +0.000 C 
ATOM     32  C   UNL     1      35.100 -19.269 -20.864  0.00  0.00    +0.000 C 
ENDBRANCH  26  27
ENDBRANCH  25  26
ENDBRANCH   6  25
TORSDOF 5
ENDMDL
MODEL 3
REMARK VINA RESULT:     -11.3      2.279      6.614
REMARK  Name = 447656
REMARK  5 active torsions:
REMARK  status: ('A' for Active; 'I' for Inactive)
REMARK    1  A    between atoms: N_5  and  C_14
REMARK    2  A    between atoms: C_6  and  O_25
REMARK    3  A    between atoms: C_17  and  C_22
REMARK    4  A    between atoms: O_25  and  C_26
REMARK    5  A    between atoms: C_26  and  C_27
REMARK                            x       y       z     vdW  Elec       q    Type
REMARK                         _______ _______ _______ _____ _____    ______ ____
ROOT
ATOM      1  N   UNL     1      34.401 -23.875 -14.562  0.00  0.00    -0.293 NA
ATOM      2  N   UNL     1      37.904 -23.974 -13.449  0.00  0.00    -0.266 NA
ATOM      3  N   UNL     1      34.675 -24.059 -12.144  0.00  0.00    -0.316 NA
ATOM      4  N   UNL     1      36.994 -24.124 -11.420  0.00  0.00    -0.296 N 
ATOM      5  N   UNL     1      32.552 -23.976 -13.127  0.00  0.00    -0.238 N 
ATOM      6  C   UNL     1      35.737 -23.865 -14.756  0.00  0.00    +0.288 C 
ATOM      7  C   UNL     1      36.553 -23.953 -13.647  0.00  0.00    +0.215 C 
ATOM      8  C   UNL     1      36.010 -24.047 -12.372  0.00  0.00    +0.196 C 
ATOM      9  C   UNL     1      33.957 -23.970 -13.286  0.00  0.00    +0.207 C 
ATOM     10  C   UNL     1      38.120 -24.077 -12.101  0.00  0.00    +0.164 C 
ATOM     11  H   UNL     1      38.596 -23.924 -14.148  0.00  0.00    +0.126 HD
ATOM     12  H   UNL     1      36.884 -24.198 -10.444  0.00  0.00    +0.150 HD
ATOM     13  H   UNL     1      32.260 -24.045 -12.190  0.00  0.00    +0.166 HD
ENDROOT
BRANCH   5  14
ATOM     14  C   UNL     1      31.492 -23.902 -14.047  0.00  0.00    +0.058 C 
ATOM     15  C   UNL     1      30.508 -24.895 -14.065  0.00  0.00    +0.015 C 
ATOM     16  C   UNL     1      31.416 -22.837 -14.946  0.00  0.00    +0.015 C 
ATOM     17  C   UNL     1      29.383 -23.757 -15.874  0.00  0.00    +0.053 C 
ATOM     18  C   UNL     1      29.455 -24.823 -14.977  0.00  0.00    +0.006 C 
ATOM     19  C   UNL     1      30.362 -22.763 -15.859  0.00  0.00    +0.006 C 
BRANCH  17  22
ATOM     20  O   UNL     1      27.901 -24.682 -17.453  0.00  0.00    -0.270 OA
ATOM     21  N   UNL     1      27.661 -22.448 -16.995  0.00  0.00    -0.325 N 
ATOM     22  C   UNL     1      28.285 -23.680 -16.824  0.00  0.00    +0.243 C 
ATOM     23  H   UNL     1      26.914 -22.358 -17.630  0.00  0.00    +0.145 HD
ATOM     24  H   UNL     1      27.967 -21.665 -16.481  0.00  0.00    +0.145 HD
ENDBRANCH  17  22
ENDBRANCH   5  14
BRANCH   6  25
ATOM     25  O   UNL     1      36.220 -23.771 -16.038  0.00  0.00    -0.453 OA
BRANCH  25  26
ATOM     26  C   UNL     1      36.494 -22.471 -16.527  0.00  0.00    +0.208 C 
BRANCH  26  27
ATOM     27  C   UNL     1      35.933 -22.359 -17.944  0.00  0.00    +0.044 C 
ATOM     28  C   UNL     1      34.399 -22.336 -17.919  0.00  0.00    +0.004 C 
ATOM     29  C   UNL     1      36.487 -21.114 -18.649  0.00  0.00    +0.004 C 
ATOM     30  C   UNL     1      33.815 -22.171 -19.321  0.00  0.00    +0.000 C 
ATOM     31  C   UNL     1      35.899 -20.951 -20.049  0.00  0.00    +0.000 C 
ATOM     32  C   UNL     1      34.374 -20.938 -20.022  0.00  0.00    +0.000 C 
ENDBRANCH  26  27
ENDBRANCH  25  26
ENDBRANCH   6  25
TORSDOF 5
ENDMDL
MODEL 4
REMARK VINA RESULT:     -11.1      2.604      7.280
REMARK  Name = 447656
REMARK  5 active torsions:
REMARK  status: ('A' for Active; 'I' for Inactive)
REMARK    1  A    between atoms: N_5  and  C_14
REMARK    2  A    between atoms: C_6  and  O_25
REMARK    3  A    between atoms: C_17  and  C_22
REMARK    4  A    between atoms: O_25  and  C_26
REMARK    5  A    between atoms: C_26  and  C_27
REMARK                            x       y       z     vdW  Elec       q    Type
REMARK                         _______ _______ _______ _____ _____    ______ ____
ROOT
ATOM      1  N   UNL     1      35.527 -23.649 -15.729  0.00  0.00    -0.293 NA
ATOM      2  N   UNL     1      36.404 -25.610 -12.745  0.00  0.00    -0.266 NA
ATOM      3  N   UNL     1      37.912 -23.667 -15.213  0.00  0.00    -0.316 NA
ATOM      4  N   UNL     1      38.480 -24.966 -13.238  0.00  0.00    -0.296 N 
ATOM      5  N   UNL     1      37.075 -22.497 -17.058  0.00  0.00    -0.238 N 
ATOM      6  C   UNL     1      35.247 -24.432 -14.667  0.00  0.00    +0.288 C 
ATOM      7  C   UNL     1      36.296 -24.840 -13.868  0.00  0.00    +0.215 C 
ATOM      8  C   UNL     1      37.598 -24.453 -14.154  0.00  0.00    +0.196 C 
ATOM      9  C   UNL     1      36.825 -23.319 -15.935  0.00  0.00    +0.207 C 
ATOM     10  C   UNL     1      37.729 -25.656 -12.406  0.00  0.00    +0.164 C 
ATOM     11  H   UNL     1      35.663 -26.050 -12.267  0.00  0.00    +0.126 HD
ATOM     12  H   UNL     1      39.456 -24.846 -13.210  0.00  0.00    +0.150 HD
ATOM     13  H   UNL     1      38.025 -22.274 -17.183  0.00  0.00    +0.166 HD
ENDROOT
BRANCH   5  14
ATOM     14  C   UNL     1      36.230 -21.937 -18.033  0.00  0.00    +0.058 C 
ATOM     15  C   UNL     1      36.746 -21.054 -18.985  0.00  0.00    +0.015 C 
ATOM     16  C   UNL     1      34.871 -22.259 -18.053  0.00  0.00    +0.015 C 
ATOM     17  C   UNL     1      34.553 -20.822 -19.970  0.00  0.00    +0.053 C 
ATOM     18  C   UNL     1      35.909 -20.498 -19.952  0.00  0.00    +0.006 C 
ATOM     19  C   UNL     1      34.033 -21.703 -19.021  0.00  0.00    +0.006 C 
BRANCH  17  22
ATOM     20  O   UNL     1      32.444 -20.377 -20.920  0.00  0.00    -0.270 OA
ATOM     21  N   UNL     1      34.271 -19.512 -22.004  0.00  0.00    -0.325 N 
ATOM     22  C   UNL     1      33.680 -20.243 -20.978  0.00  0.00    +0.243 C 
ATOM     23  H   UNL     1      33.711 -19.106 -22.705  0.00  0.00    +0.145 HD
ATOM     24  H   UNL     1      35.250 -19.403 -22.031  0.00  0.00    +0.145 HD
ENDBRANCH  17  22
ENDBRANCH   5  14
BRANCH   6  25
ATOM     25  O   UNL     1      33.941 -24.785 -14.429  0.00  0.00    -0.453 OA
BRANCH  25  26
ATOM     26  C   UNL     1      33.213 -23.980 -13.520  0.00  0.00    +0.208 C 
BRANCH  26  27
ATOM     27  C   UNL     1      31.803 -23.779 -14.074  0.00  0.00    +0.044 C 
ATOM     28  C   UNL     1      31.856 -23.227 -15.505  0.00  0.00    +0.004 C 
ATOM     29  C   UNL     1      31.010 -25.091 -14.024  0.00  0.00    +0.004 C 
ATOM     30  C   UNL     1      30.459 -23.067 -16.100  0.00  0.00    +0.000 C 
ATOM     31  C   UNL     1      29.614 -24.929 -14.622  0.00  0.00    +0.000 C 
ATOM     32  C   UNL     1      29.670 -24.371 -16.040  0.00  0.00    +0.000 C 
ENDBRANCH  26  27
ENDBRANCH  25  26
ENDBRANCH   6  25
TORSDOF 5
ENDMDL
MODEL 5
REMARK VINA RESULT:     -10.7      2.509      7.074
REMARK  Name = 447656
REMARK  5 active torsions:
REMARK  status: ('A' for Active; 'I' for Inactive)
REMARK    1  A    between atoms: N_5  and  C_14
REMARK    2  A    between atoms: C_6  and  O_25
REMARK    3  A    between atoms: C_17  and  C_22
REMARK    4  A    between atoms: O_25  and  C_26
REMARK    5  A    between atoms: C_26  and  C_27
REMARK                            x       y       z     vdW  Elec       q    Type
REMARK                         _______ _______ _______ _____ _____    ______ ____
ROOT
ATOM      1  N   UNL     1      33.722 -22.774 -16.392  0.00  0.00    -0.293 NA
ATOM      2  N   UNL     1      32.584 -24.694 -13.470  0.00  0.00    -0.266 NA
ATOM      3  N   UNL     1      31.477 -23.700 -16.620  0.00  0.00    -0.316 NA
ATOM      4  N   UNL     1      30.735 -24.968 -14.683  0.00  0.00    -0.296 N 
ATOM      5  N   UNL     1      32.451 -22.435 -18.330  0.00  0.00    -0.238 N 
ATOM      6  C   UNL     1      33.860 -23.300 -15.157  0.00  0.00    +0.288 C 
ATOM      7  C   UNL     1      32.809 -24.030 -14.642  0.00  0.00    +0.215 C 
ATOM      8  C   UNL     1      31.646 -24.215 -15.378  0.00  0.00    +0.196 C 
ATOM      9  C   UNL     1      32.555 -23.003 -17.040  0.00  0.00    +0.207 C 
ATOM     10  C   UNL     1      31.330 -25.239 -13.541  0.00  0.00    +0.164 C 
ATOM     11  H   UNL     1      33.210 -24.768 -12.713  0.00  0.00    +0.126 HD
ATOM     12  H   UNL     1      29.835 -25.244 -14.973  0.00  0.00    +0.150 HD
ATOM     13  H   UNL     1      31.593 -22.617 -18.776  0.00  0.00    +0.166 HD
ENDROOT
BRANCH   5  14
ATOM     14  C   UNL     1      33.335 -21.660 -19.101  0.00  0.00    +0.058 C 
ATOM     15  C   UNL     1      34.702 -21.948 -19.104  0.00  0.00    +0.015 C 
ATOM     16  C   UNL     1      32.851 -20.597 -19.868  0.00  0.00    +0.015 C 
ATOM     17  C   UNL     1      35.093 -20.120 -20.633  0.00  0.00    +0.053 C 
ATOM     18  C   UNL     1      35.580 -21.180 -19.869  0.00  0.00    +0.006 C 
ATOM     19  C   UNL     1      33.729 -19.828 -20.634  0.00  0.00    +0.006 C 
BRANCH  17  22
ATOM     20  O   UNL     1      37.184 -19.131 -21.075  0.00  0.00    -0.270 OA
ATOM     21  N   UNL     1      35.528 -18.784 -22.623  0.00  0.00    -0.325 N 
ATOM     22  C   UNL     1      36.007 -19.319 -21.431  0.00  0.00    +0.243 C 
ATOM     23  H   UNL     1      36.118 -18.235 -23.189  0.00  0.00    +0.145 HD
ATOM     24  H   UNL     1      34.597 -18.951 -22.900  0.00  0.00    +0.145 HD
ENDBRANCH  17  22
ENDBRANCH   5  14
BRANCH   6  25
ATOM     25  O   UNL     1      35.032 -23.088 -14.473  0.00  0.00    -0.453 OA
BRANCH  25  26
ATOM     26  C   UNL     1      36.214 -22.966 -15.243  0.00  0.00    +0.208 C 
BRANCH  26  27
ATOM     27  C   UNL     1      37.337 -23.715 -14.528  0.00  0.00    +0.044 C 
ATOM     28  C   UNL     1      37.240 -23.517 -13.010  0.00  0.00    +0.004 C 
ATOM     29  C   UNL     1      37.309 -25.206 -14.887  0.00  0.00    +0.004 C 
ATOM     30  C   UNL     1      38.322 -24.299 -12.268  0.00  0.00    +0.000 C 
ATOM     31  C   UNL     1      38.389 -25.986 -14.142  0.00  0.00    +0.000 C 
ATOM     32  C   UNL     1      38.296 -25.779 -12.634  0.00  0.00    +0.000 C 
ENDBRANCH  26  27
ENDBRANCH  25  26
ENDBRANCH   6  25
TORSDOF 5
ENDMDL
MODEL 6
REMARK VINA RESULT:     -10.4      7.510     11.114
REMARK  Name = 447656
REMARK  5 active torsions:
REMARK  status: ('A' for Active; 'I' for Inactive)
REMARK    1  A    between atoms: N_5  and  C_14
REMARK    2  A    between atoms: C_6  and  O_25
REMARK    3  A    between atoms: C_17  and  C_22
REMARK    4  A    between atoms: O_25  and  C_26
REMARK    5  A    between atoms: C_26  and  C_27
REMARK                            x       y       z     vdW  Elec       q    Type
REMARK                         _______ _______ _______ _____ _____    ______ ____
ROOT
ATOM      1  N   UNL     1      34.149 -15.742 -23.425  0.00  0.00    -0.293 NA
ATOM      2  N   UNL     1      33.080 -12.890 -25.486  0.00  0.00    -0.266 NA
ATOM      3  N   UNL     1      34.131 -16.195 -25.822  0.00  0.00    -0.316 NA
ATOM      4  N   UNL     1      33.422 -14.304 -27.175  0.00  0.00    -0.296 N 
ATOM      5  N   UNL     1      34.770 -17.833 -24.279  0.00  0.00    -0.238 N 
ATOM      6  C   UNL     1      33.724 -14.475 -23.618  0.00  0.00    +0.288 C 
ATOM      7  C   UNL     1      33.499 -14.057 -24.913  0.00  0.00    +0.215 C 
ATOM      8  C   UNL     1      33.705 -14.919 -25.982  0.00  0.00    +0.196 C 
ATOM      9  C   UNL     1      34.324 -16.514 -24.524  0.00  0.00    +0.207 C 
ATOM     10  C   UNL     1      33.050 -13.086 -26.840  0.00  0.00    +0.164 C 
ATOM     11  H   UNL     1      32.843 -12.061 -25.011  0.00  0.00    +0.126 HD
ATOM     12  H   UNL     1      33.485 -14.687 -28.080  0.00  0.00    +0.150 HD
ATOM     13  H   UNL     1      34.889 -18.370 -25.095  0.00  0.00    +0.166 HD
ENDROOT
BRANCH   5  14
ATOM     14  C   UNL     1      35.077 -18.528 -23.095  0.00  0.00    +0.058 C 
ATOM     15  C   UNL     1      34.112 -19.334 -22.484  0.00  0.00    +0.015 C 
ATOM     16  C   UNL     1      36.347 -18.416 -22.525  0.00  0.00    +0.015 C 
ATOM     17  C   UNL     1      35.686 -19.909 -20.744  0.00  0.00    +0.053 C 
ATOM     18  C   UNL     1      34.416 -20.024 -21.311  0.00  0.00    +0.006 C 
ATOM     19  C   UNL     1      36.652 -19.106 -21.351  0.00  0.00    +0.006 C 
BRANCH  17  22
ATOM     20  O   UNL     1      36.954 -20.286 -18.795  0.00  0.00    -0.270 OA
ATOM     21  N   UNL     1      35.194 -21.707 -19.176  0.00  0.00    -0.325 N 
ATOM     22  C   UNL     1      36.003 -20.629 -19.522  0.00  0.00    +0.243 C 
ATOM     23  H   UNL     1      35.379 -22.219 -18.355  0.00  0.00    +0.145 HD
ATOM     24  H   UNL     1      34.437 -21.960 -19.753  0.00  0.00    +0.145 HD
ENDBRANCH  17  22
ENDBRANCH   5  14
BRANCH   6  25
ATOM     25  O   UNL     1      33.536 -13.666 -22.524  0.00  0.00    -0.453 OA
BRANCH  25  26
ATOM     26  C   UNL     1      32.359 -13.875 -21.765  0.00  0.00    +0.208 C 
BRANCH  26  27
ATOM     27  C   UNL     1      31.703 -12.520 -21.506  0.00  0.00    +0.044 C 
ATOM     28  C   UNL     1      31.909 -12.088 -20.047  0.00  0.00    +0.004 C 
ATOM     29  C   UNL     1      32.248 -11.460 -22.471  0.00  0.00    +0.004 C 
ATOM     30  C   UNL     1      31.307 -10.711 -19.777  0.00  0.00    +0.000 C 
ATOM     31  C   UNL     1      31.647 -10.084 -22.196  0.00  0.00    +0.000 C 
ATOM     32  C   UNL     1      31.844  -9.662 -20.744  0.00  0.00    +0.000 C 
ENDBRANCH  26  27
ENDBRANCH  25  26
ENDBRANCH   6  25
TORSDOF 5
ENDMDL
MODEL 7
REMARK VINA RESULT:     -10.0      6.777     10.027
REMARK  Name = 447656
REMARK  5 active torsions:
REMARK  status: ('A' for Active; 'I' for Inactive)
REMARK    1  A    between atoms: N_5  and  C_14
REMARK    2  A    between atoms: C_6  and  O_25
REMARK    3  A    between atoms: C_17  and  C_22
REMARK    4  A    between atoms: O_25  and  C_26
REMARK    5  A    between atoms: C_26  and  C_27
REMARK                            x       y       z     vdW  Elec       q    Type
REMARK                         _______ _______ _______ _____ _____    ______ ____
ROOT
ATOM      1  N   UNL     1      34.314 -16.657 -22.308  0.00  0.00    -0.293 NA
ATOM      2  N   UNL     1      33.195 -13.873 -24.433  0.00  0.00    -0.266 NA
ATOM      3  N   UNL     1      34.321 -17.160 -24.695  0.00  0.00    -0.316 NA
ATOM      4  N   UNL     1      33.579 -15.313 -26.090  0.00  0.00    -0.296 N 
ATOM      5  N   UNL     1      34.985 -18.751 -23.114  0.00  0.00    -0.238 N 
ATOM      6  C   UNL     1      33.863 -15.404 -22.529  0.00  0.00    +0.288 C 
ATOM      7  C   UNL     1      33.636 -15.018 -23.834  0.00  0.00    +0.215 C 
ATOM      8  C   UNL     1      33.868 -15.897 -24.884  0.00  0.00    +0.196 C 
ATOM      9  C   UNL     1      34.513 -17.448 -23.389  0.00  0.00    +0.207 C 
ATOM     10  C   UNL     1      33.178 -14.097 -25.784  0.00  0.00    +0.164 C 
ATOM     11  H   UNL     1      32.937 -13.039 -23.977  0.00  0.00    +0.126 HD
ATOM     12  H   UNL     1      33.656 -15.713 -26.987  0.00  0.00    +0.150 HD
ATOM     13  H   UNL     1      35.121 -19.302 -23.918  0.00  0.00    +0.166 HD
ENDROOT
BRANCH   5  14
ATOM     14  C   UNL     1      35.300 -19.415 -21.915  0.00  0.00    +0.058 C 
ATOM     15  C   UNL     1      34.327 -20.170 -21.254  0.00  0.00    +0.015 C 
ATOM     16  C   UNL     1      36.586 -19.322 -21.378  0.00  0.00    +0.015 C 
ATOM     17  C   UNL     1      35.924 -20.733 -19.532  0.00  0.00    +0.053 C 
ATOM     18  C   UNL     1      34.639 -20.828 -20.065  0.00  0.00    +0.006 C 
ATOM     19  C   UNL     1      36.899 -19.981 -20.188  0.00  0.00    +0.006 C 
BRANCH  17  22
ATOM     20  O   UNL     1      35.753 -22.527 -18.014  0.00  0.00    -0.270 OA
ATOM     21  N   UNL     1      37.155 -20.808 -17.431  0.00  0.00    -0.325 N 
ATOM     22  C   UNL     1      36.250 -21.420 -18.293  0.00  0.00    +0.243 C 
ATOM     23  H   UNL     1      37.399 -21.243 -16.582  0.00  0.00    +0.145 HD
ATOM     24  H   UNL     1      37.550 -19.938 -17.669  0.00  0.00    +0.145 HD
ENDBRANCH  17  22
ENDBRANCH   5  14
BRANCH   6  25
ATOM     25  O   UNL     1      33.649 -14.577 -21.454  0.00  0.00    -0.453 OA
BRANCH  25  26
ATOM     26  C   UNL     1      32.339 -14.069 -21.283  0.00  0.00    +0.208 C 
BRANCH  26  27
ATOM     27  C   UNL     1      32.432 -12.567 -21.019  0.00  0.00    +0.044 C 
ATOM     28  C   UNL     1      31.736 -11.777 -22.136  0.00  0.00    +0.004 C 
ATOM     29  C   UNL     1      31.834 -12.219 -19.650  0.00  0.00    +0.004 C 
ATOM     30  C   UNL     1      31.769 -10.274 -21.867  0.00  0.00    +0.000 C 
ATOM     31  C   UNL     1      31.867 -10.716 -19.386  0.00  0.00    +0.000 C 
ATOM     32  C   UNL     1      31.183  -9.933 -20.502  0.00  0.00    +0.000 C 
ENDBRANCH  26  27
ENDBRANCH  25  26
ENDBRANCH   6  25
TORSDOF 5
ENDMDL
MODEL 8
REMARK VINA RESULT:      -9.7      2.968      7.646
REMARK  Name = 447656
REMARK  5 active torsions:
REMARK  status: ('A' for Active; 'I' for Inactive)
REMARK    1  A    between atoms: N_5  and  C_14
REMARK    2  A    between atoms: C_6  and  O_25
REMARK    3  A    between atoms: C_17  and  C_22
REMARK    4  A    between atoms: O_25  and  C_26
REMARK    5  A    between atoms: C_26  and  C_27
REMARK                            x       y       z     vdW  Elec       q    Type
REMARK                         _______ _______ _______ _____ _____    ______ ____
ROOT
ATOM      1  N   UNL     1      34.815 -22.408 -17.850  0.00  0.00    -0.293 NA
ATOM      2  N   UNL     1      34.565 -24.637 -14.936  0.00  0.00    -0.266 NA
ATOM      3  N   UNL     1      36.864 -22.565 -16.536  0.00  0.00    -0.316 NA
ATOM      4  N   UNL     1      36.688 -24.040 -14.612  0.00  0.00    -0.296 N 
ATOM      5  N   UNL     1      36.742 -21.217 -18.445  0.00  0.00    -0.238 N 
ATOM      6  C   UNL     1      34.171 -23.263 -17.027  0.00  0.00    +0.288 C 
ATOM      7  C   UNL     1      34.867 -23.776 -15.952  0.00  0.00    +0.215 C 
ATOM      8  C   UNL     1      36.190 -23.420 -15.729  0.00  0.00    +0.196 C 
ATOM      9  C   UNL     1      36.104 -22.116 -17.558  0.00  0.00    +0.207 C 
ATOM     10  C   UNL     1      35.686 -24.764 -14.160  0.00  0.00    +0.164 C 
ATOM     11  H   UNL     1      33.700 -25.084 -14.788  0.00  0.00    +0.126 HD
ATOM     12  H   UNL     1      37.593 -23.962 -14.233  0.00  0.00    +0.150 HD
ATOM     13  H   UNL     1      37.678 -21.024 -18.209  0.00  0.00    +0.166 HD
ENDROOT
BRANCH   5  14
ATOM     14  C   UNL     1      36.300 -20.546 -19.599  0.00  0.00    +0.058 C 
ATOM     15  C   UNL     1      35.007 -20.761 -20.084  0.00  0.00    +0.015 C 
ATOM     16  C   UNL     1      37.151 -19.663 -20.266  0.00  0.00    +0.015 C 
ATOM     17  C   UNL     1      35.420 -19.214 -21.892  0.00  0.00    +0.053 C 
ATOM     18  C   UNL     1      34.567 -20.095 -21.228  0.00  0.00    +0.006 C 
ATOM     19  C   UNL     1      36.712 -18.997 -21.411  0.00  0.00    +0.006 C 
BRANCH  17  22
ATOM     20  O   UNL     1      34.149 -19.042 -23.867  0.00  0.00    -0.270 OA
ATOM     21  N   UNL     1      35.451 -17.236 -23.314  0.00  0.00    -0.325 N 
ATOM     22  C   UNL     1      34.963 -18.519 -23.084  0.00  0.00    +0.243 C 
ATOM     23  H   UNL     1      35.164 -16.736 -24.112  0.00  0.00    +0.145 HD
ATOM     24  H   UNL     1      36.085 -16.829 -22.680  0.00  0.00    +0.145 HD
ENDBRANCH  17  22
ENDBRANCH   5  14
BRANCH   6  25
ATOM     25  O   UNL     1      32.861 -23.581 -17.294  0.00  0.00    -0.453 OA
BRANCH  25  26
ATOM     26  C   UNL     1      31.886 -22.605 -16.976  0.00  0.00    +0.208 C 
BRANCH  26  27
ATOM     27  C   UNL     1      31.034 -23.130 -15.821  0.00  0.00    +0.044 C 
ATOM     28  C   UNL     1      30.845 -24.649 -15.934  0.00  0.00    +0.004 C 
ATOM     29  C   UNL     1      31.661 -22.757 -14.472  0.00  0.00    +0.004 C 
ATOM     30  C   UNL     1      30.041 -25.206 -14.761  0.00  0.00    +0.000 C 
ATOM     31  C   UNL     1      30.857 -23.318 -13.302  0.00  0.00    +0.000 C 
ATOM     32  C   UNL     1      30.663 -24.826 -13.422  0.00  0.00    +0.000 C 
ENDBRANCH  26  27
ENDBRANCH  25  26
ENDBRANCH   6  25
TORSDOF 5
ENDMDL
MODEL 9
REMARK VINA RESULT:      -9.5      9.602     14.547
REMARK  Name = 447656
REMARK  5 active torsions:
REMARK  status: ('A' for Active; 'I' for Inactive)
REMARK    1  A    between atoms: N_5  and  C_14
REMARK    2  A    between atoms: C_6  and  O_25
REMARK    3  A    between atoms: C_17  and  C_22
REMARK    4  A    between atoms: O_25  and  C_26
REMARK    5  A    between atoms: C_26  and  C_27
REMARK                            x       y       z     vdW  Elec       q    Type
REMARK                         _______ _______ _______ _____ _____    ______ ____
ROOT
ATOM      1  N   UNL     1      33.278 -12.785 -23.085  0.00  0.00    -0.293 NA
ATOM      2  N   UNL     1      33.690 -16.205 -24.371  0.00  0.00    -0.266 NA
ATOM      3  N   UNL     1      33.438 -12.924 -25.515  0.00  0.00    -0.316 NA
ATOM      4  N   UNL     1      33.711 -15.189 -26.354  0.00  0.00    -0.296 N 
ATOM      5  N   UNL     1      33.171 -10.869 -24.428  0.00  0.00    -0.238 N 
ATOM      6  C   UNL     1      33.400 -14.123 -22.957  0.00  0.00    +0.288 C 
ATOM      7  C   UNL     1      33.543 -14.874 -24.106  0.00  0.00    +0.215 C 
ATOM      8  C   UNL     1      33.559 -14.264 -25.354  0.00  0.00    +0.196 C 
ATOM      9  C   UNL     1      33.303 -12.274 -24.339  0.00  0.00    +0.207 C 
ATOM     10  C   UNL     1      33.786 -16.345 -25.729  0.00  0.00    +0.164 C 
ATOM     11  H   UNL     1      33.721 -16.931 -23.706  0.00  0.00    +0.126 HD
ATOM     12  H   UNL     1      33.753 -15.026 -27.324  0.00  0.00    +0.150 HD
ATOM     13  H   UNL     1      33.193 -10.527 -25.351  0.00  0.00    +0.166 HD
ENDROOT
BRANCH   5  14
ATOM     14  C   UNL     1      33.014  -9.866 -23.456  0.00  0.00    +0.058 C 
ATOM     15  C   UNL     1      32.020  -9.982 -22.481  0.00  0.00    +0.015 C 
ATOM     16  C   UNL     1      33.852  -8.748 -23.461  0.00  0.00    +0.015 C 
ATOM     17  C   UNL     1      32.703  -7.871 -21.524  0.00  0.00    +0.053 C 
ATOM     18  C   UNL     1      31.865  -8.987 -21.516  0.00  0.00    +0.006 C 
ATOM     19  C   UNL     1      33.697  -7.752 -22.495  0.00  0.00    +0.006 C 
BRANCH  17  22
ATOM     20  O   UNL     1      32.977  -6.979 -19.362  0.00  0.00    -0.270 OA
ATOM     21  N   UNL     1      31.898  -5.659 -20.896  0.00  0.00    -0.325 N 
ATOM     22  C   UNL     1      32.541  -6.834 -20.518  0.00  0.00    +0.243 C 
ATOM     23  H   UNL     1      31.770  -4.935 -20.241  0.00  0.00    +0.145 HD
ATOM     24  H   UNL     1      31.569  -5.553 -21.818  0.00  0.00    +0.145 HD
ENDBRANCH  17  22
ENDBRANCH   5  14
BRANCH   6  25
ATOM     25  O   UNL     1      33.379 -14.674 -21.699  0.00  0.00    -0.453 OA
BRANCH  25  26
ATOM     26  C   UNL     1      34.631 -14.952 -21.098  0.00  0.00    +0.208 C 
BRANCH  26  27
ATOM     27  C   UNL     1      34.780 -16.467 -20.970  0.00  0.00    +0.044 C 
ATOM     28  C   UNL     1      33.407 -17.151 -20.989  0.00  0.00    +0.004 C 
ATOM     29  C   UNL     1      35.681 -17.019 -22.083  0.00  0.00    +0.004 C 
ATOM     30  C   UNL     1      33.533 -18.671 -20.916  0.00  0.00    +0.000 C 
ATOM     31  C   UNL     1      35.802 -18.539 -22.008  0.00  0.00    +0.000 C 
ATOM     32  C   UNL     1      34.435 -19.215 -22.018  0.00  0.00    +0.000 C 
ENDBRANCH  26  27
ENDBRANCH  25  26
ENDBRANCH   6  25
TORSDOF 5
ENDMDL
