MODEL 1
REMARK VINA RESULT:      -9.9      0.000      0.000
REMARK  Name = 17925
REMARK  1 active torsions:
REMARK  status: ('A' for Active; 'I' for Inactive)
REMARK    1  A    between atoms: C_6  and  C_16
REMARK                            x       y       z     vdW  Elec       q    Type
REMARK                         _______ _______ _______ _____ _____    ______ ____
ROOT
ATOM      1 CL   UNL     1      31.049  -5.276 -24.993  0.00  0.00    -0.082 Cl
ATOM      2  O   UNL     1      32.365  -9.995 -18.569  0.00  0.00    -0.273 OA
ATOM      3  N   UNL     1      32.226  -8.174 -19.952  0.00  0.00    -0.282 N 
ATOM      4  N   UNL     1      32.196 -10.582 -21.775  0.00  0.00    -0.260 NA
ATOM      5  C   UNL     1      32.029  -8.208 -22.435  0.00  0.00    +0.032 C 
ATOM      6  C   UNL     1      32.505  -9.618 -22.574  0.00  0.00    +0.079 C 
ATOM      7  C   UNL     1      32.003  -7.547 -21.195  0.00  0.00    +0.052 C 
ATOM      8  C   UNL     1      31.711  -7.499 -23.605  0.00  0.00    +0.014 C 
ATOM      9  C   UNL     1      31.292 -10.321 -20.676  0.00  0.00    +0.210 C 
ATOM     10  C   UNL     1      31.762  -6.165 -21.163  0.00  0.00    +0.016 C 
ATOM     11  C   UNL     1      32.030  -9.504 -19.649  0.00  0.00    +0.251 C 
ATOM     12  C   UNL     1      31.425  -6.135 -23.551  0.00  0.00    +0.058 C 
ATOM     13  C   UNL     1      31.468  -5.465 -22.333  0.00  0.00    +0.013 C 
ATOM     14  H   UNL     1      32.558  -7.601 -19.224  0.00  0.00    +0.155 HD
ENDROOT
BRANCH   6  16
ATOM     15 CL   UNL     1      34.866  -7.702 -23.114  0.00  0.00    -0.082 Cl
ATOM     16  C   UNL     1      33.435  -9.953 -23.691  0.00  0.00    +0.028 C 
ATOM     17  C   UNL     1      34.523  -9.143 -24.001  0.00  0.00    +0.059 C 
ATOM     18  C   UNL     1      33.182 -11.108 -24.422  0.00  0.00    +0.002 C 
ATOM     19  C   UNL     1      35.367  -9.494 -25.054  0.00  0.00    +0.011 C 
ATOM     20  C   UNL     1      34.026 -11.459 -25.475  0.00  0.00    +0.000 C 
ATOM     21  C   UNL     1      35.119 -10.652 -25.792  0.00  0.00    +0.001 C 
ENDBRANCH   6  16
TORSDOF 1
ENDMDL
MODEL 2
REMARK VINA RESULT:      -9.6     14.383     16.078
REMARK  Name = 17925
REMARK  1 active torsions:
REMARK  status: ('A' for Active; 'I' for Inactive)
REMARK    1  A    between atoms: C_6  and  C_16
REMARK                            x       y       z     vdW  Elec       q    Type
REMARK                         _______ _______ _______ _____ _____    ______ ____
ROOT
ATOM      1 CL   UNL     1      29.392 -23.065 -16.695  0.00  0.00    -0.082 Cl
ATOM      2  O   UNL     1      36.404 -24.197 -12.846  0.00  0.00    -0.273 OA
ATOM      3  N   UNL     1      34.273 -23.528 -13.355  0.00  0.00    -0.282 N 
ATOM      4  N   UNL     1      35.552 -24.244 -15.996  0.00  0.00    -0.260 NA
ATOM      5  C   UNL     1      33.236 -23.474 -15.619  0.00  0.00    +0.032 C 
ATOM      6  C   UNL     1      34.539 -23.529 -16.349  0.00  0.00    +0.079 C 
ATOM      7  C   UNL     1      33.168 -23.383 -14.219  0.00  0.00    +0.052 C 
ATOM      8  C   UNL     1      32.056 -23.394 -16.377  0.00  0.00    +0.014 C 
ATOM      9  C   UNL     1      35.437 -25.098 -14.833  0.00  0.00    +0.210 C 
ATOM     10  C   UNL     1      31.933 -23.110 -13.611  0.00  0.00    +0.016 C 
ATOM     11  C   UNL     1      35.436 -24.221 -13.609  0.00  0.00    +0.251 C 
ATOM     12  C   UNL     1      30.829 -23.172 -15.754  0.00  0.00    +0.058 C 
ATOM     13  C   UNL     1      30.769 -23.011 -14.374  0.00  0.00    +0.013 C 
ATOM     14  H   UNL     1      34.207 -23.086 -12.478  0.00  0.00    +0.155 HD
ENDROOT
BRANCH   6  16
ATOM     15 CL   UNL     1      37.299 -22.220 -16.803  0.00  0.00    -0.082 Cl
ATOM     16  C   UNL     1      34.718 -22.676 -17.560  0.00  0.00    +0.028 C 
ATOM     17  C   UNL     1      35.928 -22.050 -17.839  0.00  0.00    +0.059 C 
ATOM     18  C   UNL     1      33.629 -22.521 -18.411  0.00  0.00    +0.002 C 
ATOM     19  C   UNL     1      36.051 -21.260 -18.982  0.00  0.00    +0.011 C 
ATOM     20  C   UNL     1      33.751 -21.732 -19.554  0.00  0.00    +0.000 C 
ATOM     21  C   UNL     1      34.962 -21.102 -19.840  0.00  0.00    +0.001 C 
ENDBRANCH   6  16
TORSDOF 1
ENDMDL
MODEL 3
REMARK VINA RESULT:      -9.4     15.464     17.317
REMARK  Name = 17925
REMARK  1 active torsions:
REMARK  status: ('A' for Active; 'I' for Inactive)
REMARK    1  A    between atoms: C_6  and  C_16
REMARK                            x       y       z     vdW  Elec       q    Type
REMARK                         _______ _______ _______ _____ _____    ______ ____
ROOT
ATOM      1 CL   UNL     1      31.171 -23.804 -13.953  0.00  0.00    -0.082 Cl
ATOM      2  O   UNL     1      36.976 -21.695 -19.162  0.00  0.00    -0.273 OA
ATOM      3  N   UNL     1      35.001 -22.446 -18.275  0.00  0.00    -0.282 N 
ATOM      4  N   UNL     1      37.008 -22.586 -16.022  0.00  0.00    -0.260 NA
ATOM      5  C   UNL     1      34.608 -23.162 -15.923  0.00  0.00    +0.032 C 
ATOM      6  C   UNL     1      36.057 -23.356 -15.612  0.00  0.00    +0.079 C 
ATOM      7  C   UNL     1      34.159 -22.824 -17.210  0.00  0.00    +0.052 C 
ATOM      8  C   UNL     1      33.672 -23.445 -14.914  0.00  0.00    +0.014 C 
ATOM      9  C   UNL     1      36.675 -21.419 -16.810  0.00  0.00    +0.210 C 
ATOM     10  C   UNL     1      32.785 -22.877 -17.490  0.00  0.00    +0.016 C 
ATOM     11  C   UNL     1      36.256 -21.884 -18.179  0.00  0.00    +0.251 C 
ATOM     12  C   UNL     1      32.307 -23.445 -15.196  0.00  0.00    +0.058 C 
ATOM     13  C   UNL     1      31.864 -23.179 -16.486  0.00  0.00    +0.013 C 
ATOM     14  H   UNL     1      34.657 -22.600 -19.185  0.00  0.00    +0.155 HD
ENDROOT
BRANCH   6  16
ATOM     15 CL   UNL     1      36.835 -22.884 -12.661  0.00  0.00    -0.082 Cl
ATOM     16  C   UNL     1      36.464 -24.538 -14.799  0.00  0.00    +0.028 C 
ATOM     17  C   UNL     1      36.829 -24.413 -13.463  0.00  0.00    +0.059 C 
ATOM     18  C   UNL     1      36.468 -25.782 -15.420  0.00  0.00    +0.002 C 
ATOM     19  C   UNL     1      37.202 -25.545 -12.740  0.00  0.00    +0.011 C 
ATOM     20  C   UNL     1      36.841 -26.915 -14.697  0.00  0.00    +0.000 C 
ATOM     21  C   UNL     1      37.208 -26.797 -13.357  0.00  0.00    +0.001 C 
ENDBRANCH   6  16
TORSDOF 1
ENDMDL
MODEL 4
REMARK VINA RESULT:      -9.1      1.798      4.337
REMARK  Name = 17925
REMARK  1 active torsions:
REMARK  status: ('A' for Active; 'I' for Inactive)
REMARK    1  A    between atoms: C_6  and  C_16
REMARK                            x       y       z     vdW  Elec       q    Type
REMARK                         _______ _______ _______ _____ _____    ______ ____
ROOT
ATOM      1 CL   UNL     1      34.648 -11.767 -25.772  0.00  0.00    -0.082 Cl
ATOM      2  O   UNL     1      30.412 -10.492 -19.013  0.00  0.00    -0.273 OA
ATOM      3  N   UNL     1      31.160 -11.374 -20.990  0.00  0.00    -0.282 N 
ATOM      4  N   UNL     1      32.262  -8.564 -20.887  0.00  0.00    -0.260 NA
ATOM      5  C   UNL     1      32.627 -10.247 -22.657  0.00  0.00    +0.032 C 
ATOM      6  C   UNL     1      32.367  -8.870 -22.135  0.00  0.00    +0.079 C 
ATOM      7  C   UNL     1      31.967 -11.377 -22.146  0.00  0.00    +0.052 C 
ATOM      8  C   UNL     1      33.473 -10.383 -23.771  0.00  0.00    +0.014 C 
ATOM      9  C   UNL     1      32.444  -9.599 -19.892  0.00  0.00    +0.210 C 
ATOM     10  C   UNL     1      32.085 -12.601 -22.822  0.00  0.00    +0.016 C 
ATOM     11  C   UNL     1      31.237 -10.498 -19.929  0.00  0.00    +0.251 C 
ATOM     12  C   UNL     1      33.618 -11.617 -24.402  0.00  0.00    +0.058 C 
ATOM     13  C   UNL     1      32.911 -12.721 -23.940  0.00  0.00    +0.013 C 
ATOM     14  H   UNL     1      30.467 -12.071 -20.936  0.00  0.00    +0.155 HD
ENDROOT
BRANCH   6  16
ATOM     15 CL   UNL     1      34.885  -7.442 -23.210  0.00  0.00    -0.082 Cl
ATOM     16  C   UNL     1      32.177  -7.759 -23.111  0.00  0.00    +0.028 C 
ATOM     17  C   UNL     1      33.257  -7.063 -23.644  0.00  0.00    +0.059 C 
ATOM     18  C   UNL     1      30.876  -7.432 -23.477  0.00  0.00    +0.002 C 
ATOM     19  C   UNL     1      33.034  -6.030 -24.553  0.00  0.00    +0.011 C 
ATOM     20  C   UNL     1      30.652  -6.399 -24.386  0.00  0.00    +0.000 C 
ATOM     21  C   UNL     1      31.731  -5.698 -24.925  0.00  0.00    +0.001 C 
ENDBRANCH   6  16
TORSDOF 1
ENDMDL
MODEL 5
REMARK VINA RESULT:      -8.6      3.285      4.776
REMARK  Name = 17925
REMARK  1 active torsions:
REMARK  status: ('A' for Active; 'I' for Inactive)
REMARK    1  A    between atoms: C_6  and  C_16
REMARK                            x       y       z     vdW  Elec       q    Type
REMARK                         _______ _______ _______ _____ _____    ______ ____
ROOT
ATOM      1 CL   UNL     1      35.709 -10.787 -27.013  0.00  0.00    -0.082 Cl
ATOM      2  O   UNL     1      31.159 -10.019 -20.382  0.00  0.00    -0.273 OA
ATOM      3  N   UNL     1      32.798  -9.724 -21.955  0.00  0.00    -0.282 N 
ATOM      4  N   UNL     1      31.660 -12.472 -22.475  0.00  0.00    -0.260 NA
ATOM      5  C   UNL     1      33.441 -11.329 -23.747  0.00  0.00    +0.032 C 
ATOM      6  C   UNL     1      32.791 -12.505 -23.094  0.00  0.00    +0.079 C 
ATOM      7  C   UNL     1      33.496 -10.068 -23.130  0.00  0.00    +0.052 C 
ATOM      8  C   UNL     1      34.115 -11.535 -24.963  0.00  0.00    +0.014 C 
ATOM      9  C   UNL     1      30.923 -11.228 -22.427  0.00  0.00    +0.210 C 
ATOM     10  C   UNL     1      34.310  -9.069 -23.688  0.00  0.00    +0.016 C 
ATOM     11  C   UNL     1      31.638 -10.299 -21.483  0.00  0.00    +0.251 C 
ATOM     12  C   UNL     1      34.880 -10.517 -25.530  0.00  0.00    +0.058 C 
ATOM     13  C   UNL     1      34.992  -9.291 -24.884  0.00  0.00    +0.013 C 
ATOM     14  H   UNL     1      33.180  -8.996 -21.413  0.00  0.00    +0.155 HD
ENDROOT
BRANCH   6  16
ATOM     15 CL   UNL     1      32.592 -14.214 -25.659  0.00  0.00    -0.082 Cl
ATOM     16  C   UNL     1      33.499 -13.818 -23.116  0.00  0.00    +0.028 C 
ATOM     17  C   UNL     1      33.460 -14.649 -24.231  0.00  0.00    +0.059 C 
ATOM     18  C   UNL     1      34.205 -14.193 -21.978  0.00  0.00    +0.002 C 
ATOM     19  C   UNL     1      34.136 -15.868 -24.207  0.00  0.00    +0.011 C 
ATOM     20  C   UNL     1      34.881 -15.412 -21.955  0.00  0.00    +0.000 C 
ATOM     21  C   UNL     1      34.847 -16.250 -23.069  0.00  0.00    +0.001 C 
ENDBRANCH   6  16
TORSDOF 1
ENDMDL
MODEL 6
REMARK VINA RESULT:      -8.5      2.681      5.295
REMARK  Name = 17925
REMARK  1 active torsions:
REMARK  status: ('A' for Active; 'I' for Inactive)
REMARK    1  A    between atoms: C_6  and  C_16
REMARK                            x       y       z     vdW  Elec       q    Type
REMARK                         _______ _______ _______ _____ _____    ______ ____
ROOT
ATOM      1 CL   UNL     1      34.218 -13.102 -24.568  0.00  0.00    -0.082 Cl
ATOM      2  O   UNL     1      32.621  -5.197 -24.103  0.00  0.00    -0.273 OA
ATOM      3  N   UNL     1      33.711  -7.195 -24.355  0.00  0.00    -0.282 N 
ATOM      4  N   UNL     1      31.147  -7.847 -22.898  0.00  0.00    -0.260 NA
ATOM      5  C   UNL     1      32.897  -9.432 -23.624  0.00  0.00    +0.032 C 
ATOM      6  C   UNL     1      31.880  -8.886 -22.675  0.00  0.00    +0.079 C 
ATOM      7  C   UNL     1      33.792  -8.602 -24.319  0.00  0.00    +0.052 C 
ATOM      8  C   UNL     1      33.025 -10.828 -23.725  0.00  0.00    +0.014 C 
ATOM      9  C   UNL     1      31.268  -7.162 -24.167  0.00  0.00    +0.210 C 
ATOM     10  C   UNL     1      34.862  -9.184 -25.017  0.00  0.00    +0.016 C 
ATOM     11  C   UNL     1      32.582  -6.426 -24.176  0.00  0.00    +0.251 C 
ATOM     12  C   UNL     1      34.065 -11.391 -24.463  0.00  0.00    +0.058 C 
ATOM     13  C   UNL     1      34.994 -10.571 -25.093  0.00  0.00    +0.013 C 
ATOM     14  H   UNL     1      34.551  -6.710 -24.526  0.00  0.00    +0.155 HD
ENDROOT
BRANCH   6  16
ATOM     15 CL   UNL     1      32.959  -7.437 -20.170  0.00  0.00    -0.082 Cl
ATOM     16  C   UNL     1      31.704  -9.552 -21.353  0.00  0.00    +0.028 C 
ATOM     17  C   UNL     1      32.160  -8.968 -20.176  0.00  0.00    +0.059 C 
ATOM     18  C   UNL     1      31.064 -10.786 -21.328  0.00  0.00    +0.002 C 
ATOM     19  C   UNL     1      31.975  -9.627 -18.960  0.00  0.00    +0.011 C 
ATOM     20  C   UNL     1      30.878 -11.445 -20.113  0.00  0.00    +0.000 C 
ATOM     21  C   UNL     1      31.334 -10.866 -18.929  0.00  0.00    +0.001 C 
ENDBRANCH   6  16
TORSDOF 1
ENDMDL
MODEL 7
REMARK VINA RESULT:      -8.3      1.900      4.538
REMARK  Name = 17925
REMARK  1 active torsions:
REMARK  status: ('A' for Active; 'I' for Inactive)
REMARK    1  A    between atoms: C_6  and  C_16
REMARK                            x       y       z     vdW  Elec       q    Type
REMARK                         _______ _______ _______ _____ _____    ______ ____
ROOT
ATOM      1 CL   UNL     1      35.650 -10.410 -26.207  0.00  0.00    -0.082 Cl
ATOM      2  O   UNL     1      31.093  -9.185 -19.650  0.00  0.00    -0.273 OA
ATOM      3  N   UNL     1      31.981 -10.093 -21.556  0.00  0.00    -0.282 N 
ATOM      4  N   UNL     1      32.833  -7.195 -21.564  0.00  0.00    -0.260 NA
ATOM      5  C   UNL     1      33.400  -8.924 -23.235  0.00  0.00    +0.032 C 
ATOM      6  C   UNL     1      33.006  -7.552 -22.792  0.00  0.00    +0.079 C 
ATOM      7  C   UNL     1      32.824 -10.081 -22.686  0.00  0.00    +0.052 C 
ATOM      8  C   UNL     1      34.293  -9.039 -24.315  0.00  0.00    +0.014 C 
ATOM      9  C   UNL     1      33.069  -8.161 -20.513  0.00  0.00    +0.210 C 
ATOM     10  C   UNL     1      33.069 -11.321 -23.295  0.00  0.00    +0.016 C 
ATOM     11  C   UNL     1      31.946  -9.164 -20.540  0.00  0.00    +0.251 C 
ATOM     12  C   UNL     1      34.564 -10.285 -24.878  0.00  0.00    +0.058 C 
ATOM     13  C   UNL     1      33.940 -11.423 -24.381  0.00  0.00    +0.013 C 
ATOM     14  H   UNL     1      31.350 -10.845 -21.487  0.00  0.00    +0.155 HD
ENDROOT
BRANCH   6  16
ATOM     15 CL   UNL     1      30.444  -5.846 -22.535  0.00  0.00    -0.082 Cl
ATOM     16  C   UNL     1      32.753  -6.510 -23.829  0.00  0.00    +0.028 C 
ATOM     17  C   UNL     1      31.624  -5.698 -23.787  0.00  0.00    +0.059 C 
ATOM     18  C   UNL     1      33.688  -6.369 -24.849  0.00  0.00    +0.002 C 
ATOM     19  C   UNL     1      31.428  -4.737 -24.778  0.00  0.00    +0.011 C 
ATOM     20  C   UNL     1      33.492  -5.408 -25.839  0.00  0.00    +0.000 C 
ATOM     21  C   UNL     1      32.362  -4.591 -25.804  0.00  0.00    +0.001 C 
ENDBRANCH   6  16
TORSDOF 1
ENDMDL
MODEL 8
REMARK VINA RESULT:      -8.2      4.690      6.439
REMARK  Name = 17925
REMARK  1 active torsions:
REMARK  status: ('A' for Active; 'I' for Inactive)
REMARK    1  A    between atoms: C_6  and  C_16
REMARK                            x       y       z     vdW  Elec       q    Type
REMARK                         _______ _______ _______ _____ _____    ______ ____
ROOT
ATOM      1 CL   UNL     1      31.581 -12.076 -20.024  0.00  0.00    -0.082 Cl
ATOM      2  O   UNL     1      34.441 -16.673 -26.020  0.00  0.00    -0.273 OA
ATOM      3  N   UNL     1      34.000 -15.817 -23.942  0.00  0.00    -0.282 N 
ATOM      4  N   UNL     1      33.347 -13.601 -25.888  0.00  0.00    -0.260 NA
ATOM      5  C   UNL     1      33.109 -13.548 -23.430  0.00  0.00    +0.032 C 
ATOM      6  C   UNL     1      33.462 -12.977 -24.765  0.00  0.00    +0.079 C 
ATOM      7  C   UNL     1      33.464 -14.856 -23.060  0.00  0.00    +0.052 C 
ATOM      8  C   UNL     1      32.506 -12.700 -22.486  0.00  0.00    +0.014 C 
ATOM      9  C   UNL     1      32.803 -14.942 -25.892  0.00  0.00    +0.210 C 
ATOM     10  C   UNL     1      33.305 -15.256 -21.724  0.00  0.00    +0.016 C 
ATOM     11  C   UNL     1      33.837 -15.867 -25.309  0.00  0.00    +0.251 C 
ATOM     12  C   UNL     1      32.310 -13.129 -21.174  0.00  0.00    +0.058 C 
ATOM     13  C   UNL     1      32.725 -14.399 -20.788  0.00  0.00    +0.013 C 
ATOM     14  H   UNL     1      34.549 -16.527 -23.538  0.00  0.00    +0.155 HD
ENDROOT
BRANCH   6  16
ATOM     15 CL   UNL     1      35.063 -12.177 -27.282  0.00  0.00    -0.082 Cl
ATOM     16  C   UNL     1      34.023 -11.596 -24.827  0.00  0.00    +0.028 C 
ATOM     17  C   UNL     1      34.756 -11.155 -25.924  0.00  0.00    +0.059 C 
ATOM     18  C   UNL     1      33.791 -10.752 -23.746  0.00  0.00    +0.002 C 
ATOM     19  C   UNL     1      35.263  -9.856 -25.940  0.00  0.00    +0.011 C 
ATOM     20  C   UNL     1      34.297  -9.453 -23.762  0.00  0.00    +0.000 C 
ATOM     21  C   UNL     1      35.033  -9.004 -24.858  0.00  0.00    +0.001 C 
ENDBRANCH   6  16
TORSDOF 1
ENDMDL
MODEL 9
REMARK VINA RESULT:      -8.1      8.669     10.713
REMARK  Name = 17925
REMARK  1 active torsions:
REMARK  status: ('A' for Active; 'I' for Inactive)
REMARK    1  A    between atoms: C_6  and  C_16
REMARK                            x       y       z     vdW  Elec       q    Type
REMARK                         _______ _______ _______ _____ _____    ______ ____
ROOT
ATOM      1 CL   UNL     1      34.450 -20.377 -25.902  0.00  0.00    -0.082 Cl
ATOM      2  O   UNL     1      34.354 -14.048 -20.882  0.00  0.00    -0.273 OA
ATOM      3  N   UNL     1      34.789 -15.415 -22.668  0.00  0.00    -0.282 N 
ATOM      4  N   UNL     1      33.840 -17.242 -20.458  0.00  0.00    -0.260 NA
ATOM      5  C   UNL     1      34.475 -17.884 -22.757  0.00  0.00    +0.032 C 
ATOM      6  C   UNL     1      34.426 -18.053 -21.273  0.00  0.00    +0.079 C 
ATOM      7  C   UNL     1      34.738 -16.642 -23.359  0.00  0.00    +0.052 C 
ATOM      8  C   UNL     1      34.367 -19.034 -23.558  0.00  0.00    +0.014 C 
ATOM      9  C   UNL     1      33.136 -16.097 -20.993  0.00  0.00    +0.210 C 
ATOM     10  C   UNL     1      34.992 -16.592 -24.739  0.00  0.00    +0.016 C 
ATOM     11  C   UNL     1      34.159 -15.107 -21.482  0.00  0.00    +0.251 C 
ATOM     12  C   UNL     1      34.574 -18.959 -24.934  0.00  0.00    +0.058 C 
ATOM     13  C   UNL     1      34.904 -17.743 -25.522  0.00  0.00    +0.013 C 
ATOM     14  H   UNL     1      35.332 -14.703 -23.075  0.00  0.00    +0.155 HD
ENDROOT
BRANCH   6  16
ATOM     15 CL   UNL     1      32.704 -20.381 -20.201  0.00  0.00    -0.082 Cl
ATOM     16  C   UNL     1      35.129 -19.218 -20.661  0.00  0.00    +0.028 C 
ATOM     17  C   UNL     1      34.428 -20.308 -20.155  0.00  0.00    +0.059 C 
ATOM     18  C   UNL     1      36.518 -19.184 -20.611  0.00  0.00    +0.002 C 
ATOM     19  C   UNL     1      35.126 -21.375 -19.591  0.00  0.00    +0.011 C 
ATOM     20  C   UNL     1      37.215 -20.252 -20.047  0.00  0.00    +0.000 C 
ATOM     21  C   UNL     1      36.520 -21.348 -19.537  0.00  0.00    +0.001 C 
ENDBRANCH   6  16
TORSDOF 1
ENDMDL
