MODEL 1
REMARK VINA RESULT:     -10.5      0.000      0.000
REMARK  Name = 9955116
REMARK  10 active torsions:
REMARK  status: ('A' for Active; 'I' for Inactive)
REMARK    1  A    between atoms: C_5  and  N_21
REMARK    2  A    between atoms: C_6  and  N_29
REMARK    3  A    between atoms: C_13  and  O_17
REMARK    4  A    between atoms: C_14  and  O_19
REMARK    5  A    between atoms: N_21  and  C_23
REMARK    6  A    between atoms: C_23  and  C_24
REMARK    7  A    between atoms: C_24  and  N_26
REMARK    8  A    between atoms: N_29  and  C_31
REMARK    9  A    between atoms: C_31  and  C_32
REMARK   10  A    between atoms: C_32  and  N_34
REMARK                            x       y       z     vdW  Elec       q    Type
REMARK                         _______ _______ _______ _____ _____    ______ ____
ROOT
ATOM      1  O   UNL     1      36.779 -22.993 -16.869  0.00  0.00    -0.286 OA
ATOM      2  O   UNL     1      33.254 -24.470 -13.136  0.00  0.00    -0.286 OA
ATOM      3  C   UNL     1      34.511 -23.208 -16.272  0.00  0.00    +0.056 C 
ATOM      4  C   UNL     1      33.590 -23.594 -15.296  0.00  0.00    +0.056 C 
ATOM      5  C   UNL     1      34.059 -22.703 -17.497  0.00  0.00    +0.048 C 
ATOM      6  C   UNL     1      32.217 -23.477 -15.547  0.00  0.00    +0.048 C 
ATOM      7  C   UNL     1      35.962 -23.327 -16.022  0.00  0.00    +0.200 C 
ATOM      8  C   UNL     1      34.052 -24.129 -13.999  0.00  0.00    +0.200 C 
ATOM      9  C   UNL     1      36.424 -23.861 -14.724  0.00  0.00    +0.079 C 
ATOM     10  C   UNL     1      35.503 -24.248 -13.749  0.00  0.00    +0.079 C 
ATOM     11  C   UNL     1      32.691 -22.587 -17.743  0.00  0.00    +0.016 C 
ATOM     12  C   UNL     1      31.772 -22.973 -16.769  0.00  0.00    +0.016 C 
ATOM     13  C   UNL     1      37.797 -23.980 -14.474  0.00  0.00    +0.137 C 
ATOM     14  C   UNL     1      35.954 -24.752 -12.523  0.00  0.00    +0.137 C 
ATOM     15  C   UNL     1      38.242 -24.483 -13.252  0.00  0.00    +0.040 C 
ATOM     16  C   UNL     1      37.322 -24.868 -12.278  0.00  0.00    +0.040 C 
ENDROOT
BRANCH  13  17
ATOM     17  O   UNL     1      38.752 -23.624 -15.380  0.00  0.00    -0.505 OA
ATOM     18  H   UNL     1      38.571 -23.679 -16.298  0.00  0.00    +0.292 HD
ENDBRANCH  13  17
BRANCH  14  19
ATOM     19  O   UNL     1      35.113 -25.146 -11.524  0.00  0.00    -0.505 OA
ATOM     20  H   UNL     1      34.187 -25.037 -11.621  0.00  0.00    +0.292 HD
ENDBRANCH  14  19
BRANCH   5  21
ATOM     21  N   UNL     1      34.927 -22.292 -18.535  0.00  0.00    -0.334 N 
ATOM     22  H   UNL     1      35.896 -22.431 -18.427  0.00  0.00    +0.147 HD
BRANCH  21  23
ATOM     23  C   UNL     1      34.455 -21.689 -19.727  0.00  0.00    +0.070 C 
BRANCH  23  24
ATOM     24  C   UNL     1      35.429 -20.627 -20.201  0.00  0.00    -0.006 C 
BRANCH  24  26
ATOM     25  O   UNL     1      35.191 -18.324 -20.569  0.00  0.00    -0.290 OA
ATOM     26  N   UNL     1      34.726 -19.562 -20.956  0.00  0.00    +0.429 N 
ATOM     27  C   UNL     1      33.242 -19.621 -20.690  0.00  0.00    -0.045 C 
ATOM     28  C   UNL     1      34.965 -19.722 -22.437  0.00  0.00    -0.045 C 
ENDBRANCH  24  26
ENDBRANCH  23  24
ENDBRANCH  21  23
ENDBRANCH   5  21
BRANCH   6  29
ATOM     29  N   UNL     1      31.223 -23.846 -14.612  0.00  0.00    -0.334 N 
ATOM     30  H   UNL     1      31.474 -23.938 -13.664  0.00  0.00    +0.147 HD
BRANCH  29  31
ATOM     31  C   UNL     1      29.878 -24.090 -14.988  0.00  0.00    +0.070 C 
BRANCH  31  32
ATOM     32  C   UNL     1      29.098 -22.790 -15.020  0.00  0.00    -0.006 C 
BRANCH  32  34
ATOM     33  O   UNL     1      28.669 -21.871 -17.134  0.00  0.00    -0.290 OA
ATOM     34  N   UNL     1      28.185 -22.748 -16.188  0.00  0.00    +0.429 N 
ATOM     35  C   UNL     1      26.813 -22.285 -15.764  0.00  0.00    -0.045 C 
ATOM     36  C   UNL     1      28.070 -24.115 -16.813  0.00  0.00    -0.045 C 
ENDBRANCH  32  34
ENDBRANCH  31  32
ENDBRANCH  29  31
ENDBRANCH   6  29
TORSDOF 10
ENDMDL
MODEL 2
REMARK VINA RESULT:     -10.5      0.036      5.902
REMARK  Name = 9955116
REMARK  10 active torsions:
REMARK  status: ('A' for Active; 'I' for Inactive)
REMARK    1  A    between atoms: C_5  and  N_21
REMARK    2  A    between atoms: C_6  and  N_29
REMARK    3  A    between atoms: C_13  and  O_17
REMARK    4  A    between atoms: C_14  and  O_19
REMARK    5  A    between atoms: N_21  and  C_23
REMARK    6  A    between atoms: C_23  and  C_24
REMARK    7  A    between atoms: C_24  and  N_26
REMARK    8  A    between atoms: N_29  and  C_31
REMARK    9  A    between atoms: C_31  and  C_32
REMARK   10  A    between atoms: C_32  and  N_34
REMARK                            x       y       z     vdW  Elec       q    Type
REMARK                         _______ _______ _______ _____ _____    ______ ____
ROOT
ATOM      1  O   UNL     1      33.270 -24.468 -13.103  0.00  0.00    -0.286 OA
ATOM      2  O   UNL     1      36.779 -23.020 -16.864  0.00  0.00    -0.286 OA
ATOM      3  C   UNL     1      33.596 -23.602 -15.269  0.00  0.00    +0.056 C 
ATOM      4  C   UNL     1      34.514 -23.223 -16.252  0.00  0.00    +0.056 C 
ATOM      5  C   UNL     1      32.223 -23.478 -15.512  0.00  0.00    +0.048 C 
ATOM      6  C   UNL     1      34.057 -22.720 -17.476  0.00  0.00    +0.048 C 
ATOM      7  C   UNL     1      34.064 -24.133 -13.973  0.00  0.00    +0.200 C 
ATOM      8  C   UNL     1      35.965 -23.348 -16.009  0.00  0.00    +0.200 C 
ATOM      9  C   UNL     1      35.516 -24.259 -13.731  0.00  0.00    +0.079 C 
ATOM     10  C   UNL     1      36.433 -23.880 -14.713  0.00  0.00    +0.079 C 
ATOM     11  C   UNL     1      31.772 -22.976 -16.733  0.00  0.00    +0.016 C 
ATOM     12  C   UNL     1      32.687 -22.599 -17.713  0.00  0.00    +0.016 C 
ATOM     13  C   UNL     1      35.972 -24.761 -12.506  0.00  0.00    +0.137 C 
ATOM     14  C   UNL     1      37.806 -24.004 -14.471  0.00  0.00    +0.137 C 
ATOM     15  C   UNL     1      37.341 -24.882 -12.270  0.00  0.00    +0.040 C 
ATOM     16  C   UNL     1      38.256 -24.505 -13.250  0.00  0.00    +0.040 C 
ENDROOT
BRANCH  13  17
ATOM     17  O   UNL     1      35.135 -25.148 -11.501  0.00  0.00    -0.505 OA
ATOM     18  H   UNL     1      34.222 -25.267 -11.672  0.00  0.00    +0.292 HD
ENDBRANCH  13  17
BRANCH  14  19
ATOM     19  O   UNL     1      38.758 -23.657 -15.385  0.00  0.00    -0.505 OA
ATOM     20  H   UNL     1      38.668 -22.865 -15.878  0.00  0.00    +0.292 HD
ENDBRANCH  14  19
BRANCH   5  21
ATOM     21  N   UNL     1      31.232 -23.838 -14.569  0.00  0.00    -0.334 N 
ATOM     22  H   UNL     1      31.487 -23.918 -13.621  0.00  0.00    +0.147 HD
BRANCH  21  23
ATOM     23  C   UNL     1      29.886 -24.085 -14.937  0.00  0.00    +0.070 C 
BRANCH  23  24
ATOM     24  C   UNL     1      29.108 -22.785 -14.990  0.00  0.00    -0.006 C 
BRANCH  24  26
ATOM     25  O   UNL     1      28.700 -21.877 -17.111  0.00  0.00    -0.290 OA
ATOM     26  N   UNL     1      28.209 -22.753 -16.169  0.00  0.00    +0.429 N 
ATOM     27  C   UNL     1      26.828 -22.298 -15.765  0.00  0.00    -0.045 C 
ATOM     28  C   UNL     1      28.111 -24.124 -16.791  0.00  0.00    -0.045 C 
ENDBRANCH  24  26
ENDBRANCH  23  24
ENDBRANCH  21  23
ENDBRANCH   5  21
BRANCH   6  29
ATOM     29  N   UNL     1      34.921 -22.315 -18.520  0.00  0.00    -0.334 N 
ATOM     30  H   UNL     1      35.888 -22.469 -18.422  0.00  0.00    +0.147 HD
BRANCH  29  31
ATOM     31  C   UNL     1      34.445 -21.695 -19.703  0.00  0.00    +0.070 C 
BRANCH  31  32
ATOM     32  C   UNL     1      35.446 -20.668 -20.196  0.00  0.00    -0.006 C 
BRANCH  32  34
ATOM     33  O   UNL     1      35.249 -18.357 -20.536  0.00  0.00    -0.290 OA
ATOM     34  N   UNL     1      34.767 -19.582 -20.943  0.00  0.00    +0.429 N 
ATOM     35  C   UNL     1      33.280 -19.620 -20.688  0.00  0.00    -0.045 C 
ATOM     36  C   UNL     1      35.014 -19.729 -22.423  0.00  0.00    -0.045 C 
ENDBRANCH  32  34
ENDBRANCH  31  32
ENDBRANCH  29  31
ENDBRANCH   6  29
TORSDOF 10
ENDMDL
MODEL 3
REMARK VINA RESULT:     -10.5      2.399      5.980
REMARK  Name = 9955116
REMARK  10 active torsions:
REMARK  status: ('A' for Active; 'I' for Inactive)
REMARK    1  A    between atoms: C_5  and  N_21
REMARK    2  A    between atoms: C_6  and  N_29
REMARK    3  A    between atoms: C_13  and  O_17
REMARK    4  A    between atoms: C_14  and  O_19
REMARK    5  A    between atoms: N_21  and  C_23
REMARK    6  A    between atoms: C_23  and  C_24
REMARK    7  A    between atoms: C_24  and  N_26
REMARK    8  A    between atoms: N_29  and  C_31
REMARK    9  A    between atoms: C_31  and  C_32
REMARK   10  A    between atoms: C_32  and  N_34
REMARK                            x       y       z     vdW  Elec       q    Type
REMARK                         _______ _______ _______ _____ _____    ______ ____
ROOT
ATOM      1  O   UNL     1      32.206 -22.452 -18.320  0.00  0.00    -0.286 OA
ATOM      2  O   UNL     1      35.079 -23.833 -14.031  0.00  0.00    -0.286 OA
ATOM      3  C   UNL     1      34.330 -22.517 -17.305  0.00  0.00    +0.056 C 
ATOM      4  C   UNL     1      35.081 -22.878 -16.184  0.00  0.00    +0.056 C 
ATOM      5  C   UNL     1      34.959 -21.917 -18.402  0.00  0.00    +0.048 C 
ATOM      6  C   UNL     1      36.460 -22.637 -16.160  0.00  0.00    +0.048 C 
ATOM      7  C   UNL     1      32.875 -22.765 -17.343  0.00  0.00    +0.200 C 
ATOM      8  C   UNL     1      34.431 -23.512 -15.019  0.00  0.00    +0.200 C 
ATOM      9  C   UNL     1      32.225 -23.400 -16.178  0.00  0.00    +0.079 C 
ATOM     10  C   UNL     1      32.975 -23.760 -15.057  0.00  0.00    +0.079 C 
ATOM     11  C   UNL     1      36.333 -21.678 -18.375  0.00  0.00    +0.016 C 
ATOM     12  C   UNL     1      37.082 -22.038 -17.256  0.00  0.00    +0.016 C 
ATOM     13  C   UNL     1      30.845 -23.639 -16.201  0.00  0.00    +0.137 C 
ATOM     14  C   UNL     1      32.347 -24.361 -13.960  0.00  0.00    +0.137 C 
ATOM     15  C   UNL     1      30.224 -24.238 -15.106  0.00  0.00    +0.040 C 
ATOM     16  C   UNL     1      30.973 -24.599 -13.988  0.00  0.00    +0.040 C 
ENDROOT
BRANCH  13  17
ATOM     17  O   UNL     1      30.050 -23.313 -17.260  0.00  0.00    -0.505 OA
ATOM     18  H   UNL     1      29.285 -22.789 -17.127  0.00  0.00    +0.292 HD
ENDBRANCH  13  17
BRANCH  14  19
ATOM     19  O   UNL     1      33.017 -24.741 -12.834  0.00  0.00    -0.505 OA
ATOM     20  H   UNL     1      33.812 -24.309 -12.594  0.00  0.00    +0.292 HD
ENDBRANCH  14  19
BRANCH   5  21
ATOM     21  N   UNL     1      34.270 -21.522 -19.572  0.00  0.00    -0.334 N 
ATOM     22  H   UNL     1      33.338 -21.815 -19.695  0.00  0.00    +0.147 HD
BRANCH  21  23
ATOM     23  C   UNL     1      34.870 -20.718 -20.573  0.00  0.00    +0.070 C 
BRANCH  23  24
ATOM     24  C   UNL     1      33.967 -19.550 -20.922  0.00  0.00    -0.006 C 
BRANCH  24  26
ATOM     25  O   UNL     1      35.913 -18.275 -20.647  0.00  0.00    -0.290 OA
ATOM     26  N   UNL     1      34.760 -18.388 -21.390  0.00  0.00    +0.429 N 
ATOM     27  C   UNL     1      33.965 -17.115 -21.239  0.00  0.00    -0.045 C 
ATOM     28  C   UNL     1      35.138 -18.562 -22.840  0.00  0.00    -0.045 C 
ENDBRANCH  24  26
ENDBRANCH  23  24
ENDBRANCH  21  23
ENDBRANCH   5  21
BRANCH   6  29
ATOM     29  N   UNL     1      37.288 -22.972 -15.064  0.00  0.00    -0.334 N 
ATOM     30  H   UNL     1      37.148 -22.512 -14.205  0.00  0.00    +0.147 HD
BRANCH  29  31
ATOM     31  C   UNL     1      38.315 -23.946 -15.156  0.00  0.00    +0.070 C 
BRANCH  31  32
ATOM     32  C   UNL     1      37.713 -25.335 -15.243  0.00  0.00    -0.006 C 
BRANCH  32  34
ATOM     33  O   UNL     1      38.406 -27.512 -14.716  0.00  0.00    -0.290 OA
ATOM     34  N   UNL     1      38.299 -26.232 -14.218  0.00  0.00    +0.429 N 
ATOM     35  C   UNL     1      37.424 -26.267 -12.990  0.00  0.00    -0.045 C 
ATOM     36  C   UNL     1      39.674 -25.752 -13.826  0.00  0.00    -0.045 C 
ENDBRANCH  32  34
ENDBRANCH  31  32
ENDBRANCH  29  31
ENDBRANCH   6  29
TORSDOF 10
ENDMDL
MODEL 4
REMARK VINA RESULT:     -10.5      2.401      7.090
REMARK  Name = 9955116
REMARK  10 active torsions:
REMARK  status: ('A' for Active; 'I' for Inactive)
REMARK    1  A    between atoms: C_5  and  N_21
REMARK    2  A    between atoms: C_6  and  N_29
REMARK    3  A    between atoms: C_13  and  O_17
REMARK    4  A    between atoms: C_14  and  O_19
REMARK    5  A    between atoms: N_21  and  C_23
REMARK    6  A    between atoms: C_23  and  C_24
REMARK    7  A    between atoms: C_24  and  N_26
REMARK    8  A    between atoms: N_29  and  C_31
REMARK    9  A    between atoms: C_31  and  C_32
REMARK   10  A    between atoms: C_32  and  N_34
REMARK                            x       y       z     vdW  Elec       q    Type
REMARK                         _______ _______ _______ _____ _____    ______ ____
ROOT
ATOM      1  O   UNL     1      35.144 -23.835 -14.018  0.00  0.00    -0.286 OA
ATOM      2  O   UNL     1      32.208 -22.473 -18.270  0.00  0.00    -0.286 OA
ATOM      3  C   UNL     1      35.112 -22.875 -16.169  0.00  0.00    +0.056 C 
ATOM      4  C   UNL     1      34.344 -22.519 -17.280  0.00  0.00    +0.056 C 
ATOM      5  C   UNL     1      36.489 -22.621 -16.161  0.00  0.00    +0.048 C 
ATOM      6  C   UNL     1      34.954 -21.911 -18.384  0.00  0.00    +0.048 C 
ATOM      7  C   UNL     1      34.481 -23.518 -14.998  0.00  0.00    +0.200 C 
ATOM      8  C   UNL     1      32.891 -22.781 -17.301  0.00  0.00    +0.200 C 
ATOM      9  C   UNL     1      33.028 -23.779 -15.019  0.00  0.00    +0.079 C 
ATOM     10  C   UNL     1      32.260 -23.424 -16.130  0.00  0.00    +0.079 C 
ATOM     11  C   UNL     1      37.093 -22.016 -17.263  0.00  0.00    +0.016 C 
ATOM     12  C   UNL     1      36.327 -21.661 -18.372  0.00  0.00    +0.016 C 
ATOM     13  C   UNL     1      32.418 -24.389 -13.915  0.00  0.00    +0.137 C 
ATOM     14  C   UNL     1      30.884 -23.677 -16.138  0.00  0.00    +0.137 C 
ATOM     15  C   UNL     1      31.046 -24.638 -13.928  0.00  0.00    +0.040 C 
ATOM     16  C   UNL     1      30.280 -24.283 -15.036  0.00  0.00    +0.040 C 
ENDROOT
BRANCH  13  17
ATOM     17  O   UNL     1      33.104 -24.764 -12.798  0.00  0.00    -0.505 OA
ATOM     18  H   UNL     1      33.041 -24.252 -12.016  0.00  0.00    +0.292 HD
ENDBRANCH  13  17
BRANCH  14  19
ATOM     19  O   UNL     1      30.073 -23.354 -17.186  0.00  0.00    -0.505 OA
ATOM     20  H   UNL     1      29.342 -22.782 -17.055  0.00  0.00    +0.292 HD
ENDBRANCH  14  19
BRANCH   5  21
ATOM     21  N   UNL     1      37.333 -22.953 -15.077  0.00  0.00    -0.334 N 
ATOM     22  H   UNL     1      37.211 -22.484 -14.220  0.00  0.00    +0.147 HD
BRANCH  21  23
ATOM     23  C   UNL     1      38.350 -23.935 -15.177  0.00  0.00    +0.070 C 
BRANCH  23  24
ATOM     24  C   UNL     1      37.738 -25.321 -15.243  0.00  0.00    -0.006 C 
BRANCH  24  26
ATOM     25  O   UNL     1      38.409 -27.500 -14.703  0.00  0.00    -0.290 OA
ATOM     26  N   UNL     1      38.334 -26.213 -14.220  0.00  0.00    +0.429 N 
ATOM     27  C   UNL     1      37.488 -26.219 -12.971  0.00  0.00    -0.045 C 
ATOM     28  C   UNL     1      39.726 -25.750 -13.867  0.00  0.00    -0.045 C 
ENDBRANCH  24  26
ENDBRANCH  23  24
ENDBRANCH  21  23
ENDBRANCH   5  21
BRANCH   6  29
ATOM     29  N   UNL     1      34.247 -21.523 -19.545  0.00  0.00    -0.334 N 
ATOM     30  H   UNL     1      33.309 -21.804 -19.646  0.00  0.00    +0.147 HD
BRANCH  29  31
ATOM     31  C   UNL     1      34.840 -20.742 -20.570  0.00  0.00    +0.070 C 
BRANCH  31  32
ATOM     32  C   UNL     1      33.964 -19.547 -20.892  0.00  0.00    -0.006 C 
BRANCH  32  34
ATOM     33  O   UNL     1      35.948 -18.317 -20.679  0.00  0.00    -0.290 OA
ATOM     34  N   UNL     1      34.777 -18.415 -21.397  0.00  0.00    +0.429 N 
ATOM     35  C   UNL     1      34.018 -17.119 -21.254  0.00  0.00    -0.045 C 
ATOM     36  C   UNL     1      35.121 -18.623 -22.851  0.00  0.00    -0.045 C 
ENDBRANCH  32  34
ENDBRANCH  31  32
ENDBRANCH  29  31
ENDBRANCH   6  29
TORSDOF 10
ENDMDL
MODEL 5
REMARK VINA RESULT:     -10.2      2.475      5.726
REMARK  Name = 9955116
REMARK  10 active torsions:
REMARK  status: ('A' for Active; 'I' for Inactive)
REMARK    1  A    between atoms: C_5  and  N_21
REMARK    2  A    between atoms: C_6  and  N_29
REMARK    3  A    between atoms: C_13  and  O_17
REMARK    4  A    between atoms: C_14  and  O_19
REMARK    5  A    between atoms: N_21  and  C_23
REMARK    6  A    between atoms: C_23  and  C_24
REMARK    7  A    between atoms: C_24  and  N_26
REMARK    8  A    between atoms: N_29  and  C_31
REMARK    9  A    between atoms: C_31  and  C_32
REMARK   10  A    between atoms: C_32  and  N_34
REMARK                            x       y       z     vdW  Elec       q    Type
REMARK                         _______ _______ _______ _____ _____    ______ ____
ROOT
ATOM      1  O   UNL     1      36.399 -22.692 -14.981  0.00  0.00    -0.286 OA
ATOM      2  O   UNL     1      32.003 -23.163 -17.982  0.00  0.00    -0.286 OA
ATOM      3  C   UNL     1      34.153 -23.395 -15.096  0.00  0.00    +0.056 C 
ATOM      4  C   UNL     1      33.005 -23.518 -15.880  0.00  0.00    +0.056 C 
ATOM      5  C   UNL     1      34.141 -23.833 -13.766  0.00  0.00    +0.048 C 
ATOM      6  C   UNL     1      31.843 -24.077 -15.334  0.00  0.00    +0.048 C 
ATOM      7  C   UNL     1      35.385 -22.806 -15.659  0.00  0.00    +0.200 C 
ATOM      8  C   UNL     1      33.004 -23.060 -17.284  0.00  0.00    +0.200 C 
ATOM      9  C   UNL     1      35.385 -22.348 -17.063  0.00  0.00    +0.079 C 
ATOM     10  C   UNL     1      34.236 -22.470 -17.847  0.00  0.00    +0.079 C 
ATOM     11  C   UNL     1      32.982 -24.390 -13.225  0.00  0.00    +0.016 C 
ATOM     12  C   UNL     1      31.835 -24.512 -14.008  0.00  0.00    +0.016 C 
ATOM     13  C   UNL     1      36.546 -21.787 -17.609  0.00  0.00    +0.137 C 
ATOM     14  C   UNL     1      34.248 -22.033 -19.177  0.00  0.00    +0.137 C 
ATOM     15  C   UNL     1      36.553 -21.353 -18.934  0.00  0.00    +0.040 C 
ATOM     16  C   UNL     1      35.407 -21.476 -19.717  0.00  0.00    +0.040 C 
ENDROOT
BRANCH  13  17
ATOM     17  O   UNL     1      37.702 -21.635 -16.903  0.00  0.00    -0.505 OA
ATOM     18  H   UNL     1      37.939 -22.264 -16.250  0.00  0.00    +0.292 HD
ENDBRANCH  13  17
BRANCH  14  19
ATOM     19  O   UNL     1      33.165 -22.124 -20.001  0.00  0.00    -0.505 OA
ATOM     20  H   UNL     1      32.949 -21.412 -20.571  0.00  0.00    +0.292 HD
ENDBRANCH  14  19
BRANCH   5  21
ATOM     21  N   UNL     1      35.261 -23.742 -12.908  0.00  0.00    -0.334 N 
ATOM     22  H   UNL     1      35.548 -22.854 -12.595  0.00  0.00    +0.147 HD
BRANCH  21  23
ATOM     23  C   UNL     1      35.985 -24.882 -12.479  0.00  0.00    +0.070 C 
BRANCH  23  24
ATOM     24  C   UNL     1      37.476 -24.628 -12.582  0.00  0.00    -0.006 C 
BRANCH  24  26
ATOM     25  O   UNL     1      39.205 -26.167 -12.947  0.00  0.00    -0.290 OA
ATOM     26  N   UNL     1      38.111 -25.572 -13.533  0.00  0.00    +0.429 N 
ATOM     27  C   UNL     1      38.568 -24.841 -14.771  0.00  0.00    -0.045 C 
ATOM     28  C   UNL     1      37.134 -26.650 -13.933  0.00  0.00    -0.045 C 
ENDBRANCH  24  26
ENDBRANCH  23  24
ENDBRANCH  21  23
ENDBRANCH   5  21
BRANCH   6  29
ATOM     29  N   UNL     1      30.641 -24.235 -16.062  0.00  0.00    -0.334 N 
ATOM     30  H   UNL     1      30.688 -24.333 -17.040  0.00  0.00    +0.147 HD
BRANCH  29  31
ATOM     31  C   UNL     1      29.369 -24.257 -15.434  0.00  0.00    +0.070 C 
BRANCH  31  32
ATOM     32  C   UNL     1      28.271 -24.118 -16.470  0.00  0.00    -0.006 C 
BRANCH  32  34
ATOM     33  O   UNL     1      29.063 -21.949 -16.874  0.00  0.00    -0.290 OA
ATOM     34  N   UNL     1      27.920 -22.693 -16.682  0.00  0.00    +0.429 N 
ATOM     35  C   UNL     1      27.190 -22.148 -15.479  0.00  0.00    -0.045 C 
ATOM     36  C   UNL     1      27.041 -22.544 -17.898  0.00  0.00    -0.045 C 
ENDBRANCH  32  34
ENDBRANCH  31  32
ENDBRANCH  29  31
ENDBRANCH   6  29
TORSDOF 10
ENDMDL
MODEL 6
REMARK VINA RESULT:     -10.2      2.481      6.957
REMARK  Name = 9955116
REMARK  10 active torsions:
REMARK  status: ('A' for Active; 'I' for Inactive)
REMARK    1  A    between atoms: C_5  and  N_21
REMARK    2  A    between atoms: C_6  and  N_29
REMARK    3  A    between atoms: C_13  and  O_17
REMARK    4  A    between atoms: C_14  and  O_19
REMARK    5  A    between atoms: N_21  and  C_23
REMARK    6  A    between atoms: C_23  and  C_24
REMARK    7  A    between atoms: C_24  and  N_26
REMARK    8  A    between atoms: N_29  and  C_31
REMARK    9  A    between atoms: C_31  and  C_32
REMARK   10  A    between atoms: C_32  and  N_34
REMARK                            x       y       z     vdW  Elec       q    Type
REMARK                         _______ _______ _______ _____ _____    ______ ____
ROOT
ATOM      1  O   UNL     1      31.996 -23.193 -17.948  0.00  0.00    -0.286 OA
ATOM      2  O   UNL     1      36.445 -22.656 -15.038  0.00  0.00    -0.286 OA
ATOM      3  C   UNL     1      33.046 -23.532 -15.867  0.00  0.00    +0.056 C 
ATOM      4  C   UNL     1      34.209 -23.392 -15.107  0.00  0.00    +0.056 C 
ATOM      5  C   UNL     1      31.905 -24.110 -15.297  0.00  0.00    +0.048 C 
ATOM      6  C   UNL     1      34.231 -23.831 -13.777  0.00  0.00    +0.048 C 
ATOM      7  C   UNL     1      33.010 -23.075 -17.271  0.00  0.00    +0.200 C 
ATOM      8  C   UNL     1      35.420 -22.785 -15.695  0.00  0.00    +0.200 C 
ATOM      9  C   UNL     1      34.221 -22.467 -17.859  0.00  0.00    +0.079 C 
ATOM     10  C   UNL     1      35.384 -22.328 -17.099  0.00  0.00    +0.079 C 
ATOM     11  C   UNL     1      31.931 -24.545 -13.972  0.00  0.00    +0.016 C 
ATOM     12  C   UNL     1      33.091 -24.405 -13.214  0.00  0.00    +0.016 C 
ATOM     13  C   UNL     1      34.200 -22.030 -19.190  0.00  0.00    +0.137 C 
ATOM     14  C   UNL     1      36.524 -21.750 -17.668  0.00  0.00    +0.137 C 
ATOM     15  C   UNL     1      35.339 -21.455 -19.752  0.00  0.00    +0.040 C 
ATOM     16  C   UNL     1      36.499 -21.315 -18.993  0.00  0.00    +0.040 C 
ENDROOT
BRANCH  13  17
ATOM     17  O   UNL     1      33.102 -22.137 -19.991  0.00  0.00    -0.505 OA
ATOM     18  H   UNL     1      32.278 -22.393 -19.625  0.00  0.00    +0.292 HD
ENDBRANCH  13  17
BRANCH  14  19
ATOM     19  O   UNL     1      37.693 -21.579 -16.985  0.00  0.00    -0.505 OA
ATOM     20  H   UNL     1      37.738 -21.790 -16.073  0.00  0.00    +0.292 HD
ENDBRANCH  14  19
BRANCH   5  21
ATOM     21  N   UNL     1      30.691 -24.288 -16.001  0.00  0.00    -0.334 N 
ATOM     22  H   UNL     1      30.726 -24.482 -16.965  0.00  0.00    +0.147 HD
BRANCH  21  23
ATOM     23  C   UNL     1      29.426 -24.200 -15.368  0.00  0.00    +0.070 C 
BRANCH  23  24
ATOM     24  C   UNL     1      28.324 -24.104 -16.407  0.00  0.00    -0.006 C 
BRANCH  24  26
ATOM     25  O   UNL     1      29.077 -21.925 -16.824  0.00  0.00    -0.290 OA
ATOM     26  N   UNL     1      27.946 -22.691 -16.650  0.00  0.00    +0.429 N 
ATOM     27  C   UNL     1      27.172 -22.145 -15.476  0.00  0.00    -0.045 C 
ATOM     28  C   UNL     1      27.097 -22.582 -17.892  0.00  0.00    -0.045 C 
ENDBRANCH  24  26
ENDBRANCH  23  24
ENDBRANCH  21  23
ENDBRANCH   5  21
BRANCH   6  29
ATOM     29  N   UNL     1      35.367 -23.724 -12.943  0.00  0.00    -0.334 N 
ATOM     30  H   UNL     1      35.707 -22.829 -12.715  0.00  0.00    +0.147 HD
BRANCH  29  31
ATOM     31  C   UNL     1      36.037 -24.861 -12.422  0.00  0.00    +0.070 C 
BRANCH  31  32
ATOM     32  C   UNL     1      37.538 -24.677 -12.525  0.00  0.00    -0.006 C 
BRANCH  32  34
ATOM     33  O   UNL     1      39.274 -26.172 -13.026  0.00  0.00    -0.290 OA
ATOM     34  N   UNL     1      38.119 -25.608 -13.523  0.00  0.00    +0.429 N 
ATOM     35  C   UNL     1      38.456 -24.869 -14.794  0.00  0.00    -0.045 C 
ATOM     36  C   UNL     1      37.143 -26.712 -13.842  0.00  0.00    -0.045 C 
ENDBRANCH  32  34
ENDBRANCH  31  32
ENDBRANCH  29  31
ENDBRANCH   6  29
TORSDOF 10
ENDMDL
MODEL 7
REMARK VINA RESULT:      -9.9      2.136      6.177
REMARK  Name = 9955116
REMARK  10 active torsions:
REMARK  status: ('A' for Active; 'I' for Inactive)
REMARK    1  A    between atoms: C_5  and  N_21
REMARK    2  A    between atoms: C_6  and  N_29
REMARK    3  A    between atoms: C_13  and  O_17
REMARK    4  A    between atoms: C_14  and  O_19
REMARK    5  A    between atoms: N_21  and  C_23
REMARK    6  A    between atoms: C_23  and  C_24
REMARK    7  A    between atoms: C_24  and  N_26
REMARK    8  A    between atoms: N_29  and  C_31
REMARK    9  A    between atoms: C_31  and  C_32
REMARK   10  A    between atoms: C_32  and  N_34
REMARK                            x       y       z     vdW  Elec       q    Type
REMARK                         _______ _______ _______ _____ _____    ______ ____
ROOT
ATOM      1  O   UNL     1      31.724 -22.645 -18.042  0.00  0.00    -0.286 OA
ATOM      2  O   UNL     1      33.388 -24.436 -13.292  0.00  0.00    -0.286 OA
ATOM      3  C   UNL     1      33.549 -23.006 -16.598  0.00  0.00    +0.056 C 
ATOM      4  C   UNL     1      33.984 -23.474 -15.357  0.00  0.00    +0.056 C 
ATOM      5  C   UNL     1      34.475 -22.488 -17.513  0.00  0.00    +0.048 C 
ATOM      6  C   UNL     1      35.345 -23.423 -15.029  0.00  0.00    +0.048 C 
ATOM      7  C   UNL     1      32.117 -23.053 -16.957  0.00  0.00    +0.200 C 
ATOM      8  C   UNL     1      33.018 -24.022 -14.383  0.00  0.00    +0.200 C 
ATOM      9  C   UNL     1      31.152 -23.602 -15.984  0.00  0.00    +0.079 C 
ATOM     10  C   UNL     1      31.586 -24.069 -14.742  0.00  0.00    +0.079 C 
ATOM     11  C   UNL     1      35.830 -22.439 -17.182  0.00  0.00    +0.016 C 
ATOM     12  C   UNL     1      36.263 -22.906 -15.943  0.00  0.00    +0.016 C 
ATOM     13  C   UNL     1      29.791 -23.651 -16.311  0.00  0.00    +0.137 C 
ATOM     14  C   UNL     1      30.661 -24.587 -13.828  0.00  0.00    +0.137 C 
ATOM     15  C   UNL     1      28.873 -24.168 -15.397  0.00  0.00    +0.040 C 
ATOM     16  C   UNL     1      29.307 -24.635 -14.158  0.00  0.00    +0.040 C 
ENDROOT
BRANCH  13  17
ATOM     17  O   UNL     1      29.295 -23.212 -17.502  0.00  0.00    -0.505 OA
ATOM     18  H   UNL     1      29.881 -22.944 -18.183  0.00  0.00    +0.292 HD
ENDBRANCH  13  17
BRANCH  14  19
ATOM     19  O   UNL     1      31.014 -25.064 -12.599  0.00  0.00    -0.505 OA
ATOM     20  H   UNL     1      31.805 -25.556 -12.497  0.00  0.00    +0.292 HD
ENDBRANCH  14  19
BRANCH   5  21
ATOM     21  N   UNL     1      34.115 -21.994 -18.787  0.00  0.00    -0.334 N 
ATOM     22  H   UNL     1      33.210 -22.180 -19.130  0.00  0.00    +0.147 HD
BRANCH  21  23
ATOM     23  C   UNL     1      35.006 -21.241 -19.591  0.00  0.00    +0.070 C 
BRANCH  23  24
ATOM     24  C   UNL     1      34.250 -20.172 -20.357  0.00  0.00    -0.006 C 
BRANCH  24  26
ATOM     25  O   UNL     1      34.932 -17.960 -20.722  0.00  0.00    -0.290 OA
ATOM     26  N   UNL     1      35.185 -19.269 -21.069  0.00  0.00    +0.429 N 
ATOM     27  C   UNL     1      35.016 -19.409 -22.562  0.00  0.00    -0.045 C 
ATOM     28  C   UNL     1      36.612 -19.595 -20.703  0.00  0.00    -0.045 C 
ENDBRANCH  24  26
ENDBRANCH  23  24
ENDBRANCH  21  23
ENDBRANCH   5  21
BRANCH   6  29
ATOM     29  N   UNL     1      35.863 -23.875 -13.794  0.00  0.00    -0.334 N 
ATOM     30  H   UNL     1      35.255 -24.315 -13.156  0.00  0.00    +0.147 HD
BRANCH  29  31
ATOM     31  C   UNL     1      37.227 -23.719 -13.438  0.00  0.00    +0.070 C 
BRANCH  31  32
ATOM     32  C   UNL     1      37.793 -25.033 -12.939  0.00  0.00    -0.006 C 
BRANCH  32  34
ATOM     33  O   UNL     1      39.672 -26.347 -13.427  0.00  0.00    -0.290 OA
ATOM     34  N   UNL     1      38.595 -25.700 -13.993  0.00  0.00    +0.429 N 
ATOM     35  C   UNL     1      39.113 -24.683 -14.980  0.00  0.00    -0.045 C 
ATOM     36  C   UNL     1      37.757 -26.714 -14.728  0.00  0.00    -0.045 C 
ENDBRANCH  32  34
ENDBRANCH  31  32
ENDBRANCH  29  31
ENDBRANCH   6  29
TORSDOF 10
ENDMDL
MODEL 8
REMARK VINA RESULT:      -9.8      2.499      6.368
REMARK  Name = 9955116
REMARK  10 active torsions:
REMARK  status: ('A' for Active; 'I' for Inactive)
REMARK    1  A    between atoms: C_5  and  N_21
REMARK    2  A    between atoms: C_6  and  N_29
REMARK    3  A    between atoms: C_13  and  O_17
REMARK    4  A    between atoms: C_14  and  O_19
REMARK    5  A    between atoms: N_21  and  C_23
REMARK    6  A    between atoms: C_23  and  C_24
REMARK    7  A    between atoms: C_24  and  N_26
REMARK    8  A    between atoms: N_29  and  C_31
REMARK    9  A    between atoms: C_31  and  C_32
REMARK   10  A    between atoms: C_32  and  N_34
REMARK                            x       y       z     vdW  Elec       q    Type
REMARK                         _______ _______ _______ _____ _____    ______ ____
ROOT
ATOM      1  O   UNL     1      37.331 -21.626 -18.080  0.00  0.00    -0.286 OA
ATOM      2  O   UNL     1      32.068 -21.981 -18.931  0.00  0.00    -0.286 OA
ATOM      3  C   UNL     1      35.271 -22.514 -17.362  0.00  0.00    +0.056 C 
ATOM      4  C   UNL     1      33.896 -22.607 -17.584  0.00  0.00    +0.056 C 
ATOM      5  C   UNL     1      35.849 -23.183 -16.276  0.00  0.00    +0.048 C 
ATOM      6  C   UNL     1      33.098 -23.367 -16.719  0.00  0.00    +0.048 C 
ATOM      7  C   UNL     1      36.124 -21.715 -18.265  0.00  0.00    +0.200 C 
ATOM      8  C   UNL     1      33.273 -21.906 -18.726  0.00  0.00    +0.200 C 
ATOM      9  C   UNL     1      35.501 -21.016 -19.407  0.00  0.00    +0.079 C 
ATOM     10  C   UNL     1      34.126 -21.108 -19.629  0.00  0.00    +0.079 C 
ATOM     11  C   UNL     1      35.052 -23.939 -15.417  0.00  0.00    +0.016 C 
ATOM     12  C   UNL     1      33.679 -24.031 -15.639  0.00  0.00    +0.016 C 
ATOM     13  C   UNL     1      36.299 -20.254 -20.271  0.00  0.00    +0.137 C 
ATOM     14  C   UNL     1      33.548 -20.440 -20.715  0.00  0.00    +0.137 C 
ATOM     15  C   UNL     1      35.718 -19.591 -21.351  0.00  0.00    +0.040 C 
ATOM     16  C   UNL     1      34.346 -19.683 -21.573  0.00  0.00    +0.040 C 
ENDROOT
BRANCH  13  17
ATOM     17  O   UNL     1      37.646 -20.119 -20.114  0.00  0.00    -0.505 OA
ATOM     18  H   UNL     1      38.191 -20.879 -20.060  0.00  0.00    +0.292 HD
ENDBRANCH  13  17
BRANCH  14  19
ATOM     19  O   UNL     1      32.213 -20.487 -20.994  0.00  0.00    -0.505 OA
ATOM     20  H   UNL     1      31.910 -20.311 -21.863  0.00  0.00    +0.292 HD
ENDBRANCH  14  19
BRANCH   5  21
ATOM     21  N   UNL     1      37.232 -23.138 -15.983  0.00  0.00    -0.334 N 
ATOM     22  H   UNL     1      37.841 -22.716 -16.631  0.00  0.00    +0.147 HD
BRANCH  21  23
ATOM     23  C   UNL     1      37.774 -23.677 -14.789  0.00  0.00    +0.070 C 
BRANCH  23  24
ATOM     24  C   UNL     1      38.846 -24.700 -15.113  0.00  0.00    -0.006 C 
BRANCH  24  26
ATOM     25  O   UNL     1      39.683 -26.812 -14.540  0.00  0.00    -0.290 OA
ATOM     26  N   UNL     1      38.606 -25.969 -14.385  0.00  0.00    +0.429 N 
ATOM     27  C   UNL     1      37.376 -26.658 -14.922  0.00  0.00    -0.045 C 
ATOM     28  C   UNL     1      38.414 -25.700 -12.912  0.00  0.00    -0.045 C 
ENDBRANCH  24  26
ENDBRANCH  23  24
ENDBRANCH  21  23
ENDBRANCH   5  21
BRANCH   6  29
ATOM     29  N   UNL     1      31.701 -23.509 -16.876  0.00  0.00    -0.334 N 
ATOM     30  H   UNL     1      31.354 -23.893 -17.714  0.00  0.00    +0.147 HD
BRANCH  29  31
ATOM     31  C   UNL     1      30.779 -23.119 -15.872  0.00  0.00    +0.070 C 
BRANCH  31  32
ATOM     32  C   UNL     1      29.561 -22.471 -16.500  0.00  0.00    -0.006 C 
BRANCH  32  34
ATOM     33  O   UNL     1      27.921 -23.860 -17.437  0.00  0.00    -0.290 OA
ATOM     34  N   UNL     1      28.344 -23.284 -16.259  0.00  0.00    +0.429 N 
ATOM     35  C   UNL     1      27.232 -22.417 -15.724  0.00  0.00    -0.045 C 
ATOM     36  C   UNL     1      28.633 -24.380 -15.265  0.00  0.00    -0.045 C 
ENDBRANCH  32  34
ENDBRANCH  31  32
ENDBRANCH  29  31
ENDBRANCH   6  29
TORSDOF 10
ENDMDL
MODEL 9
REMARK VINA RESULT:      -9.8      2.484      7.866
REMARK  Name = 9955116
REMARK  10 active torsions:
REMARK  status: ('A' for Active; 'I' for Inactive)
REMARK    1  A    between atoms: C_5  and  N_21
REMARK    2  A    between atoms: C_6  and  N_29
REMARK    3  A    between atoms: C_13  and  O_17
REMARK    4  A    between atoms: C_14  and  O_19
REMARK    5  A    between atoms: N_21  and  C_23
REMARK    6  A    between atoms: C_23  and  C_24
REMARK    7  A    between atoms: C_24  and  N_26
REMARK    8  A    between atoms: N_29  and  C_31
REMARK    9  A    between atoms: C_31  and  C_32
REMARK   10  A    between atoms: C_32  and  N_34
REMARK                            x       y       z     vdW  Elec       q    Type
REMARK                         _______ _______ _______ _____ _____    ______ ____
ROOT
ATOM      1  O   UNL     1      32.074 -21.938 -18.864  0.00  0.00    -0.286 OA
ATOM      2  O   UNL     1      37.356 -21.684 -18.102  0.00  0.00    -0.286 OA
ATOM      3  C   UNL     1      33.912 -22.597 -17.546  0.00  0.00    +0.056 C 
ATOM      4  C   UNL     1      35.292 -22.531 -17.347  0.00  0.00    +0.056 C 
ATOM      5  C   UNL     1      33.115 -23.341 -16.667  0.00  0.00    +0.048 C 
ATOM      6  C   UNL     1      35.876 -23.210 -16.271  0.00  0.00    +0.048 C 
ATOM      7  C   UNL     1      33.283 -21.887 -18.679  0.00  0.00    +0.200 C 
ATOM      8  C   UNL     1      36.145 -21.749 -18.267  0.00  0.00    +0.200 C 
ATOM      9  C   UNL     1      34.135 -21.105 -19.597  0.00  0.00    +0.079 C 
ATOM     10  C   UNL     1      35.516 -21.039 -19.399  0.00  0.00    +0.079 C 
ATOM     11  C   UNL     1      33.700 -24.016 -15.596  0.00  0.00    +0.016 C 
ATOM     12  C   UNL     1      35.078 -23.950 -15.398  0.00  0.00    +0.016 C 
ATOM     13  C   UNL     1      33.552 -20.428 -20.675  0.00  0.00    +0.137 C 
ATOM     14  C   UNL     1      36.312 -20.295 -20.276  0.00  0.00    +0.137 C 
ATOM     15  C   UNL     1      34.350 -19.687 -21.547  0.00  0.00    +0.040 C 
ATOM     16  C   UNL     1      35.727 -19.621 -21.348  0.00  0.00    +0.040 C 
ENDROOT
BRANCH  13  17
ATOM     17  O   UNL     1      32.213 -20.449 -20.931  0.00  0.00    -0.505 OA
ATOM     18  H   UNL     1      31.672 -21.109 -20.544  0.00  0.00    +0.292 HD
ENDBRANCH  13  17
BRANCH  14  19
ATOM     19  O   UNL     1      37.666 -20.183 -20.142  0.00  0.00    -0.505 OA
ATOM     20  H   UNL     1      38.096 -19.386 -20.381  0.00  0.00    +0.292 HD
ENDBRANCH  14  19
BRANCH   5  21
ATOM     21  N   UNL     1      31.712 -23.459 -16.802  0.00  0.00    -0.334 N 
ATOM     22  H   UNL     1      31.335 -23.657 -17.689  0.00  0.00    +0.147 HD
BRANCH  21  23
ATOM     23  C   UNL     1      30.828 -23.303 -15.705  0.00  0.00    +0.070 C 
BRANCH  23  24
ATOM     24  C   UNL     1      29.679 -22.387 -16.082  0.00  0.00    -0.006 C 
BRANCH  24  26
ATOM     25  O   UNL     1      28.329 -23.455 -17.672  0.00  0.00    -0.290 OA
ATOM     26  N   UNL     1      28.441 -23.164 -16.330  0.00  0.00    +0.429 N 
ATOM     27  C   UNL     1      27.229 -22.371 -15.908  0.00  0.00    -0.045 C 
ATOM     28  C   UNL     1      28.471 -24.461 -15.559  0.00  0.00    -0.045 C 
ENDBRANCH  24  26
ENDBRANCH  23  24
ENDBRANCH  21  23
ENDBRANCH   5  21
BRANCH   6  29
ATOM     29  N   UNL     1      37.264 -23.192 -16.002  0.00  0.00    -0.334 N 
ATOM     30  H   UNL     1      37.874 -22.821 -16.681  0.00  0.00    +0.147 HD
BRANCH  29  31
ATOM     31  C   UNL     1      37.811 -23.690 -14.793  0.00  0.00    +0.070 C 
BRANCH  31  32
ATOM     32  C   UNL     1      38.912 -24.690 -15.087  0.00  0.00    -0.006 C 
BRANCH  32  34
ATOM     33  O   UNL     1      39.774 -26.791 -14.506  0.00  0.00    -0.290 OA
ATOM     34  N   UNL     1      38.692 -25.955 -14.345  0.00  0.00    +0.429 N 
ATOM     35  C   UNL     1      37.462 -26.659 -14.862  0.00  0.00    -0.045 C 
ATOM     36  C   UNL     1      38.515 -25.676 -12.874  0.00  0.00    -0.045 C 
ENDBRANCH  32  34
ENDBRANCH  31  32
ENDBRANCH  29  31
ENDBRANCH   6  29
TORSDOF 10
ENDMDL
