MODEL 1
REMARK VINA RESULT:     -10.4      0.000      0.000
REMARK  Name = 5287525
REMARK  2 active torsions:
REMARK  status: ('A' for Active; 'I' for Inactive)
REMARK    1  A    between atoms: C_7  and  C_10
REMARK    2  A    between atoms: C_8  and  C_17
REMARK                            x       y       z     vdW  Elec       q    Type
REMARK                         _______ _______ _______ _____ _____    ______ ____
ROOT
ATOM      1  N   UNL     1      32.141 -24.136 -14.644  0.00  0.00    -0.255 N 
ATOM      2  N   UNL     1      33.151 -24.717 -14.005  0.00  0.00    -0.167 NA
ATOM      3  C   UNL     1      32.468 -23.415 -15.742  0.00  0.00    +0.057 A 
ATOM      4  C   UNL     1      31.266 -22.831 -16.362  0.00  0.00    +0.048 C 
ATOM      5  C   UNL     1      30.205 -23.026 -15.241  0.00  0.00    +0.033 C 
ATOM      6  C   UNL     1      30.727 -24.162 -14.338  0.00  0.00    +0.127 C 
ATOM      7  C   UNL     1      33.826 -23.510 -15.862  0.00  0.00    +0.035 A 
ATOM      8  C   UNL     1      34.197 -24.329 -14.756  0.00  0.00    +0.131 A 
ENDROOT
BRANCH   7  10
ATOM      9  F   UNL     1      36.809 -21.104 -19.896  0.00  0.00    -0.204 F 
ATOM     10  C   UNL     1      34.592 -22.892 -16.899  0.00  0.00    +0.003 C 
ATOM     11  C   UNL     1      34.052 -22.744 -18.179  0.00  0.00    +0.002 C 
ATOM     12  C   UNL     1      35.886 -22.432 -16.637  0.00  0.00    +0.002 C 
ATOM     13  C   UNL     1      34.800 -22.140 -19.191  0.00  0.00    +0.030 C 
ATOM     14  C   UNL     1      36.634 -21.828 -17.649  0.00  0.00    +0.030 C 
ATOM     15  C   UNL     1      36.090 -21.683 -18.925  0.00  0.00    +0.140 C 
ENDBRANCH   7  10
BRANCH   8  17
ATOM     16  N   UNL     1      36.097 -24.080 -13.381  0.00  0.00    -0.409 NA
ATOM     17  C   UNL     1      35.530 -24.751 -14.404  0.00  0.00    +0.150 C 
ATOM     18  C   UNL     1      36.136 -25.780 -15.100  0.00  0.00    +0.029 C 
ATOM     19  C   UNL     1      37.347 -24.465 -13.037  0.00  0.00    +0.091 C 
ATOM     20  C   UNL     1      37.421 -26.148 -14.718  0.00  0.00    -0.016 C 
ATOM     21  C   UNL     1      38.045 -25.483 -13.668  0.00  0.00    +0.080 C 
ATOM     22  C   UNL     1      37.986 -23.731 -11.907  0.00  0.00    +0.062 C 
ENDBRANCH   8  17
TORSDOF 2
ENDMDL
MODEL 2
REMARK VINA RESULT:      -9.9      2.402      5.197
REMARK  Name = 5287525
REMARK  2 active torsions:
REMARK  status: ('A' for Active; 'I' for Inactive)
REMARK    1  A    between atoms: C_7  and  C_10
REMARK    2  A    between atoms: C_8  and  C_17
REMARK                            x       y       z     vdW  Elec       q    Type
REMARK                         _______ _______ _______ _____ _____    ______ ____
ROOT
ATOM      1  N   UNL     1      31.049 -23.517 -16.009  0.00  0.00    -0.255 N 
ATOM      2  N   UNL     1      31.357 -22.877 -17.132  0.00  0.00    -0.167 NA
ATOM      3  C   UNL     1      32.095 -23.926 -15.252  0.00  0.00    +0.057 A 
ATOM      4  C   UNL     1      31.625 -24.612 -14.037  0.00  0.00    +0.048 C 
ATOM      5  C   UNL     1      30.127 -24.863 -14.374  0.00  0.00    +0.033 C 
ATOM      6  C   UNL     1      29.748 -23.844 -15.467  0.00  0.00    +0.127 C 
ATOM      7  C   UNL     1      33.219 -23.531 -15.922  0.00  0.00    +0.035 A 
ATOM      8  C   UNL     1      32.701 -22.886 -17.082  0.00  0.00    +0.131 A 
ENDROOT
BRANCH   7  10
ATOM      9  F   UNL     1      38.417 -24.434 -14.154  0.00  0.00    -0.204 F 
ATOM     10  C   UNL     1      34.555 -23.763 -15.468  0.00  0.00    +0.003 C 
ATOM     11  C   UNL     1      35.353 -22.692 -15.055  0.00  0.00    +0.002 C 
ATOM     12  C   UNL     1      35.070 -25.061 -15.434  0.00  0.00    +0.002 C 
ATOM     13  C   UNL     1      36.656 -22.919 -14.612  0.00  0.00    +0.030 C 
ATOM     14  C   UNL     1      36.373 -25.288 -14.991  0.00  0.00    +0.030 C 
ATOM     15  C   UNL     1      37.166 -24.216 -14.579  0.00  0.00    +0.140 C 
ENDBRANCH   7  10
BRANCH   8  17
ATOM     16  N   UNL     1      32.771 -21.441 -18.945  0.00  0.00    -0.409 NA
ATOM     17  C   UNL     1      33.463 -22.276 -18.143  0.00  0.00    +0.150 C 
ATOM     18  C   UNL     1      34.808 -22.561 -18.280  0.00  0.00    +0.029 C 
ATOM     19  C   UNL     1      33.473 -20.860 -19.945  0.00  0.00    +0.091 C 
ATOM     20  C   UNL     1      35.496 -21.944 -19.319  0.00  0.00    -0.016 C 
ATOM     21  C   UNL     1      34.823 -21.076 -20.172  0.00  0.00    +0.080 C 
ATOM     22  C   UNL     1      32.719 -19.935 -20.840  0.00  0.00    +0.062 C 
ENDBRANCH   8  17
TORSDOF 2
ENDMDL
MODEL 3
REMARK VINA RESULT:      -9.8      2.507      4.997
REMARK  Name = 5287525
REMARK  2 active torsions:
REMARK  status: ('A' for Active; 'I' for Inactive)
REMARK    1  A    between atoms: C_7  and  C_10
REMARK    2  A    between atoms: C_8  and  C_17
REMARK                            x       y       z     vdW  Elec       q    Type
REMARK                         _______ _______ _______ _____ _____    ______ ____
ROOT
ATOM      1  N   UNL     1      31.853 -23.786 -15.496  0.00  0.00    -0.255 N 
ATOM      2  N   UNL     1      32.535 -23.071 -16.384  0.00  0.00    -0.167 NA
ATOM      3  C   UNL     1      32.590 -24.449 -14.574  0.00  0.00    +0.057 A 
ATOM      4  C   UNL     1      31.721 -25.195 -13.648  0.00  0.00    +0.048 C 
ATOM      5  C   UNL     1      30.356 -25.157 -14.393  0.00  0.00    +0.033 C 
ATOM      6  C   UNL     1      30.423 -23.962 -15.365  0.00  0.00    +0.127 C 
ATOM      7  C   UNL     1      33.894 -24.163 -14.861  0.00  0.00    +0.035 A 
ATOM      8  C   UNL     1      33.801 -23.303 -15.994  0.00  0.00    +0.131 A 
ENDROOT
BRANCH   7  10
ATOM      9  F   UNL     1      38.250 -26.104 -11.994  0.00  0.00    -0.204 F 
ATOM     10  C   UNL     1      35.014 -24.662 -14.125  0.00  0.00    +0.003 C 
ATOM     11  C   UNL     1      35.908 -25.554 -14.722  0.00  0.00    +0.002 C 
ATOM     12  C   UNL     1      35.220 -24.260 -12.802  0.00  0.00    +0.002 C 
ATOM     13  C   UNL     1      37.000 -26.041 -14.003  0.00  0.00    +0.030 C 
ATOM     14  C   UNL     1      36.312 -24.746 -12.083  0.00  0.00    +0.030 C 
ATOM     15  C   UNL     1      37.202 -25.637 -12.685  0.00  0.00    +0.140 C 
ENDBRANCH   7  10
BRANCH   8  17
ATOM     16  N   UNL     1      34.678 -22.485 -18.025  0.00  0.00    -0.409 NA
ATOM     17  C   UNL     1      34.896 -22.698 -16.711  0.00  0.00    +0.150 C 
ATOM     18  C   UNL     1      36.064 -22.378 -16.046  0.00  0.00    +0.029 C 
ATOM     19  C   UNL     1      35.696 -21.917 -18.711  0.00  0.00    +0.091 C 
ATOM     20  C   UNL     1      37.088 -21.795 -16.785  0.00  0.00    -0.016 C 
ATOM     21  C   UNL     1      36.908 -21.556 -18.144  0.00  0.00    +0.080 C 
ATOM     22  C   UNL     1      35.469 -21.676 -20.166  0.00  0.00    +0.062 C 
ENDBRANCH   8  17
TORSDOF 2
ENDMDL
MODEL 4
REMARK VINA RESULT:      -9.3      2.669      4.576
REMARK  Name = 5287525
REMARK  2 active torsions:
REMARK  status: ('A' for Active; 'I' for Inactive)
REMARK    1  A    between atoms: C_7  and  C_10
REMARK    2  A    between atoms: C_8  and  C_17
REMARK                            x       y       z     vdW  Elec       q    Type
REMARK                         _______ _______ _______ _____ _____    ______ ____
ROOT
ATOM      1  N   UNL     1      35.613 -22.274 -17.852  0.00  0.00    -0.255 N 
ATOM      2  N   UNL     1      36.468 -22.751 -16.954  0.00  0.00    -0.167 NA
ATOM      3  C   UNL     1      34.301 -22.493 -17.599  0.00  0.00    +0.057 A 
ATOM      4  C   UNL     1      33.459 -21.914 -18.659  0.00  0.00    +0.048 C 
ATOM      5  C   UNL     1      34.506 -21.627 -19.774  0.00  0.00    +0.033 C 
ATOM      6  C   UNL     1      35.878 -21.547 -19.074  0.00  0.00    +0.127 C 
ATOM      7  C   UNL     1      34.257 -23.185 -16.421  0.00  0.00    +0.035 A 
ATOM      8  C   UNL     1      35.631 -23.317 -16.066  0.00  0.00    +0.131 A 
ENDROOT
BRANCH   7  10
ATOM      9  F   UNL     1      29.576 -24.879 -13.937  0.00  0.00    -0.204 F 
ATOM     10  C   UNL     1      33.055 -23.621 -15.783  0.00  0.00    +0.003 C 
ATOM     11  C   UNL     1      33.110 -24.274 -14.549  0.00  0.00    +0.002 C 
ATOM     12  C   UNL     1      31.816 -23.395 -16.389  0.00  0.00    +0.002 C 
ATOM     13  C   UNL     1      31.936 -24.699 -13.926  0.00  0.00    +0.030 C 
ATOM     14  C   UNL     1      30.642 -23.820 -15.766  0.00  0.00    +0.030 C 
ATOM     15  C   UNL     1      30.703 -24.471 -14.534  0.00  0.00    +0.140 C 
ENDBRANCH   7  10
BRANCH   8  17
ATOM     16  N   UNL     1      36.363 -23.173 -13.829  0.00  0.00    -0.409 NA
ATOM     17  C   UNL     1      36.161 -23.972 -14.896  0.00  0.00    +0.150 C 
ATOM     18  C   UNL     1      36.423 -25.329 -14.923  0.00  0.00    +0.029 C 
ATOM     19  C   UNL     1      36.860 -23.773 -12.723  0.00  0.00    +0.091 C 
ATOM     20  C   UNL     1      36.931 -25.910 -13.767  0.00  0.00    -0.016 C 
ATOM     21  C   UNL     1      37.157 -25.124 -12.641  0.00  0.00    +0.080 C 
ATOM     22  C   UNL     1      37.089 -22.901 -11.535  0.00  0.00    +0.062 C 
ENDBRANCH   8  17
TORSDOF 2
ENDMDL
MODEL 5
REMARK VINA RESULT:      -9.3      1.196      4.903
REMARK  Name = 5287525
REMARK  2 active torsions:
REMARK  status: ('A' for Active; 'I' for Inactive)
REMARK    1  A    between atoms: C_7  and  C_10
REMARK    2  A    between atoms: C_8  and  C_17
REMARK                            x       y       z     vdW  Elec       q    Type
REMARK                         _______ _______ _______ _____ _____    ______ ____
ROOT
ATOM      1  N   UNL     1      35.417 -24.489 -12.947  0.00  0.00    -0.255 N 
ATOM      2  N   UNL     1      34.093 -24.468 -12.849  0.00  0.00    -0.167 NA
ATOM      3  C   UNL     1      35.936 -24.024 -14.109  0.00  0.00    +0.057 A 
ATOM      4  C   UNL     1      37.406 -24.094 -14.091  0.00  0.00    +0.048 C 
ATOM      5  C   UNL     1      37.665 -25.016 -12.865  0.00  0.00    +0.033 C 
ATOM      6  C   UNL     1      36.400 -24.939 -11.986  0.00  0.00    +0.127 C 
ATOM      7  C   UNL     1      34.866 -23.655 -14.874  0.00  0.00    +0.035 A 
ATOM      8  C   UNL     1      33.747 -23.952 -14.042  0.00  0.00    +0.131 A 
ENDROOT
BRANCH   7  10
ATOM      9  F   UNL     1      35.249 -21.508 -19.993  0.00  0.00    -0.204 F 
ATOM     10  C   UNL     1      34.964 -23.103 -16.190  0.00  0.00    +0.003 C 
ATOM     11  C   UNL     1      33.903 -23.237 -17.090  0.00  0.00    +0.002 C 
ATOM     12  C   UNL     1      36.122 -22.427 -16.583  0.00  0.00    +0.002 C 
ATOM     13  C   UNL     1      33.999 -22.699 -18.373  0.00  0.00    +0.030 C 
ATOM     14  C   UNL     1      36.218 -21.888 -17.867  0.00  0.00    +0.030 C 
ATOM     15  C   UNL     1      35.156 -22.024 -18.761  0.00  0.00    +0.140 C 
ENDBRANCH   7  10
BRANCH   8  17
ATOM     16  N   UNL     1      31.638 -24.881 -14.544  0.00  0.00    -0.409 NA
ATOM     17  C   UNL     1      32.356 -23.754 -14.363  0.00  0.00    +0.150 C 
ATOM     18  C   UNL     1      31.846 -22.473 -14.463  0.00  0.00    +0.029 C 
ATOM     19  C   UNL     1      30.330 -24.710 -14.845  0.00  0.00    +0.091 C 
ATOM     20  C   UNL     1      30.497 -22.338 -14.773  0.00  0.00    -0.016 C 
ATOM     21  C   UNL     1      29.718 -23.473 -14.969  0.00  0.00    +0.080 C 
ATOM     22  C   UNL     1      29.525 -25.949 -15.049  0.00  0.00    +0.062 C 
ENDBRANCH   8  17
TORSDOF 2
ENDMDL
MODEL 6
REMARK VINA RESULT:      -9.2     10.140     12.505
REMARK  Name = 5287525
REMARK  2 active torsions:
REMARK  status: ('A' for Active; 'I' for Inactive)
REMARK    1  A    between atoms: C_7  and  C_10
REMARK    2  A    between atoms: C_8  and  C_17
REMARK                            x       y       z     vdW  Elec       q    Type
REMARK                         _______ _______ _______ _____ _____    ______ ____
ROOT
ATOM      1  N   UNL     1      32.138 -12.684 -20.685  0.00  0.00    -0.255 N 
ATOM      2  N   UNL     1      32.757 -13.832 -20.431  0.00  0.00    -0.167 NA
ATOM      3  C   UNL     1      32.141 -12.281 -21.977  0.00  0.00    +0.057 A 
ATOM      4  C   UNL     1      31.421 -11.005 -22.129  0.00  0.00    +0.048 C 
ATOM      5  C   UNL     1      31.301 -10.532 -20.652  0.00  0.00    +0.033 C 
ATOM      6  C   UNL     1      31.453 -11.791 -19.775  0.00  0.00    +0.127 C 
ATOM      7  C   UNL     1      32.826 -13.240 -22.667  0.00  0.00    +0.035 A 
ATOM      8  C   UNL     1      33.186 -14.179 -21.657  0.00  0.00    +0.131 A 
ENDROOT
BRANCH   7  10
ATOM      9  F   UNL     1      33.752 -13.116 -28.153  0.00  0.00    -0.204 F 
ATOM     10  C   UNL     1      33.064 -13.209 -24.077  0.00  0.00    +0.003 C 
ATOM     11  C   UNL     1      32.605 -14.248 -24.891  0.00  0.00    +0.002 C 
ATOM     12  C   UNL     1      33.757 -12.138 -24.649  0.00  0.00    +0.002 C 
ATOM     13  C   UNL     1      32.837 -14.216 -26.267  0.00  0.00    +0.030 C 
ATOM     14  C   UNL     1      33.989 -12.107 -26.024  0.00  0.00    +0.030 C 
ATOM     15  C   UNL     1      33.528 -13.146 -26.833  0.00  0.00    +0.140 C 
ENDBRANCH   7  10
BRANCH   8  17
ATOM     16  N   UNL     1      34.016 -15.840 -23.111  0.00  0.00    -0.409 NA
ATOM     17  C   UNL     1      33.929 -15.401 -21.839  0.00  0.00    +0.150 C 
ATOM     18  C   UNL     1      34.496 -16.034 -20.749  0.00  0.00    +0.029 C 
ATOM     19  C   UNL     1      34.711 -16.985 -23.298  0.00  0.00    +0.091 C 
ATOM     20  C   UNL     1      35.204 -17.208 -20.981  0.00  0.00    -0.016 C 
ATOM     21  C   UNL     1      35.318 -17.699 -22.277  0.00  0.00    +0.080 C 
ATOM     22  C   UNL     1      34.813 -17.483 -24.700  0.00  0.00    +0.062 C 
ENDBRANCH   8  17
TORSDOF 2
ENDMDL
MODEL 7
REMARK VINA RESULT:      -8.8     11.051     13.466
REMARK  Name = 5287525
REMARK  2 active torsions:
REMARK  status: ('A' for Active; 'I' for Inactive)
REMARK    1  A    between atoms: C_7  and  C_10
REMARK    2  A    between atoms: C_8  and  C_17
REMARK                            x       y       z     vdW  Elec       q    Type
REMARK                         _______ _______ _______ _____ _____    ______ ____
ROOT
ATOM      1  N   UNL     1      31.860 -12.255 -21.495  0.00  0.00    -0.255 N 
ATOM      2  N   UNL     1      32.227 -13.531 -21.532  0.00  0.00    -0.167 NA
ATOM      3  C   UNL     1      32.341 -11.469 -22.487  0.00  0.00    +0.057 A 
ATOM      4  C   UNL     1      31.860 -10.085 -22.339  0.00  0.00    +0.048 C 
ATOM      5  C   UNL     1      31.302 -10.097 -20.886  0.00  0.00    +0.033 C 
ATOM      6  C   UNL     1      31.012 -11.572 -20.542  0.00  0.00    +0.127 C 
ATOM      7  C   UNL     1      33.109 -12.283 -23.271  0.00  0.00    +0.035 A 
ATOM      8  C   UNL     1      33.002 -13.552 -22.630  0.00  0.00    +0.131 A 
ENDROOT
BRANCH   7  10
ATOM      9  F   UNL     1      35.830 -10.618 -27.829  0.00  0.00    -0.204 F 
ATOM     10  C   UNL     1      33.808 -11.855 -24.442  0.00  0.00    +0.003 C 
ATOM     11  C   UNL     1      34.714 -10.793 -24.371  0.00  0.00    +0.002 C 
ATOM     12  C   UNL     1      33.590 -12.496 -25.664  0.00  0.00    +0.002 C 
ATOM     13  C   UNL     1      35.397 -10.376 -25.514  0.00  0.00    +0.030 C 
ATOM     14  C   UNL     1      34.272 -12.078 -26.808  0.00  0.00    +0.030 C 
ATOM     15  C   UNL     1      35.176 -11.019 -26.732  0.00  0.00    +0.140 C 
ENDBRANCH   7  10
BRANCH   8  17
ATOM     16  N   UNL     1      34.156 -15.527 -22.055  0.00  0.00    -0.409 NA
ATOM     17  C   UNL     1      33.624 -14.784 -23.047  0.00  0.00    +0.150 C 
ATOM     18  C   UNL     1      33.643 -15.131 -24.385  0.00  0.00    +0.029 C 
ATOM     19  C   UNL     1      34.742 -16.687 -22.431  0.00  0.00    +0.091 C 
ATOM     20  C   UNL     1      34.254 -16.331 -24.732  0.00  0.00    -0.016 C 
ATOM     21  C   UNL     1      34.817 -17.129 -23.742  0.00  0.00    +0.080 C 
ATOM     22  C   UNL     1      35.335 -17.518 -21.343  0.00  0.00    +0.062 C 
ENDBRANCH   8  17
TORSDOF 2
ENDMDL
MODEL 8
REMARK VINA RESULT:      -8.7     10.249     13.023
REMARK  Name = 5287525
REMARK  2 active torsions:
REMARK  status: ('A' for Active; 'I' for Inactive)
REMARK    1  A    between atoms: C_7  and  C_10
REMARK    2  A    between atoms: C_8  and  C_17
REMARK                            x       y       z     vdW  Elec       q    Type
REMARK                         _______ _______ _______ _____ _____    ______ ____
ROOT
ATOM      1  N   UNL     1      34.284 -15.809 -21.189  0.00  0.00    -0.255 N 
ATOM      2  N   UNL     1      33.558 -14.888 -20.564  0.00  0.00    -0.167 NA
ATOM      3  C   UNL     1      34.390 -15.671 -22.532  0.00  0.00    +0.057 A 
ATOM      4  C   UNL     1      35.221 -16.744 -23.103  0.00  0.00    +0.048 C 
ATOM      5  C   UNL     1      35.295 -17.752 -21.921  0.00  0.00    +0.033 C 
ATOM      6  C   UNL     1      34.987 -16.948 -20.642  0.00  0.00    +0.127 C 
ATOM      7  C   UNL     1      33.668 -14.556 -22.852  0.00  0.00    +0.035 A 
ATOM      8  C   UNL     1      33.173 -14.111 -21.592  0.00  0.00    +0.131 A 
ENDROOT
BRANCH   7  10
ATOM      9  F   UNL     1      33.077 -12.565 -28.014  0.00  0.00    -0.204 F 
ATOM     10  C   UNL     1      33.516 -14.044 -24.178  0.00  0.00    +0.003 C 
ATOM     11  C   UNL     1      33.903 -12.735 -24.475  0.00  0.00    +0.002 C 
ATOM     12  C   UNL     1      32.980 -14.851 -25.186  0.00  0.00    +0.002 C 
ATOM     13  C   UNL     1      33.754 -12.235 -25.770  0.00  0.00    +0.030 C 
ATOM     14  C   UNL     1      32.832 -14.352 -26.480  0.00  0.00    +0.030 C 
ATOM     15  C   UNL     1      33.220 -13.044 -26.772  0.00  0.00    +0.140 C 
ENDBRANCH   7  10
BRANCH   8  17
ATOM     16  N   UNL     1      32.275 -12.554 -20.064  0.00  0.00    -0.409 NA
ATOM     17  C   UNL     1      32.342 -12.958 -21.349  0.00  0.00    +0.150 C 
ATOM     18  C   UNL     1      31.685 -12.347 -22.400  0.00  0.00    +0.029 C 
ATOM     19  C   UNL     1      31.500 -11.473 -19.821  0.00  0.00    +0.091 C 
ATOM     20  C   UNL     1      30.898 -11.238 -22.111  0.00  0.00    -0.016 C 
ATOM     21  C   UNL     1      30.798 -10.786 -20.799  0.00  0.00    +0.080 C 
ATOM     22  C   UNL     1      31.416 -11.017 -18.403  0.00  0.00    +0.062 C 
ENDBRANCH   8  17
TORSDOF 2
ENDMDL
MODEL 9
REMARK VINA RESULT:      -8.6     13.934     16.448
REMARK  Name = 5287525
REMARK  2 active torsions:
REMARK  status: ('A' for Active; 'I' for Inactive)
REMARK    1  A    between atoms: C_7  and  C_10
REMARK    2  A    between atoms: C_8  and  C_17
REMARK                            x       y       z     vdW  Elec       q    Type
REMARK                         _______ _______ _______ _____ _____    ______ ____
ROOT
ATOM      1  N   UNL     1      32.255 -11.709 -21.525  0.00  0.00    -0.255 N 
ATOM      2  N   UNL     1      32.931 -12.211 -22.553  0.00  0.00    -0.167 NA
ATOM      3  C   UNL     1      31.959 -10.389 -21.596  0.00  0.00    +0.057 A 
ATOM      4  C   UNL     1      31.206  -9.958 -20.407  0.00  0.00    +0.048 C 
ATOM      5  C   UNL     1      31.415 -11.162 -19.444  0.00  0.00    +0.033 C 
ATOM      6  C   UNL     1      31.780 -12.371 -20.329  0.00  0.00    +0.127 C 
ATOM      7  C   UNL     1      32.485  -9.951 -22.778  0.00  0.00    +0.035 A 
ATOM      8  C   UNL     1      33.077 -11.124 -23.330  0.00  0.00    +0.131 A 
ENDROOT
BRANCH   7  10
ATOM      9  F   UNL     1      32.149  -4.713 -24.624  0.00  0.00    -0.204 F 
ATOM     10  C   UNL     1      32.398  -8.605 -23.253  0.00  0.00    +0.003 C 
ATOM     11  C   UNL     1      31.191  -8.113 -23.756  0.00  0.00    +0.002 C 
ATOM     12  C   UNL     1      33.521  -7.773 -23.215  0.00  0.00    +0.002 C 
ATOM     13  C   UNL     1      31.107  -6.800 -24.219  0.00  0.00    +0.030 C 
ATOM     14  C   UNL     1      33.437  -6.460 -23.678  0.00  0.00    +0.030 C 
ATOM     15  C   UNL     1      32.229  -5.973 -24.179  0.00  0.00    +0.140 C 
ENDBRANCH   7  10
BRANCH   8  17
ATOM     16  N   UNL     1      33.352 -12.210 -25.406  0.00  0.00    -0.409 NA
ATOM     17  C   UNL     1      33.778 -11.228 -24.586  0.00  0.00    +0.150 C 
ATOM     18  C   UNL     1      34.806 -10.352 -24.878  0.00  0.00    +0.029 C 
ATOM     19  C   UNL     1      33.999 -12.320 -26.588  0.00  0.00    +0.091 C 
ATOM     20  C   UNL     1      35.447 -10.495 -26.104  0.00  0.00    -0.016 C 
ATOM     21  C   UNL     1      35.042 -11.496 -26.981  0.00  0.00    +0.080 C 
ATOM     22  C   UNL     1      33.539 -13.404 -27.504  0.00  0.00    +0.062 C 
ENDBRANCH   8  17
TORSDOF 2
ENDMDL
