MODEL 1
REMARK VINA RESULT:      -9.9      0.000      0.000
REMARK  Name = 448014
REMARK  4 active torsions:
REMARK  status: ('A' for Active; 'I' for Inactive)
REMARK    1  A    between atoms: N_3  and  C_15
REMARK    2  A    between atoms: C_8  and  N_14
REMARK    3  A    between atoms: C_15  and  C_16
REMARK    4  A    between atoms: C_19  and  O_22
REMARK                            x       y       z     vdW  Elec       q    Type
REMARK                         _______ _______ _______ _____ _____    ______ ____
ROOT
ATOM      1  S   UNL     1      37.599 -26.271 -15.035  0.00  0.00    -0.027 S 
ATOM      2  O   UNL     1      34.449 -23.878 -12.607  0.00  0.00    -0.252 OA
ATOM      3  N   UNL     1      33.017 -25.002 -14.029  0.00  0.00    -0.285 N 
ATOM      4  N   UNL     1      35.274 -25.368 -14.229  0.00  0.00    -0.248 N 
ATOM      5  N   UNL     1      37.260 -24.566 -13.122  0.00  0.00    -0.221 NA
ATOM      6  C   UNL     1      34.285 -24.671 -13.531  0.00  0.00    +0.306 C 
ATOM      7  C   UNL     1      36.652 -25.292 -14.011  0.00  0.00    +0.168 C 
ATOM      8  C   UNL     1      38.993 -25.682 -14.228  0.00  0.00    +0.194 C 
ATOM      9  C   UNL     1      38.616 -24.790 -13.245  0.00  0.00    +0.132 C 
ATOM     10  H   UNL     1      32.959 -25.647 -14.771  0.00  0.00    +0.151 HD
ATOM     11  H   UNL     1      34.972 -25.970 -14.947  0.00  0.00    +0.158 HD
ENDROOT
BRANCH   8  14
ATOM     12  O   UNL     1      41.032 -26.634 -13.738  0.00  0.00    -0.126 OA
ATOM     13  O   UNL     1      40.638 -26.000 -15.807  0.00  0.00    -0.126 OA
ATOM     14  N   UNL     1      40.267 -26.122 -14.604  0.00  0.00    +0.065 N 
ENDBRANCH   8  14
BRANCH   3  15
ATOM     15  C   UNL     1      31.796 -24.444 -13.509  0.00  0.00    +0.118 C 
BRANCH  15  16
ATOM     16  C   UNL     1      30.822 -24.105 -14.587  0.00  0.00    -0.002 C 
ATOM     17  C   UNL     1      29.638 -24.832 -14.708  0.00  0.00    +0.000 C 
ATOM     18  C   UNL     1      31.097 -23.063 -15.473  0.00  0.00    +0.000 C 
ATOM     19  C   UNL     1      29.001 -23.473 -16.603  0.00  0.00    +0.139 C 
ATOM     20  C   UNL     1      28.727 -24.515 -15.717  0.00  0.00    +0.037 C 
ATOM     21  C   UNL     1      30.186 -22.747 -16.481  0.00  0.00    +0.037 C 
BRANCH  19  22
ATOM     22  O   UNL     1      28.112 -23.165 -17.587  0.00  0.00    -0.471 OA
ATOM     23  C   UNL     1      27.116 -22.190 -17.281  0.00  0.00    +0.252 C 
ENDBRANCH  19  22
ENDBRANCH  15  16
ENDBRANCH   3  15
TORSDOF 4
ENDMDL
MODEL 2
REMARK VINA RESULT:      -9.9      5.485      6.687
REMARK  Name = 448014
REMARK  4 active torsions:
REMARK  status: ('A' for Active; 'I' for Inactive)
REMARK    1  A    between atoms: N_3  and  C_15
REMARK    2  A    between atoms: C_8  and  N_14
REMARK    3  A    between atoms: C_15  and  C_16
REMARK    4  A    between atoms: C_19  and  O_22
REMARK                            x       y       z     vdW  Elec       q    Type
REMARK                         _______ _______ _______ _____ _____    ______ ____
ROOT
ATOM      1  S   UNL     1      36.392 -23.545 -13.652  0.00  0.00    -0.027 S 
ATOM      2  O   UNL     1      33.087 -23.279 -16.900  0.00  0.00    -0.252 OA
ATOM      3  N   UNL     1      34.860 -22.464 -18.135  0.00  0.00    -0.285 N 
ATOM      4  N   UNL     1      35.231 -23.077 -15.955  0.00  0.00    -0.248 N 
ATOM      5  N   UNL     1      33.893 -23.971 -14.160  0.00  0.00    -0.221 NA
ATOM      6  C   UNL     1      34.275 -22.976 -16.968  0.00  0.00    +0.306 C 
ATOM      7  C   UNL     1      35.015 -23.545 -14.656  0.00  0.00    +0.168 C 
ATOM      8  C   UNL     1      35.414 -24.181 -12.394  0.00  0.00    +0.194 C 
ATOM      9  C   UNL     1      34.121 -24.340 -12.849  0.00  0.00    +0.132 C 
ATOM     10  H   UNL     1      35.819 -22.242 -18.120  0.00  0.00    +0.151 HD
ATOM     11  H   UNL     1      36.146 -22.790 -16.176  0.00  0.00    +0.158 HD
ENDROOT
BRANCH   8  14
ATOM     12  O   UNL     1      35.283 -25.080 -10.278  0.00  0.00    -0.126 OA
ATOM     13  O   UNL     1      37.145 -24.076 -10.880  0.00  0.00    -0.126 OA
ATOM     14  N   UNL     1      35.967 -24.456 -11.139  0.00  0.00    +0.065 N 
ENDBRANCH   8  14
BRANCH   3  15
ATOM     15  C   UNL     1      34.125 -22.245 -19.354  0.00  0.00    +0.118 C 
BRANCH  15  16
ATOM     16  C   UNL     1      34.520 -20.978 -20.036  0.00  0.00    -0.002 C 
ATOM     17  C   UNL     1      33.543 -20.154 -20.593  0.00  0.00    +0.000 C 
ATOM     18  C   UNL     1      35.866 -20.620 -20.116  0.00  0.00    +0.000 C 
ATOM     19  C   UNL     1      35.259 -18.610 -21.311  0.00  0.00    +0.139 C 
ATOM     20  C   UNL     1      33.914 -18.969 -21.231  0.00  0.00    +0.037 C 
ATOM     21  C   UNL     1      36.235 -19.435 -20.753  0.00  0.00    +0.037 C 
BRANCH  19  22
ATOM     22  O   UNL     1      35.619 -17.455 -21.933  0.00  0.00    -0.471 OA
ATOM     23  C   UNL     1      34.775 -16.321 -21.739  0.00  0.00    +0.252 C 
ENDBRANCH  19  22
ENDBRANCH  15  16
ENDBRANCH   3  15
TORSDOF 4
ENDMDL
MODEL 3
REMARK VINA RESULT:      -9.4     10.549     12.874
REMARK  Name = 448014
REMARK  4 active torsions:
REMARK  status: ('A' for Active; 'I' for Inactive)
REMARK    1  A    between atoms: N_3  and  C_15
REMARK    2  A    between atoms: C_8  and  N_14
REMARK    3  A    between atoms: C_15  and  C_16
REMARK    4  A    between atoms: C_19  and  O_22
REMARK                            x       y       z     vdW  Elec       q    Type
REMARK                         _______ _______ _______ _____ _____    ______ ____
ROOT
ATOM      1  S   UNL     1      32.413 -13.347 -21.182  0.00  0.00    -0.027 S 
ATOM      2  O   UNL     1      35.251 -16.456 -23.138  0.00  0.00    -0.252 OA
ATOM      3  N   UNL     1      34.880 -17.533 -21.129  0.00  0.00    -0.285 N 
ATOM      4  N   UNL     1      33.860 -15.510 -21.494  0.00  0.00    -0.248 N 
ATOM      5  N   UNL     1      33.805 -13.901 -23.289  0.00  0.00    -0.221 NA
ATOM      6  C   UNL     1      34.710 -16.477 -22.036  0.00  0.00    +0.306 C 
ATOM      7  C   UNL     1      33.461 -14.320 -22.108  0.00  0.00    +0.168 C 
ATOM      8  C   UNL     1      32.394 -12.221 -22.476  0.00  0.00    +0.194 C 
ATOM      9  C   UNL     1      33.188 -12.685 -23.505  0.00  0.00    +0.132 C 
ATOM     10  H   UNL     1      34.416 -17.486 -20.262  0.00  0.00    +0.151 HD
ATOM     11  H   UNL     1      33.508 -15.682 -20.591  0.00  0.00    +0.158 HD
ENDROOT
BRANCH   8  14
ATOM     12  O   UNL     1      30.557 -11.049 -21.732  0.00  0.00    -0.126 OA
ATOM     13  O   UNL     1      32.059  -9.991 -22.941  0.00  0.00    -0.126 OA
ATOM     14  N   UNL     1      31.643 -11.045 -22.379  0.00  0.00    +0.065 N 
ENDBRANCH   8  14
BRANCH   3  15
ATOM     15  C   UNL     1      35.703 -18.682 -21.404  0.00  0.00    +0.118 C 
BRANCH  15  16
ATOM     16  C   UNL     1      35.285 -19.881 -20.621  0.00  0.00    -0.002 C 
ATOM     17  C   UNL     1      36.247 -20.682 -20.007  0.00  0.00    +0.000 C 
ATOM     18  C   UNL     1      33.932 -20.199 -20.503  0.00  0.00    +0.000 C 
ATOM     19  C   UNL     1      34.503 -22.122 -19.156  0.00  0.00    +0.139 C 
ATOM     20  C   UNL     1      35.855 -21.803 -19.274  0.00  0.00    +0.037 C 
ATOM     21  C   UNL     1      33.541 -21.320 -19.770  0.00  0.00    +0.037 C 
BRANCH  19  22
ATOM     22  O   UNL     1      34.122 -23.216 -18.441  0.00  0.00    -0.471 OA
ATOM     23  C   UNL     1      33.067 -23.040 -17.496  0.00  0.00    +0.252 C 
ENDBRANCH  19  22
ENDBRANCH  15  16
ENDBRANCH   3  15
TORSDOF 4
ENDMDL
MODEL 4
REMARK VINA RESULT:      -9.0      7.390      8.327
REMARK  Name = 448014
REMARK  4 active torsions:
REMARK  status: ('A' for Active; 'I' for Inactive)
REMARK    1  A    between atoms: N_3  and  C_15
REMARK    2  A    between atoms: C_8  and  N_14
REMARK    3  A    between atoms: C_15  and  C_16
REMARK    4  A    between atoms: C_19  and  O_22
REMARK                            x       y       z     vdW  Elec       q    Type
REMARK                         _______ _______ _______ _____ _____    ______ ____
ROOT
ATOM      1  S   UNL     1      37.406 -21.958 -16.365  0.00  0.00    -0.027 S 
ATOM      2  O   UNL     1      34.105 -21.867 -19.627  0.00  0.00    -0.252 OA
ATOM      3  N   UNL     1      35.598 -20.394 -20.596  0.00  0.00    -0.285 N 
ATOM      4  N   UNL     1      36.138 -21.332 -18.572  0.00  0.00    -0.248 N 
ATOM      5  N   UNL     1      35.092 -22.884 -17.053  0.00  0.00    -0.221 NA
ATOM      6  C   UNL     1      35.176 -21.267 -19.583  0.00  0.00    +0.306 C 
ATOM      7  C   UNL     1      36.063 -22.097 -17.405  0.00  0.00    +0.168 C 
ATOM      8  C   UNL     1      36.636 -23.065 -15.304  0.00  0.00    +0.194 C 
ATOM      9  C   UNL     1      35.422 -23.447 -15.836  0.00  0.00    +0.132 C 
ATOM     10  H   UNL     1      36.469 -19.947 -20.496  0.00  0.00    +0.151 HD
ATOM     11  H   UNL     1      36.947 -20.784 -18.691  0.00  0.00    +0.158 HD
ENDROOT
BRANCH   8  14
ATOM     12  O   UNL     1      36.698 -23.180 -13.005  0.00  0.00    -0.126 OA
ATOM     13  O   UNL     1      38.365 -24.050 -14.146  0.00  0.00    -0.126 OA
ATOM     14  N   UNL     1      37.255 -23.445 -14.109  0.00  0.00    +0.065 N 
ENDBRANCH   8  14
BRANCH   3  15
ATOM     15  C   UNL     1      34.818 -20.121 -21.775  0.00  0.00    +0.118 C 
BRANCH  15  16
ATOM     16  C   UNL     1      34.826 -18.674 -22.138  0.00  0.00    -0.002 C 
ATOM     17  C   UNL     1      34.668 -17.706 -21.147  0.00  0.00    +0.000 C 
ATOM     18  C   UNL     1      34.990 -18.290 -23.470  0.00  0.00    +0.000 C 
ATOM     19  C   UNL     1      34.840 -15.968 -22.817  0.00  0.00    +0.139 C 
ATOM     20  C   UNL     1      34.675 -16.352 -21.487  0.00  0.00    +0.037 C 
ATOM     21  C   UNL     1      34.998 -16.936 -23.808  0.00  0.00    +0.037 C 
BRANCH  19  22
ATOM     22  O   UNL     1      34.847 -14.648 -23.148  0.00  0.00    -0.471 OA
ATOM     23  C   UNL     1      33.611 -14.081 -23.581  0.00  0.00    +0.252 C 
ENDBRANCH  19  22
ENDBRANCH  15  16
ENDBRANCH   3  15
TORSDOF 4
ENDMDL
MODEL 5
REMARK VINA RESULT:      -9.0      9.498     11.644
REMARK  Name = 448014
REMARK  4 active torsions:
REMARK  status: ('A' for Active; 'I' for Inactive)
REMARK    1  A    between atoms: N_3  and  C_15
REMARK    2  A    between atoms: C_8  and  N_14
REMARK    3  A    between atoms: C_15  and  C_16
REMARK    4  A    between atoms: C_19  and  O_22
REMARK                            x       y       z     vdW  Elec       q    Type
REMARK                         _______ _______ _______ _____ _____    ______ ____
ROOT
ATOM      1  S   UNL     1      34.229 -14.730 -21.597  0.00  0.00    -0.027 S 
ATOM      2  O   UNL     1      35.600 -19.029 -22.683  0.00  0.00    -0.252 OA
ATOM      3  N   UNL     1      36.042 -19.082 -20.417  0.00  0.00    -0.285 N 
ATOM      4  N   UNL     1      35.171 -17.161 -21.322  0.00  0.00    -0.248 N 
ATOM      5  N   UNL     1      34.496 -16.437 -23.519  0.00  0.00    -0.221 NA
ATOM      6  C   UNL     1      35.597 -18.463 -21.594  0.00  0.00    +0.306 C 
ATOM      7  C   UNL     1      34.664 -16.244 -22.246  0.00  0.00    +0.168 C 
ATOM      8  C   UNL     1      33.757 -14.244 -23.173  0.00  0.00    +0.194 C 
ATOM      9  C   UNL     1      33.971 -15.280 -24.059  0.00  0.00    +0.132 C 
ATOM     10  H   UNL     1      36.011 -18.569 -19.577  0.00  0.00    +0.151 HD
ATOM     11  H   UNL     1      35.235 -16.857 -20.387  0.00  0.00    +0.158 HD
ENDROOT
BRANCH   8  14
ATOM     12  O   UNL     1      32.161 -12.618 -22.841  0.00  0.00    -0.126 OA
ATOM     13  O   UNL     1      33.873 -12.160 -24.144  0.00  0.00    -0.126 OA
ATOM     14  N   UNL     1      33.245 -12.961 -23.394  0.00  0.00    +0.065 N 
ENDBRANCH   8  14
BRANCH   3  15
ATOM     15  C   UNL     1      36.543 -20.431 -20.378  0.00  0.00    +0.118 C 
BRANCH  15  16
ATOM     16  C   UNL     1      35.884 -21.251 -19.320  0.00  0.00    -0.002 C 
ATOM     17  C   UNL     1      36.576 -21.566 -18.151  0.00  0.00    +0.000 C 
ATOM     18  C   UNL     1      34.576 -21.702 -19.501  0.00  0.00    +0.000 C 
ATOM     19  C   UNL     1      34.652 -22.784 -17.341  0.00  0.00    +0.139 C 
ATOM     20  C   UNL     1      35.959 -22.333 -17.162  0.00  0.00    +0.037 C 
ATOM     21  C   UNL     1      33.960 -22.469 -18.511  0.00  0.00    +0.037 C 
BRANCH  19  22
ATOM     22  O   UNL     1      34.051 -23.533 -16.377  0.00  0.00    -0.471 OA
ATOM     23  C   UNL     1      34.888 -24.057 -15.347  0.00  0.00    +0.252 C 
ENDBRANCH  19  22
ENDBRANCH  15  16
ENDBRANCH   3  15
TORSDOF 4
ENDMDL
MODEL 6
REMARK VINA RESULT:      -8.8     13.891     16.225
REMARK  Name = 448014
REMARK  4 active torsions:
REMARK  status: ('A' for Active; 'I' for Inactive)
REMARK    1  A    between atoms: N_3  and  C_15
REMARK    2  A    between atoms: C_8  and  N_14
REMARK    3  A    between atoms: C_15  and  C_16
REMARK    4  A    between atoms: C_19  and  O_22
REMARK                            x       y       z     vdW  Elec       q    Type
REMARK                         _______ _______ _______ _____ _____    ______ ____
ROOT
ATOM      1  S   UNL     1      31.637  -9.701 -21.773  0.00  0.00    -0.027 S 
ATOM      2  O   UNL     1      34.071 -12.337 -24.718  0.00  0.00    -0.252 OA
ATOM      3  N   UNL     1      33.131 -14.014 -23.439  0.00  0.00    -0.285 N 
ATOM      4  N   UNL     1      32.635 -11.833 -22.925  0.00  0.00    -0.248 N 
ATOM      5  N   UNL     1      33.238  -9.671 -23.803  0.00  0.00    -0.221 NA
ATOM      6  C   UNL     1      33.349 -12.673 -23.784  0.00  0.00    +0.306 C 
ATOM      7  C   UNL     1      32.609 -10.437 -22.964  0.00  0.00    +0.168 C 
ATOM      8  C   UNL     1      32.085  -8.177 -22.420  0.00  0.00    +0.194 C 
ATOM      9  C   UNL     1      32.936  -8.360 -23.490  0.00  0.00    +0.132 C 
ATOM     10  H   UNL     1      32.539 -14.213 -22.679  0.00  0.00    +0.151 HD
ATOM     11  H   UNL     1      32.099 -12.267 -22.222  0.00  0.00    +0.158 HD
ENDROOT
BRANCH   8  14
ATOM     12  O   UNL     1      32.001  -6.627 -20.719  0.00  0.00    -0.126 OA
ATOM     13  O   UNL     1      30.735  -6.312 -22.490  0.00  0.00    -0.126 OA
ATOM     14  N   UNL     1      31.589  -6.996 -21.856  0.00  0.00    +0.065 N 
ENDBRANCH   8  14
BRANCH   3  15
ATOM     15  C   UNL     1      33.733 -15.116 -24.145  0.00  0.00    +0.118 C 
BRANCH  15  16
ATOM     16  C   UNL     1      34.358 -16.107 -23.223  0.00  0.00    -0.002 C 
ATOM     17  C   UNL     1      34.386 -15.861 -21.850  0.00  0.00    +0.000 C 
ATOM     18  C   UNL     1      34.917 -17.280 -23.733  0.00  0.00    +0.000 C 
ATOM     19  C   UNL     1      35.529 -17.961 -21.497  0.00  0.00    +0.139 C 
ATOM     20  C   UNL     1      34.971 -16.789 -20.988  0.00  0.00    +0.037 C 
ATOM     21  C   UNL     1      35.502 -18.207 -22.870  0.00  0.00    +0.037 C 
BRANCH  19  22
ATOM     22  O   UNL     1      36.100 -18.864 -20.655  0.00  0.00    -0.471 OA
ATOM     23  C   UNL     1      35.504 -20.159 -20.589  0.00  0.00    +0.252 C 
ENDBRANCH  19  22
ENDBRANCH  15  16
ENDBRANCH   3  15
TORSDOF 4
ENDMDL
MODEL 7
REMARK VINA RESULT:      -8.7     13.198     14.571
REMARK  Name = 448014
REMARK  4 active torsions:
REMARK  status: ('A' for Active; 'I' for Inactive)
REMARK    1  A    between atoms: N_3  and  C_15
REMARK    2  A    between atoms: C_8  and  N_14
REMARK    3  A    between atoms: C_15  and  C_16
REMARK    4  A    between atoms: C_19  and  O_22
REMARK                            x       y       z     vdW  Elec       q    Type
REMARK                         _______ _______ _______ _____ _____    ______ ____
ROOT
ATOM      1  S   UNL     1      34.966 -17.124 -20.929  0.00  0.00    -0.027 S 
ATOM      2  O   UNL     1      33.971 -15.024 -24.946  0.00  0.00    -0.252 OA
ATOM      3  N   UNL     1      34.087 -13.156 -23.592  0.00  0.00    -0.285 N 
ATOM      4  N   UNL     1      34.453 -15.218 -22.653  0.00  0.00    -0.248 N 
ATOM      5  N   UNL     1      34.487 -17.495 -23.442  0.00  0.00    -0.221 NA
ATOM      6  C   UNL     1      34.154 -14.536 -23.834  0.00  0.00    +0.306 C 
ATOM      7  C   UNL     1      34.599 -16.599 -22.508  0.00  0.00    +0.168 C 
ATOM      8  C   UNL     1      34.983 -18.734 -21.520  0.00  0.00    +0.194 C 
ATOM      9  C   UNL     1      34.709 -18.733 -22.872  0.00  0.00    +0.132 C 
ATOM     10  H   UNL     1      34.245 -12.833 -22.676  0.00  0.00    +0.151 HD
ATOM     11  H   UNL     1      34.570 -14.673 -21.841  0.00  0.00    +0.158 HD
ENDROOT
BRANCH   8  14
ATOM     12  O   UNL     1      34.328 -20.615 -20.364  0.00  0.00    -0.126 OA
ATOM     13  O   UNL     1      36.413 -19.941 -20.178  0.00  0.00    -0.126 OA
ATOM     14  N   UNL     1      35.251 -19.802 -20.657  0.00  0.00    +0.065 N 
ENDBRANCH   8  14
BRANCH   3  15
ATOM     15  C   UNL     1      33.796 -12.190 -24.620  0.00  0.00    +0.118 C 
BRANCH  15  16
ATOM     16  C   UNL     1      33.723 -10.799 -24.087  0.00  0.00    -0.002 C 
ATOM     17  C   UNL     1      32.682 -10.433 -23.234  0.00  0.00    +0.000 C 
ATOM     18  C   UNL     1      34.697  -9.864 -24.442  0.00  0.00    +0.000 C 
ATOM     19  C   UNL     1      33.588  -8.197 -23.089  0.00  0.00    +0.139 C 
ATOM     20  C   UNL     1      32.615  -9.131 -22.735  0.00  0.00    +0.037 C 
ATOM     21  C   UNL     1      34.628  -8.563 -23.943  0.00  0.00    +0.037 C 
BRANCH  19  22
ATOM     22  O   UNL     1      33.521  -6.927 -22.604  0.00  0.00    -0.471 OA
ATOM     23  C   UNL     1      32.226  -6.336 -22.506  0.00  0.00    +0.252 C 
ENDBRANCH  19  22
ENDBRANCH  15  16
ENDBRANCH   3  15
TORSDOF 4
ENDMDL
MODEL 8
REMARK VINA RESULT:      -8.7     11.024     12.396
REMARK  Name = 448014
REMARK  4 active torsions:
REMARK  status: ('A' for Active; 'I' for Inactive)
REMARK    1  A    between atoms: N_3  and  C_15
REMARK    2  A    between atoms: C_8  and  N_14
REMARK    3  A    between atoms: C_15  and  C_16
REMARK    4  A    between atoms: C_19  and  O_22
REMARK                            x       y       z     vdW  Elec       q    Type
REMARK                         _______ _______ _______ _____ _____    ______ ____
ROOT
ATOM      1  S   UNL     1      33.182 -19.622 -20.681  0.00  0.00    -0.027 S 
ATOM      2  O   UNL     1      35.687 -16.350 -22.816  0.00  0.00    -0.252 OA
ATOM      3  N   UNL     1      33.583 -15.458 -23.153  0.00  0.00    -0.285 N 
ATOM      4  N   UNL     1      33.766 -17.440 -22.010  0.00  0.00    -0.248 N 
ATOM      5  N   UNL     1      35.573 -18.880 -21.326  0.00  0.00    -0.221 NA
ATOM      6  C   UNL     1      34.471 -16.427 -22.665  0.00  0.00    +0.306 C 
ATOM      7  C   UNL     1      34.314 -18.569 -21.398  0.00  0.00    +0.168 C 
ATOM      8  C   UNL     1      34.489 -20.627 -20.208  0.00  0.00    +0.194 C 
ATOM      9  C   UNL     1      35.677 -20.072 -20.637  0.00  0.00    +0.132 C 
ATOM     10  H   UNL     1      32.620 -15.582 -22.995  0.00  0.00    +0.151 HD
ATOM     11  H   UNL     1      32.786 -17.350 -21.977  0.00  0.00    +0.158 HD
ENDROOT
BRANCH   8  14
ATOM     12  O   UNL     1      33.070 -22.243 -19.384  0.00  0.00    -0.126 OA
ATOM     13  O   UNL     1      35.223 -22.424 -18.970  0.00  0.00    -0.126 OA
ATOM     14  N   UNL     1      34.252 -21.807 -19.495  0.00  0.00    +0.065 N 
ENDBRANCH   8  14
BRANCH   3  15
ATOM     15  C   UNL     1      34.014 -14.288 -23.875  0.00  0.00    +0.118 C 
BRANCH  15  16
ATOM     16  C   UNL     1      33.349 -13.044 -23.389  0.00  0.00    -0.002 C 
ATOM     17  C   UNL     1      33.682 -11.812 -23.950  0.00  0.00    +0.000 C 
ATOM     18  C   UNL     1      32.394 -13.115 -22.374  0.00  0.00    +0.000 C 
ATOM     19  C   UNL     1      32.105 -10.719 -22.481  0.00  0.00    +0.139 C 
ATOM     20  C   UNL     1      33.059 -10.649 -23.495  0.00  0.00    +0.037 C 
ATOM     21  C   UNL     1      31.772 -11.952 -21.920  0.00  0.00    +0.037 C 
BRANCH  19  22
ATOM     22  O   UNL     1      31.499  -9.584 -22.038  0.00  0.00    -0.471 OA
ATOM     23  C   UNL     1      32.068  -8.946 -20.895  0.00  0.00    +0.252 C 
ENDBRANCH  19  22
ENDBRANCH  15  16
ENDBRANCH   3  15
TORSDOF 4
ENDMDL
MODEL 9
REMARK VINA RESULT:      -8.6     14.266     16.470
REMARK  Name = 448014
REMARK  4 active torsions:
REMARK  status: ('A' for Active; 'I' for Inactive)
REMARK    1  A    between atoms: N_3  and  C_15
REMARK    2  A    between atoms: C_8  and  N_14
REMARK    3  A    between atoms: C_15  and  C_16
REMARK    4  A    between atoms: C_19  and  O_22
REMARK                            x       y       z     vdW  Elec       q    Type
REMARK                         _______ _______ _______ _____ _____    ______ ____
ROOT
ATOM      1  S   UNL     1      31.908  -9.566 -21.451  0.00  0.00    -0.027 S 
ATOM      2  O   UNL     1      34.145 -11.733 -24.892  0.00  0.00    -0.252 OA
ATOM      3  N   UNL     1      32.891 -13.510 -24.115  0.00  0.00    -0.285 N 
ATOM      4  N   UNL     1      32.673 -11.475 -23.077  0.00  0.00    -0.248 N 
ATOM      5  N   UNL     1      33.635  -9.282 -23.353  0.00  0.00    -0.221 NA
ATOM      6  C   UNL     1      33.320 -12.175 -24.098  0.00  0.00    +0.306 C 
ATOM      7  C   UNL     1      32.847 -10.126 -22.758  0.00  0.00    +0.168 C 
ATOM      8  C   UNL     1      32.611  -8.017 -21.673  0.00  0.00    +0.194 C 
ATOM      9  C   UNL     1      33.500  -8.059 -22.726  0.00  0.00    +0.132 C 
ATOM     10  H   UNL     1      32.225 -13.797 -23.449  0.00  0.00    +0.151 HD
ATOM     11  H   UNL     1      32.034 -11.981 -22.525  0.00  0.00    +0.158 HD
ENDROOT
BRANCH   8  14
ATOM     12  O   UNL     1      31.557  -6.002 -21.310  0.00  0.00    -0.126 OA
ATOM     13  O   UNL     1      32.618  -6.950 -19.633  0.00  0.00    -0.126 OA
ATOM     14  N   UNL     1      32.248  -6.951 -20.842  0.00  0.00    +0.065 N 
ENDBRANCH   8  14
BRANCH   3  15
ATOM     15  C   UNL     1      33.379 -14.482 -25.059  0.00  0.00    +0.118 C 
BRANCH  15  16
ATOM     16  C   UNL     1      34.043 -15.638 -24.391  0.00  0.00    -0.002 C 
ATOM     17  C   UNL     1      34.489 -15.521 -23.075  0.00  0.00    +0.000 C 
ATOM     18  C   UNL     1      34.219 -16.837 -25.084  0.00  0.00    +0.000 C 
ATOM     19  C   UNL     1      35.286 -17.801 -23.142  0.00  0.00    +0.139 C 
ATOM     20  C   UNL     1      35.110 -16.603 -22.450  0.00  0.00    +0.037 C 
ATOM     21  C   UNL     1      34.841 -17.918 -24.459  0.00  0.00    +0.037 C 
BRANCH  19  22
ATOM     22  O   UNL     1      35.892 -18.856 -22.532  0.00  0.00    -0.471 OA
ATOM     23  C   UNL     1      35.383 -19.252 -21.260  0.00  0.00    +0.252 C 
ENDBRANCH  19  22
ENDBRANCH  15  16
ENDBRANCH   3  15
TORSDOF 4
ENDMDL
