MODEL 1
REMARK VINA RESULT:      -9.3      0.000      0.000
REMARK  Name = 65981
REMARK  11 active torsions:
REMARK  status: ('A' for Active; 'I' for Inactive)
REMARK    1  A    between atoms: N_2  and  C_5
REMARK    2  A    between atoms: C_3  and  C_22
REMARK    3  A    between atoms: C_5  and  C_7
REMARK    4  A    between atoms: C_5  and  C_18
REMARK    5  A    between atoms: C_6  and  N_12
REMARK    6  A    between atoms: C_18  and  C_19
REMARK    7  A    between atoms: C_22  and  C_23
REMARK    8  A    between atoms: C_26  and  O_33
REMARK    9  A    between atoms: C_28  and  C_30
REMARK   10  A    between atoms: C_30  and  O_31
REMARK   11  A    between atoms: O_33  and  C_34
REMARK                            x       y       z     vdW  Elec       q    Type
REMARK                         _______ _______ _______ _____ _____    ______ ____
ROOT
ATOM      1  O   UNL     1      33.769 -23.957 -18.956  0.00  0.00    -0.275 OA
ATOM      2  N   UNL     1      33.957 -22.372 -17.269  0.00  0.00    -0.302 N 
ATOM      3  C   UNL     1      33.617 -22.811 -18.538  0.00  0.00    +0.227 C 
ATOM      4  H   UNL     1      33.792 -21.430 -17.034  0.00  0.00    +0.150 HD
ENDROOT
BRANCH   2   5
ATOM      5  C   UNL     1      34.545 -23.247 -16.276  0.00  0.00    +0.095 C 
BRANCH   5   7
ATOM      6  C   UNL     1      33.845 -24.483 -14.199  0.00  0.00    +0.045 C 
ATOM      7  C   UNL     1      33.501 -23.666 -15.262  0.00  0.00    +0.009 C 
ATOM      8  C   UNL     1      32.865 -24.854 -13.279  0.00  0.00    +0.014 C 
ATOM      9  C   UNL     1      32.205 -23.210 -15.434  0.00  0.00    -0.001 C 
ATOM     10  C   UNL     1      31.554 -24.403 -13.437  0.00  0.00    +0.001 C 
ATOM     11  C   UNL     1      31.225 -23.581 -14.514  0.00  0.00    -0.000 C 
BRANCH   6  12
ATOM     12  N   UNL     1      35.156 -24.943 -14.024  0.00  0.00    -0.308 N 
ATOM     13  C   UNL     1      35.767 -24.762 -12.699  0.00  0.00    +0.091 C 
ATOM     14  C   UNL     1      35.628 -26.090 -14.808  0.00  0.00    +0.091 C 
ATOM     15  C   UNL     1      37.289 -24.741 -12.809  0.00  0.00    +0.021 C 
ATOM     16  C   UNL     1      37.153 -26.076 -14.917  0.00  0.00    +0.021 C 
ATOM     17  C   UNL     1      37.812 -25.966 -13.548  0.00  0.00    +0.004 C 
ENDBRANCH   6  12
ENDBRANCH   5   7
BRANCH   5  18
ATOM     18  C   UNL     1      35.781 -22.565 -15.655  0.00  0.00    +0.024 C 
BRANCH  18  19
ATOM     19  C   UNL     1      37.021 -22.484 -16.570  0.00  0.00    +0.002 C 
ATOM     20  C   UNL     1      38.264 -23.097 -15.923  0.00  0.00    +0.000 C 
ATOM     21  C   UNL     1      37.298 -21.023 -16.933  0.00  0.00    +0.000 C 
ENDBRANCH  18  19
ENDBRANCH   5  18
ENDBRANCH   2   5
BRANCH   3  22
ATOM     22  C   UNL     1      33.016 -21.692 -19.368  0.00  0.00    +0.111 C 
BRANCH  22  23
ATOM     23  C   UNL     1      34.046 -20.857 -20.079  0.00  0.00    -0.010 C 
ATOM     24  C   UNL     1      33.654 -19.691 -20.724  0.00  0.00    +0.033 C 
ATOM     25  C   UNL     1      35.372 -21.264 -20.081  0.00  0.00    -0.003 C 
ATOM     26  C   UNL     1      34.610 -18.917 -21.383  0.00  0.00    +0.144 C 
ATOM     27  C   UNL     1      36.328 -20.490 -20.740  0.00  0.00    +0.009 C 
ATOM     28  C   UNL     1      35.946 -19.317 -21.391  0.00  0.00    +0.109 C 
BRANCH  28  30
ATOM     29  O   UNL     1      38.176 -18.605 -21.885  0.00  0.00    -0.245 OA
ATOM     30  C   UNL     1      36.959 -18.524 -22.074  0.00  0.00    +0.341 C 
BRANCH  30  31
ATOM     31  O   UNL     1      36.420 -17.657 -22.973  0.00  0.00    -0.477 OA
ATOM     32  H   UNL     1      36.431 -16.736 -22.800  0.00  0.00    +0.295 HD
ENDBRANCH  30  31
ENDBRANCH  28  30
BRANCH  26  33
ATOM     33  O   UNL     1      34.217 -17.775 -22.013  0.00  0.00    -0.475 OA
BRANCH  33  34
ATOM     34  C   UNL     1      33.576 -16.782 -21.215  0.00  0.00    +0.206 C 
ATOM     35  C   UNL     1      34.618 -15.801 -20.719  0.00  0.00    +0.051 C 
ENDBRANCH  33  34
ENDBRANCH  26  33
ENDBRANCH  22  23
ENDBRANCH   3  22
TORSDOF 11
ENDMDL
MODEL 2
REMARK VINA RESULT:      -8.6      9.132     13.874
REMARK  Name = 65981
REMARK  11 active torsions:
REMARK  status: ('A' for Active; 'I' for Inactive)
REMARK    1  A    between atoms: N_2  and  C_5
REMARK    2  A    between atoms: C_3  and  C_22
REMARK    3  A    between atoms: C_5  and  C_7
REMARK    4  A    between atoms: C_5  and  C_18
REMARK    5  A    between atoms: C_6  and  N_12
REMARK    6  A    between atoms: C_18  and  C_19
REMARK    7  A    between atoms: C_22  and  C_23
REMARK    8  A    between atoms: C_26  and  O_33
REMARK    9  A    between atoms: C_28  and  C_30
REMARK   10  A    between atoms: C_30  and  O_31
REMARK   11  A    between atoms: O_33  and  C_34
REMARK                            x       y       z     vdW  Elec       q    Type
REMARK                         _______ _______ _______ _____ _____    ______ ____
ROOT
ATOM      1  O   UNL     1      33.022 -10.563 -25.187  0.00  0.00    -0.275 OA
ATOM      2  N   UNL     1      34.094 -11.785 -23.530  0.00  0.00    -0.302 N 
ATOM      3  C   UNL     1      33.798 -10.631 -24.238  0.00  0.00    +0.227 C 
ATOM      4  H   UNL     1      34.733 -11.731 -22.783  0.00  0.00    +0.150 HD
ENDROOT
BRANCH   2   5
ATOM      5  C   UNL     1      33.500 -13.066 -23.849  0.00  0.00    +0.095 C 
BRANCH   5   7
ATOM      6  C   UNL     1      33.272 -13.934 -21.498  0.00  0.00    +0.045 C 
ATOM      7  C   UNL     1      33.814 -14.075 -22.764  0.00  0.00    +0.009 C 
ATOM      8  C   UNL     1      33.578 -14.877 -20.517  0.00  0.00    +0.014 C 
ATOM      9  C   UNL     1      34.656 -15.129 -23.078  0.00  0.00    -0.001 C 
ATOM     10  C   UNL     1      34.423 -15.947 -20.816  0.00  0.00    +0.001 C 
ATOM     11  C   UNL     1      34.961 -16.072 -22.097  0.00  0.00    -0.000 C 
BRANCH   6  12
ATOM     12  N   UNL     1      32.420 -12.869 -21.181  0.00  0.00    -0.308 N 
ATOM     13  C   UNL     1      31.355 -12.545 -22.141  0.00  0.00    +0.091 C 
ATOM     14  C   UNL     1      32.144 -12.561 -19.773  0.00  0.00    +0.091 C 
ATOM     15  C   UNL     1      30.923 -11.088 -21.991  0.00  0.00    +0.021 C 
ATOM     16  C   UNL     1      31.707 -11.105 -19.618  0.00  0.00    +0.021 C 
ATOM     17  C   UNL     1      30.551 -10.763 -20.550  0.00  0.00    +0.004 C 
ENDBRANCH   6  12
ENDBRANCH   5   7
BRANCH   5  18
ATOM     18  C   UNL     1      33.946 -13.506 -25.258  0.00  0.00    +0.024 C 
BRANCH  18  19
ATOM     19  C   UNL     1      32.820 -14.033 -26.173  0.00  0.00    +0.002 C 
ATOM     20  C   UNL     1      32.910 -15.542 -26.398  0.00  0.00    +0.000 C 
ATOM     21  C   UNL     1      32.871 -13.308 -27.521  0.00  0.00    +0.000 C 
ENDBRANCH  18  19
ENDBRANCH   5  18
ENDBRANCH   2   5
BRANCH   3  22
ATOM     22  C   UNL     1      34.555  -9.437 -23.689  0.00  0.00    +0.111 C 
BRANCH  22  23
ATOM     23  C   UNL     1      33.667  -8.267 -23.359  0.00  0.00    -0.010 C 
ATOM     24  C   UNL     1      33.444  -7.287 -24.316  0.00  0.00    +0.033 C 
ATOM     25  C   UNL     1      33.084  -8.186 -22.103  0.00  0.00    -0.003 C 
ATOM     26  C   UNL     1      32.620  -6.203 -24.010  0.00  0.00    +0.144 C 
ATOM     27  C   UNL     1      32.261  -7.103 -21.796  0.00  0.00    +0.009 C 
ATOM     28  C   UNL     1      32.029  -6.111 -22.750  0.00  0.00    +0.109 C 
BRANCH  28  30
ATOM     29  O   UNL     1      30.024  -5.078 -21.954  0.00  0.00    -0.245 OA
ATOM     30  C   UNL     1      31.167  -4.987 -22.410  0.00  0.00    +0.341 C 
BRANCH  30  31
ATOM     31  O   UNL     1      31.761  -3.787 -22.647  0.00  0.00    -0.477 OA
ATOM     32  H   UNL     1      32.291  -3.388 -21.985  0.00  0.00    +0.295 HD
ENDBRANCH  30  31
ENDBRANCH  28  30
BRANCH  26  33
ATOM     33  O   UNL     1      32.407  -5.245 -24.956  0.00  0.00    -0.475 OA
BRANCH  33  34
ATOM     34  C   UNL     1      33.295  -5.228 -26.071  0.00  0.00    +0.206 C 
ATOM     35  C   UNL     1      32.835  -4.167 -27.050  0.00  0.00    +0.051 C 
ENDBRANCH  33  34
ENDBRANCH  26  33
ENDBRANCH  22  23
ENDBRANCH   3  22
TORSDOF 11
ENDMDL
MODEL 3
REMARK VINA RESULT:      -8.5      9.069     13.566
REMARK  Name = 65981
REMARK  11 active torsions:
REMARK  status: ('A' for Active; 'I' for Inactive)
REMARK    1  A    between atoms: N_2  and  C_5
REMARK    2  A    between atoms: C_3  and  C_22
REMARK    3  A    between atoms: C_5  and  C_7
REMARK    4  A    between atoms: C_5  and  C_18
REMARK    5  A    between atoms: C_6  and  N_12
REMARK    6  A    between atoms: C_18  and  C_19
REMARK    7  A    between atoms: C_22  and  C_23
REMARK    8  A    between atoms: C_26  and  O_33
REMARK    9  A    between atoms: C_28  and  C_30
REMARK   10  A    between atoms: C_30  and  O_31
REMARK   11  A    between atoms: O_33  and  C_34
REMARK                            x       y       z     vdW  Elec       q    Type
REMARK                         _______ _______ _______ _____ _____    ______ ____
ROOT
ATOM      1  O   UNL     1      33.762 -10.942 -25.749  0.00  0.00    -0.275 OA
ATOM      2  N   UNL     1      34.184 -11.913 -23.683  0.00  0.00    -0.302 N 
ATOM      3  C   UNL     1      34.242 -10.894 -24.619  0.00  0.00    +0.227 C 
ATOM      4  H   UNL     1      34.602 -11.772 -22.803  0.00  0.00    +0.150 HD
ENDROOT
BRANCH   2   5
ATOM      5  C   UNL     1      33.532 -13.178 -23.951  0.00  0.00    +0.095 C 
BRANCH   5   7
ATOM      6  C   UNL     1      33.347 -14.062 -21.602  0.00  0.00    +0.045 C 
ATOM      7  C   UNL     1      33.879 -14.185 -22.874  0.00  0.00    +0.009 C 
ATOM      8  C   UNL     1      33.683 -15.003 -20.629  0.00  0.00    +0.014 C 
ATOM      9  C   UNL     1      34.738 -15.221 -23.202  0.00  0.00    -0.001 C 
ATOM     10  C   UNL     1      34.547 -16.054 -20.942  0.00  0.00    +0.001 C 
ATOM     11  C   UNL     1      35.074 -16.162 -22.229  0.00  0.00    -0.000 C 
BRANCH   6  12
ATOM     12  N   UNL     1      32.477 -13.017 -21.271  0.00  0.00    -0.308 N 
ATOM     13  C   UNL     1      31.459 -12.642 -22.263  0.00  0.00    +0.091 C 
ATOM     14  C   UNL     1      32.132 -12.785 -19.863  0.00  0.00    +0.091 C 
ATOM     15  C   UNL     1      31.015 -11.196 -22.056  0.00  0.00    +0.021 C 
ATOM     16  C   UNL     1      31.682 -11.340 -19.652  0.00  0.00    +0.021 C 
ATOM     17  C   UNL     1      30.571 -10.949 -20.620  0.00  0.00    +0.004 C 
ENDBRANCH   6  12
ENDBRANCH   5   7
BRANCH   5  18
ATOM     18  C   UNL     1      33.879 -13.646 -25.379  0.00  0.00    +0.024 C 
BRANCH  18  19
ATOM     19  C   UNL     1      32.708 -14.256 -26.177  0.00  0.00    +0.002 C 
ATOM     20  C   UNL     1      32.878 -15.759 -26.406  0.00  0.00    +0.000 C 
ATOM     21  C   UNL     1      32.577 -13.542 -27.525  0.00  0.00    +0.000 C 
ENDBRANCH  18  19
ENDBRANCH   5  18
ENDBRANCH   2   5
BRANCH   3  22
ATOM     22  C   UNL     1      34.977  -9.684 -24.074  0.00  0.00    +0.111 C 
BRANCH  22  23
ATOM     23  C   UNL     1      34.092  -8.481 -23.891  0.00  0.00    -0.010 C 
ATOM     24  C   UNL     1      33.173  -8.460 -22.851  0.00  0.00    +0.033 C 
ATOM     25  C   UNL     1      34.208  -7.408 -24.764  0.00  0.00    -0.003 C 
ATOM     26  C   UNL     1      32.353  -7.344 -22.682  0.00  0.00    +0.144 C 
ATOM     27  C   UNL     1      33.389  -6.293 -24.595  0.00  0.00    +0.009 C 
ATOM     28  C   UNL     1      32.461  -6.260 -23.554  0.00  0.00    +0.109 C 
BRANCH  28  30
ATOM     29  O   UNL     1      30.790  -4.684 -24.222  0.00  0.00    -0.245 OA
ATOM     30  C   UNL     1      31.614  -5.086 -23.395  0.00  0.00    +0.341 C 
BRANCH  30  31
ATOM     31  O   UNL     1      31.821  -4.454 -22.209  0.00  0.00    -0.477 OA
ATOM     32  H   UNL     1      32.310  -4.878 -21.532  0.00  0.00    +0.295 HD
ENDBRANCH  30  31
ENDBRANCH  28  30
BRANCH  26  33
ATOM     33  O   UNL     1      31.453  -7.332 -21.659  0.00  0.00    -0.475 OA
BRANCH  33  34
ATOM     34  C   UNL     1      31.928  -7.728 -20.374  0.00  0.00    +0.206 C 
ATOM     35  C   UNL     1      32.762  -6.607 -19.790  0.00  0.00    +0.051 C 
ENDBRANCH  33  34
ENDBRANCH  26  33
ENDBRANCH  22  23
ENDBRANCH   3  22
TORSDOF 11
ENDMDL
MODEL 4
REMARK VINA RESULT:      -8.4      9.432     14.614
REMARK  Name = 65981
REMARK  11 active torsions:
REMARK  status: ('A' for Active; 'I' for Inactive)
REMARK    1  A    between atoms: N_2  and  C_5
REMARK    2  A    between atoms: C_3  and  C_22
REMARK    3  A    between atoms: C_5  and  C_7
REMARK    4  A    between atoms: C_5  and  C_18
REMARK    5  A    between atoms: C_6  and  N_12
REMARK    6  A    between atoms: C_18  and  C_19
REMARK    7  A    between atoms: C_22  and  C_23
REMARK    8  A    between atoms: C_26  and  O_33
REMARK    9  A    between atoms: C_28  and  C_30
REMARK   10  A    between atoms: C_30  and  O_31
REMARK   11  A    between atoms: O_33  and  C_34
REMARK                            x       y       z     vdW  Elec       q    Type
REMARK                         _______ _______ _______ _____ _____    ______ ____
ROOT
ATOM      1  O   UNL     1      35.905  -9.954 -23.994  0.00  0.00    -0.275 OA
ATOM      2  N   UNL     1      33.597 -10.078 -24.201  0.00  0.00    -0.302 N 
ATOM      3  C   UNL     1      34.831  -9.465 -24.336  0.00  0.00    +0.227 C 
ATOM      4  H   UNL     1      32.793  -9.598 -24.508  0.00  0.00    +0.150 HD
ENDROOT
BRANCH   2   5
ATOM      5  C   UNL     1      33.443 -11.398 -23.625  0.00  0.00    +0.095 C 
BRANCH   5   7
ATOM      6  C   UNL     1      33.443 -13.792 -24.401  0.00  0.00    +0.045 C 
ATOM      7  C   UNL     1      33.401 -12.445 -24.719  0.00  0.00    +0.009 C 
ATOM      8  C   UNL     1      33.402 -14.736 -25.427  0.00  0.00    +0.014 C 
ATOM      9  C   UNL     1      33.322 -12.014 -26.032  0.00  0.00    -0.001 C 
ATOM     10  C   UNL     1      33.323 -14.319 -26.757  0.00  0.00    +0.001 C 
ATOM     11  C   UNL     1      33.282 -12.957 -27.058  0.00  0.00    -0.000 C 
BRANCH   6  12
ATOM     12  N   UNL     1      33.520 -14.228 -23.073  0.00  0.00    -0.308 N 
ATOM     13  C   UNL     1      32.255 -14.466 -22.363  0.00  0.00    +0.091 C 
ATOM     14  C   UNL     1      34.669 -15.035 -22.645  0.00  0.00    +0.091 C 
ATOM     15  C   UNL     1      32.456 -14.346 -20.854  0.00  0.00    +0.021 C 
ATOM     16  C   UNL     1      34.872 -14.922 -21.135  0.00  0.00    +0.021 C 
ATOM     17  C   UNL     1      33.592 -15.239 -20.371  0.00  0.00    +0.004 C 
ENDBRANCH   6  12
ENDBRANCH   5   7
BRANCH   5  18
ATOM     18  C   UNL     1      32.212 -11.416 -22.696  0.00  0.00    +0.024 C 
BRANCH  18  19
ATOM     19  C   UNL     1      31.901 -10.082 -21.986  0.00  0.00    +0.002 C 
ATOM     20  C   UNL     1      31.554 -10.274 -20.509  0.00  0.00    +0.000 C 
ATOM     21  C   UNL     1      30.743  -9.378 -22.699  0.00  0.00    +0.000 C 
ENDBRANCH  18  19
ENDBRANCH   5  18
ENDBRANCH   2   5
BRANCH   3  22
ATOM     22  C   UNL     1      34.701  -8.094 -24.973  0.00  0.00    +0.111 C 
BRANCH  22  23
ATOM     23  C   UNL     1      33.700  -7.208 -24.283  0.00  0.00    -0.010 C 
ATOM     24  C   UNL     1      32.900  -6.362 -25.040  0.00  0.00    +0.033 C 
ATOM     25  C   UNL     1      33.589  -7.249 -22.901  0.00  0.00    -0.003 C 
ATOM     26  C   UNL     1      31.972  -5.540 -24.400  0.00  0.00    +0.144 C 
ATOM     27  C   UNL     1      32.661  -6.427 -22.261  0.00  0.00    +0.009 C 
ATOM     28  C   UNL     1      31.852  -5.573 -23.011  0.00  0.00    +0.109 C 
BRANCH  28  30
ATOM     29  O   UNL     1      29.925  -5.124 -21.668  0.00  0.00    -0.245 OA
ATOM     30  C   UNL     1      30.890  -4.723 -22.323  0.00  0.00    +0.341 C 
BRANCH  30  31
ATOM     31  O   UNL     1      31.167  -3.400 -22.474  0.00  0.00    -0.477 OA
ATOM     32  H   UNL     1      30.520  -2.824 -22.833  0.00  0.00    +0.295 HD
ENDBRANCH  30  31
ENDBRANCH  28  30
BRANCH  26  33
ATOM     33  O   UNL     1      31.191  -4.713 -25.151  0.00  0.00    -0.475 OA
BRANCH  33  34
ATOM     34  C   UNL     1      31.861  -3.757 -25.969  0.00  0.00    +0.206 C 
ATOM     35  C   UNL     1      31.048  -2.480 -26.003  0.00  0.00    +0.051 C 
ENDBRANCH  33  34
ENDBRANCH  26  33
ENDBRANCH  22  23
ENDBRANCH   3  22
TORSDOF 11
ENDMDL
MODEL 5
REMARK VINA RESULT:      -8.0      6.737     12.573
REMARK  Name = 65981
REMARK  11 active torsions:
REMARK  status: ('A' for Active; 'I' for Inactive)
REMARK    1  A    between atoms: N_2  and  C_5
REMARK    2  A    between atoms: C_3  and  C_22
REMARK    3  A    between atoms: C_5  and  C_7
REMARK    4  A    between atoms: C_5  and  C_18
REMARK    5  A    between atoms: C_6  and  N_12
REMARK    6  A    between atoms: C_18  and  C_19
REMARK    7  A    between atoms: C_22  and  C_23
REMARK    8  A    between atoms: C_26  and  O_33
REMARK    9  A    between atoms: C_28  and  C_30
REMARK   10  A    between atoms: C_30  and  O_31
REMARK   11  A    between atoms: O_33  and  C_34
REMARK                            x       y       z     vdW  Elec       q    Type
REMARK                         _______ _______ _______ _____ _____    ______ ____
ROOT
ATOM      1  O   UNL     1      31.598 -13.987 -22.165  0.00  0.00    -0.275 OA
ATOM      2  N   UNL     1      33.146 -12.258 -22.090  0.00  0.00    -0.302 N 
ATOM      3  C   UNL     1      32.629 -13.489 -21.719  0.00  0.00    +0.227 C 
ATOM      4  H   UNL     1      33.982 -11.950 -21.671  0.00  0.00    +0.150 HD
ENDROOT
BRANCH   2   5
ATOM      5  C   UNL     1      32.502 -11.409 -23.071  0.00  0.00    +0.095 C 
BRANCH   5   7
ATOM      6  C   UNL     1      34.101 -11.400 -25.015  0.00  0.00    +0.045 C 
ATOM      7  C   UNL     1      33.542 -10.731 -23.940  0.00  0.00    +0.009 C 
ATOM      8  C   UNL     1      35.056 -10.753 -25.799  0.00  0.00    +0.014 C 
ATOM      9  C   UNL     1      33.911  -9.434 -23.624  0.00  0.00    -0.001 C 
ATOM     10  C   UNL     1      35.439  -9.446 -25.495  0.00  0.00    +0.001 C 
ATOM     11  C   UNL     1      34.865  -8.787 -24.408  0.00  0.00    -0.000 C 
BRANCH   6  12
ATOM     12  N   UNL     1      33.727 -12.711 -25.336  0.00  0.00    -0.308 N 
ATOM     13  C   UNL     1      33.309 -12.977 -26.720  0.00  0.00    +0.091 C 
ATOM     14  C   UNL     1      34.338 -13.832 -24.613  0.00  0.00    +0.091 C 
ATOM     15  C   UNL     1      32.403 -14.204 -26.780  0.00  0.00    +0.021 C 
ATOM     16  C   UNL     1      33.437 -15.065 -24.674  0.00  0.00    +0.021 C 
ATOM     17  C   UNL     1      33.051 -15.408 -26.108  0.00  0.00    +0.004 C 
ENDBRANCH   6  12
ENDBRANCH   5   7
BRANCH   5  18
ATOM     18  C   UNL     1      31.549 -10.429 -22.359  0.00  0.00    +0.024 C 
BRANCH  18  19
ATOM     19  C   UNL     1      31.871 -10.153 -20.876  0.00  0.00    +0.002 C 
ATOM     20  C   UNL     1      30.823 -10.743 -19.931  0.00  0.00    +0.000 C 
ATOM     21  C   UNL     1      31.980  -8.643 -20.645  0.00  0.00    +0.000 C 
ENDBRANCH  18  19
ENDBRANCH   5  18
ENDBRANCH   2   5
BRANCH   3  22
ATOM     22  C   UNL     1      33.504 -14.166 -20.682  0.00  0.00    +0.111 C 
BRANCH  22  23
ATOM     23  C   UNL     1      33.446 -15.669 -20.741  0.00  0.00    -0.010 C 
ATOM     24  C   UNL     1      34.570 -16.381 -21.135  0.00  0.00    +0.033 C 
ATOM     25  C   UNL     1      32.270 -16.320 -20.399  0.00  0.00    -0.003 C 
ATOM     26  C   UNL     1      34.515 -17.775 -21.189  0.00  0.00    +0.144 C 
ATOM     27  C   UNL     1      32.215 -17.713 -20.454  0.00  0.00    +0.009 C 
ATOM     28  C   UNL     1      33.338 -18.440 -20.849  0.00  0.00    +0.109 C 
BRANCH  28  30
ATOM     29  O   UNL     1      32.295 -20.541 -21.315  0.00  0.00    -0.245 OA
ATOM     30  C   UNL     1      33.259 -19.894 -20.900  0.00  0.00    +0.341 C 
BRANCH  30  31
ATOM     31  O   UNL     1      34.389 -20.491 -20.433  0.00  0.00    -0.477 OA
ATOM     32  H   UNL     1      34.388 -20.902 -19.591  0.00  0.00    +0.295 HD
ENDBRANCH  30  31
ENDBRANCH  28  30
BRANCH  26  33
ATOM     33  O   UNL     1      35.623 -18.466 -21.578  0.00  0.00    -0.475 OA
BRANCH  33  34
ATOM     34  C   UNL     1      36.080 -18.260 -22.913  0.00  0.00    +0.206 C 
ATOM     35  C   UNL     1      35.107 -18.914 -23.873  0.00  0.00    +0.051 C 
ENDBRANCH  33  34
ENDBRANCH  26  33
ENDBRANCH  22  23
ENDBRANCH   3  22
TORSDOF 11
ENDMDL
MODEL 6
REMARK VINA RESULT:      -8.0      1.096      2.078
REMARK  Name = 65981
REMARK  11 active torsions:
REMARK  status: ('A' for Active; 'I' for Inactive)
REMARK    1  A    between atoms: N_2  and  C_5
REMARK    2  A    between atoms: C_3  and  C_22
REMARK    3  A    between atoms: C_5  and  C_7
REMARK    4  A    between atoms: C_5  and  C_18
REMARK    5  A    between atoms: C_6  and  N_12
REMARK    6  A    between atoms: C_18  and  C_19
REMARK    7  A    between atoms: C_22  and  C_23
REMARK    8  A    between atoms: C_26  and  O_33
REMARK    9  A    between atoms: C_28  and  C_30
REMARK   10  A    between atoms: C_30  and  O_31
REMARK   11  A    between atoms: O_33  and  C_34
REMARK                            x       y       z     vdW  Elec       q    Type
REMARK                         _______ _______ _______ _____ _____    ______ ____
ROOT
ATOM      1  O   UNL     1      35.179 -22.967 -19.451  0.00  0.00    -0.275 OA
ATOM      2  N   UNL     1      33.522 -22.581 -17.872  0.00  0.00    -0.302 N 
ATOM      3  C   UNL     1      34.064 -22.550 -19.146  0.00  0.00    +0.227 C 
ATOM      4  H   UNL     1      32.616 -22.220 -17.734  0.00  0.00    +0.150 HD
ENDROOT
BRANCH   2   5
ATOM      5  C   UNL     1      34.237 -23.123 -16.736  0.00  0.00    +0.095 C 
BRANCH   5   7
ATOM      6  C   UNL     1      33.702 -24.227 -14.538  0.00  0.00    +0.045 C 
ATOM      7  C   UNL     1      33.264 -23.522 -15.646  0.00  0.00    +0.009 C 
ATOM      8  C   UNL     1      32.786 -24.582 -13.549  0.00  0.00    +0.014 C 
ATOM      9  C   UNL     1      31.934 -23.163 -15.795  0.00  0.00    -0.001 C 
ATOM     10  C   UNL     1      31.442 -24.228 -13.682  0.00  0.00    +0.001 C 
ATOM     11  C   UNL     1      31.018 -23.518 -14.805  0.00  0.00    -0.000 C 
BRANCH   6  12
ATOM     12  N   UNL     1      35.047 -24.589 -14.386  0.00  0.00    -0.308 N 
ATOM     13  C   UNL     1      35.715 -24.201 -13.136  0.00  0.00    +0.091 C 
ATOM     14  C   UNL     1      35.545 -25.802 -15.044  0.00  0.00    +0.091 C 
ATOM     15  C   UNL     1      37.226 -24.113 -13.340  0.00  0.00    +0.021 C 
ATOM     16  C   UNL     1      37.058 -25.720 -15.247  0.00  0.00    +0.021 C 
ATOM     17  C   UNL     1      37.782 -25.395 -13.946  0.00  0.00    +0.004 C 
ENDBRANCH   6  12
ENDBRANCH   5   7
BRANCH   5  18
ATOM     18  C   UNL     1      35.312 -22.119 -16.275  0.00  0.00    +0.024 C 
BRANCH  18  19
ATOM     19  C   UNL     1      36.673 -22.232 -16.993  0.00  0.00    +0.002 C 
ATOM     20  C   UNL     1      37.823 -22.509 -16.024  0.00  0.00    +0.000 C 
ATOM     21  C   UNL     1      36.954 -20.943 -17.770  0.00  0.00    +0.000 C 
ENDBRANCH  18  19
ENDBRANCH   5  18
ENDBRANCH   2   5
BRANCH   3  22
ATOM     22  C   UNL     1      33.100 -21.935 -20.143  0.00  0.00    +0.111 C 
BRANCH  22  23
ATOM     23  C   UNL     1      33.380 -20.485 -20.428  0.00  0.00    -0.010 C 
ATOM     24  C   UNL     1      34.676 -20.083 -20.718  0.00  0.00    +0.033 C 
ATOM     25  C   UNL     1      32.337 -19.569 -20.398  0.00  0.00    -0.003 C 
ATOM     26  C   UNL     1      34.935 -18.737 -20.983  0.00  0.00    +0.144 C 
ATOM     27  C   UNL     1      32.596 -18.224 -20.662  0.00  0.00    +0.009 C 
ATOM     28  C   UNL     1      33.896 -17.808 -20.955  0.00  0.00    +0.109 C 
BRANCH  28  30
ATOM     29  O   UNL     1      33.653 -15.756 -22.158  0.00  0.00    -0.245 OA
ATOM     30  C   UNL     1      34.144 -16.399 -21.227  0.00  0.00    +0.341 C 
BRANCH  30  31
ATOM     31  O   UNL     1      34.996 -15.840 -20.327  0.00  0.00    -0.477 OA
ATOM     32  H   UNL     1      34.658 -15.347 -19.605  0.00  0.00    +0.295 HD
ENDBRANCH  30  31
ENDBRANCH  28  30
BRANCH  26  33
ATOM     33  O   UNL     1      36.211 -18.352 -21.266  0.00  0.00    -0.475 OA
BRANCH  33  34
ATOM     34  C   UNL     1      36.733 -18.724 -22.539  0.00  0.00    +0.206 C 
ATOM     35  C   UNL     1      35.681 -18.467 -23.598  0.00  0.00    +0.051 C 
ENDBRANCH  33  34
ENDBRANCH  26  33
ENDBRANCH  22  23
ENDBRANCH   3  22
TORSDOF 11
ENDMDL
MODEL 7
REMARK VINA RESULT:      -8.0      9.443     14.748
REMARK  Name = 65981
REMARK  11 active torsions:
REMARK  status: ('A' for Active; 'I' for Inactive)
REMARK    1  A    between atoms: N_2  and  C_5
REMARK    2  A    between atoms: C_3  and  C_22
REMARK    3  A    between atoms: C_5  and  C_7
REMARK    4  A    between atoms: C_5  and  C_18
REMARK    5  A    between atoms: C_6  and  N_12
REMARK    6  A    between atoms: C_18  and  C_19
REMARK    7  A    between atoms: C_22  and  C_23
REMARK    8  A    between atoms: C_26  and  O_33
REMARK    9  A    between atoms: C_28  and  C_30
REMARK   10  A    between atoms: C_30  and  O_31
REMARK   11  A    between atoms: O_33  and  C_34
REMARK                            x       y       z     vdW  Elec       q    Type
REMARK                         _______ _______ _______ _____ _____    ______ ____
ROOT
ATOM      1  O   UNL     1      32.394  -8.892 -24.032  0.00  0.00    -0.275 OA
ATOM      2  N   UNL     1      34.237 -10.233 -23.592  0.00  0.00    -0.302 N 
ATOM      3  C   UNL     1      33.610  -9.054 -23.957  0.00  0.00    +0.227 C 
ATOM      4  H   UNL     1      35.221 -10.257 -23.563  0.00  0.00    +0.150 HD
ENDROOT
BRANCH   2   5
ATOM      5  C   UNL     1      33.500 -11.432 -23.250  0.00  0.00    +0.095 C 
BRANCH   5   7
ATOM      6  C   UNL     1      33.515 -13.756 -24.216  0.00  0.00    +0.045 C 
ATOM      7  C   UNL     1      33.481 -12.388 -24.425  0.00  0.00    +0.009 C 
ATOM      8  C   UNL     1      33.496 -14.615 -25.315  0.00  0.00    +0.014 C 
ATOM      9  C   UNL     1      33.431 -11.852 -25.701  0.00  0.00    -0.001 C 
ATOM     10  C   UNL     1      33.445 -14.092 -26.608  0.00  0.00    +0.001 C 
ATOM     11  C   UNL     1      33.412 -12.711 -26.800  0.00  0.00    -0.000 C 
BRANCH   6  12
ATOM     12  N   UNL     1      33.564 -14.298 -22.926  0.00  0.00    -0.308 N 
ATOM     13  C   UNL     1      32.294 -14.430 -22.198  0.00  0.00    +0.091 C 
ATOM     14  C   UNL     1      34.611 -15.271 -22.592  0.00  0.00    +0.091 C 
ATOM     15  C   UNL     1      32.539 -14.450 -20.691  0.00  0.00    +0.021 C 
ATOM     16  C   UNL     1      34.857 -15.298 -21.084  0.00  0.00    +0.021 C 
ATOM     17  C   UNL     1      33.563 -15.511 -20.307  0.00  0.00    +0.004 C 
ENDBRANCH   6  12
ENDBRANCH   5   7
BRANCH   5  18
ATOM     18  C   UNL     1      32.098 -11.047 -22.736  0.00  0.00    +0.024 C 
BRANCH  18  19
ATOM     19  C   UNL     1      31.974 -10.896 -21.205  0.00  0.00    +0.002 C 
ATOM     20  C   UNL     1      30.631 -11.400 -20.676  0.00  0.00    +0.000 C 
ATOM     21  C   UNL     1      32.162  -9.426 -20.818  0.00  0.00    +0.000 C 
ENDBRANCH  18  19
ENDBRANCH   5  18
ENDBRANCH   2   5
BRANCH   3  22
ATOM     22  C   UNL     1      34.619  -7.961 -24.255  0.00  0.00    +0.111 C 
BRANCH  22  23
ATOM     23  C   UNL     1      34.001  -6.726 -24.855  0.00  0.00    -0.010 C 
ATOM     24  C   UNL     1      32.840  -6.204 -24.301  0.00  0.00    +0.033 C 
ATOM     25  C   UNL     1      34.602  -6.126 -25.953  0.00  0.00    -0.003 C 
ATOM     26  C   UNL     1      32.269  -5.059 -24.857  0.00  0.00    +0.144 C 
ATOM     27  C   UNL     1      34.031  -4.982 -26.509  0.00  0.00    +0.009 C 
ATOM     28  C   UNL     1      32.864  -4.448 -25.961  0.00  0.00    +0.109 C 
BRANCH  28  30
ATOM     29  O   UNL     1      31.836  -3.174 -27.705  0.00  0.00    -0.245 OA
ATOM     30  C   UNL     1      32.283  -3.253 -26.557  0.00  0.00    +0.341 C 
BRANCH  30  31
ATOM     31  O   UNL     1      32.277  -2.197 -25.701  0.00  0.00    -0.477 OA
ATOM     32  H   UNL     1      33.065  -1.715 -25.546  0.00  0.00    +0.295 HD
ENDBRANCH  30  31
ENDBRANCH  28  30
BRANCH  26  33
ATOM     33  O   UNL     1      31.129  -4.554 -24.307  0.00  0.00    -0.475 OA
BRANCH  33  34
ATOM     34  C   UNL     1      31.200  -4.124 -22.950  0.00  0.00    +0.206 C 
ATOM     35  C   UNL     1      30.448  -5.110 -22.080  0.00  0.00    +0.051 C 
ENDBRANCH  33  34
ENDBRANCH  26  33
ENDBRANCH  22  23
ENDBRANCH   3  22
TORSDOF 11
ENDMDL
MODEL 8
REMARK VINA RESULT:      -7.9      9.362     14.238
REMARK  Name = 65981
REMARK  11 active torsions:
REMARK  status: ('A' for Active; 'I' for Inactive)
REMARK    1  A    between atoms: N_2  and  C_5
REMARK    2  A    between atoms: C_3  and  C_22
REMARK    3  A    between atoms: C_5  and  C_7
REMARK    4  A    between atoms: C_5  and  C_18
REMARK    5  A    between atoms: C_6  and  N_12
REMARK    6  A    between atoms: C_18  and  C_19
REMARK    7  A    between atoms: C_22  and  C_23
REMARK    8  A    between atoms: C_26  and  O_33
REMARK    9  A    between atoms: C_28  and  C_30
REMARK   10  A    between atoms: C_30  and  O_31
REMARK   11  A    between atoms: O_33  and  C_34
REMARK                            x       y       z     vdW  Elec       q    Type
REMARK                         _______ _______ _______ _____ _____    ______ ____
ROOT
ATOM      1  O   UNL     1      35.703 -10.026 -23.885  0.00  0.00    -0.275 OA
ATOM      2  N   UNL     1      33.428 -10.239 -24.292  0.00  0.00    -0.302 N 
ATOM      3  C   UNL     1      34.647  -9.582 -24.329  0.00  0.00    +0.227 C 
ATOM      4  H   UNL     1      32.638  -9.794 -24.678  0.00  0.00    +0.150 HD
ENDROOT
BRANCH   2   5
ATOM      5  C   UNL     1      33.271 -11.555 -23.709  0.00  0.00    +0.095 C 
BRANCH   5   7
ATOM      6  C   UNL     1      33.476 -13.952 -24.449  0.00  0.00    +0.045 C 
ATOM      7  C   UNL     1      33.335 -12.617 -24.788  0.00  0.00    +0.009 C 
ATOM      8  C   UNL     1      33.531 -14.910 -25.462  0.00  0.00    +0.014 C 
ATOM      9  C   UNL     1      33.250 -12.211 -26.109  0.00  0.00    -0.001 C 
ATOM     10  C   UNL     1      33.447 -14.518 -26.799  0.00  0.00    +0.001 C 
ATOM     11  C   UNL     1      33.305 -13.168 -27.121  0.00  0.00    -0.000 C 
BRANCH   6  12
ATOM     12  N   UNL     1      33.560 -14.363 -23.113  0.00  0.00    -0.308 N 
ATOM     13  C   UNL     1      32.298 -14.562 -22.385  0.00  0.00    +0.091 C 
ATOM     14  C   UNL     1      34.698 -15.183 -22.682  0.00  0.00    +0.091 C 
ATOM     15  C   UNL     1      32.518 -14.416 -20.882  0.00  0.00    +0.021 C 
ATOM     16  C   UNL     1      34.920 -15.043 -21.176  0.00  0.00    +0.021 C 
ATOM     17  C   UNL     1      33.642 -15.321 -20.392  0.00  0.00    +0.004 C 
ENDBRANCH   6  12
ENDBRANCH   5   7
BRANCH   5  18
ATOM     18  C   UNL     1      31.980 -11.597 -22.868  0.00  0.00    +0.024 C 
BRANCH  18  19
ATOM     19  C   UNL     1      31.773 -10.400 -21.916  0.00  0.00    +0.002 C 
ATOM     20  C   UNL     1      31.221 -10.826 -20.555  0.00  0.00    +0.000 C 
ATOM     21  C   UNL     1      30.823  -9.388 -22.562  0.00  0.00    +0.000 C 
ENDBRANCH  18  19
ENDBRANCH   5  18
ENDBRANCH   2   5
BRANCH   3  22
ATOM     22  C   UNL     1      34.525  -8.227 -24.999  0.00  0.00    +0.111 C 
BRANCH  22  23
ATOM     23  C   UNL     1      33.553  -7.306 -24.311  0.00  0.00    -0.010 C 
ATOM     24  C   UNL     1      33.576  -7.198 -22.927  0.00  0.00    +0.033 C 
ATOM     25  C   UNL     1      32.649  -6.576 -25.070  0.00  0.00    -0.003 C 
ATOM     26  C   UNL     1      32.675  -6.344 -22.290  0.00  0.00    +0.144 C 
ATOM     27  C   UNL     1      31.749  -5.723 -24.434  0.00  0.00    +0.009 C 
ATOM     28  C   UNL     1      31.761  -5.607 -23.043  0.00  0.00    +0.109 C 
BRANCH  28  30
ATOM     29  O   UNL     1      30.532  -3.572 -22.783  0.00  0.00    -0.245 OA
ATOM     30  C   UNL     1      30.812  -4.710 -22.398  0.00  0.00    +0.341 C 
BRANCH  30  31
ATOM     31  O   UNL     1      30.241  -5.266 -21.295  0.00  0.00    -0.477 OA
ATOM     32  H   UNL     1      30.567  -5.054 -20.442  0.00  0.00    +0.295 HD
ENDBRANCH  30  31
ENDBRANCH  28  30
BRANCH  26  33
ATOM     33  O   UNL     1      32.703  -6.246 -20.931  0.00  0.00    -0.475 OA
BRANCH  33  34
ATOM     34  C   UNL     1      32.994  -7.435 -20.201  0.00  0.00    +0.206 C 
ATOM     35  C   UNL     1      31.795  -7.798 -19.351  0.00  0.00    +0.051 C 
ENDBRANCH  33  34
ENDBRANCH  26  33
ENDBRANCH  22  23
ENDBRANCH   3  22
TORSDOF 11
ENDMDL
MODEL 9
REMARK VINA RESULT:      -7.9      8.120     13.172
REMARK  Name = 65981
REMARK  11 active torsions:
REMARK  status: ('A' for Active; 'I' for Inactive)
REMARK    1  A    between atoms: N_2  and  C_5
REMARK    2  A    between atoms: C_3  and  C_22
REMARK    3  A    between atoms: C_5  and  C_7
REMARK    4  A    between atoms: C_5  and  C_18
REMARK    5  A    between atoms: C_6  and  N_12
REMARK    6  A    between atoms: C_18  and  C_19
REMARK    7  A    between atoms: C_22  and  C_23
REMARK    8  A    between atoms: C_26  and  O_33
REMARK    9  A    between atoms: C_28  and  C_30
REMARK   10  A    between atoms: C_30  and  O_31
REMARK   11  A    between atoms: O_33  and  C_34
REMARK                            x       y       z     vdW  Elec       q    Type
REMARK                         _______ _______ _______ _____ _____    ______ ____
ROOT
ATOM      1  O   UNL     1      32.013 -11.099 -23.382  0.00  0.00    -0.275 OA
ATOM      2  N   UNL     1      34.091 -12.132 -23.326  0.00  0.00    -0.302 N 
ATOM      3  C   UNL     1      33.238 -11.048 -23.454  0.00  0.00    +0.227 C 
ATOM      4  H   UNL     1      35.061 -11.983 -23.400  0.00  0.00    +0.150 HD
ENDROOT
BRANCH   2   5
ATOM      5  C   UNL     1      33.608 -13.477 -23.089  0.00  0.00    +0.095 C 
BRANCH   5   7
ATOM      6  C   UNL     1      33.753 -15.549 -24.509  0.00  0.00    +0.045 C 
ATOM      7  C   UNL     1      33.426 -14.208 -24.402  0.00  0.00    +0.009 C 
ATOM      8  C   UNL     1      33.575 -16.199 -25.730  0.00  0.00    +0.014 C 
ATOM      9  C   UNL     1      32.928 -13.497 -25.481  0.00  0.00    -0.001 C 
ATOM     10  C   UNL     1      33.074 -15.498 -26.828  0.00  0.00    +0.001 C 
ATOM     11  C   UNL     1      32.750 -14.147 -26.702  0.00  0.00    -0.000 C 
BRANCH   6  12
ATOM     12  N   UNL     1      34.254 -16.269 -23.418  0.00  0.00    -0.308 N 
ATOM     13  C   UNL     1      34.652 -17.665 -23.652  0.00  0.00    +0.091 C 
ATOM     14  C   UNL     1      34.969 -15.557 -22.352  0.00  0.00    +0.091 C 
ATOM     15  C   UNL     1      34.599 -18.463 -22.351  0.00  0.00    +0.021 C 
ATOM     16  C   UNL     1      34.922 -16.354 -21.049  0.00  0.00    +0.021 C 
ATOM     17  C   UNL     1      35.404 -17.787 -21.249  0.00  0.00    +0.004 C 
ENDBRANCH   6  12
ENDBRANCH   5   7
BRANCH   5  18
ATOM     18  C   UNL     1      32.333 -13.422 -22.223  0.00  0.00    +0.024 C 
BRANCH  18  19
ATOM     19  C   UNL     1      32.572 -13.371 -20.699  0.00  0.00    +0.002 C 
ATOM     20  C   UNL     1      32.214 -14.688 -20.008  0.00  0.00    +0.000 C 
ATOM     21  C   UNL     1      31.752 -12.231 -20.088  0.00  0.00    +0.000 C 
ENDBRANCH  18  19
ENDBRANCH   5  18
ENDBRANCH   2   5
BRANCH   3  22
ATOM     22  C   UNL     1      34.009  -9.764 -23.692  0.00  0.00    +0.111 C 
BRANCH  22  23
ATOM     23  C   UNL     1      33.231  -8.526 -23.336  0.00  0.00    -0.010 C 
ATOM     24  C   UNL     1      33.014  -7.553 -24.303  0.00  0.00    +0.033 C 
ATOM     25  C   UNL     1      32.740  -8.374 -22.047  0.00  0.00    -0.003 C 
ATOM     26  C   UNL     1      32.292  -6.406 -23.972  0.00  0.00    +0.144 C 
ATOM     27  C   UNL     1      32.019  -7.227 -21.717  0.00  0.00    +0.009 C 
ATOM     28  C   UNL     1      31.795  -6.242 -22.680  0.00  0.00    +0.109 C 
BRANCH  28  30
ATOM     29  O   UNL     1      29.906  -5.049 -21.826  0.00  0.00    -0.245 OA
ATOM     30  C   UNL     1      31.040  -5.052 -22.314  0.00  0.00    +0.341 C 
BRANCH  30  31
ATOM     31  O   UNL     1      31.725  -3.905 -22.567  0.00  0.00    -0.477 OA
ATOM     32  H   UNL     1      32.439  -3.654 -22.013  0.00  0.00    +0.295 HD
ENDBRANCH  30  31
ENDBRANCH  28  30
BRANCH  26  33
ATOM     33  O   UNL     1      32.085  -5.456 -24.927  0.00  0.00    -0.475 OA
BRANCH  33  34
ATOM     34  C   UNL     1      33.080  -5.328 -25.940  0.00  0.00    +0.206 C 
ATOM     35  C   UNL     1      32.997  -3.940 -26.540  0.00  0.00    +0.051 C 
ENDBRANCH  33  34
ENDBRANCH  26  33
ENDBRANCH  22  23
ENDBRANCH   3  22
TORSDOF 11
ENDMDL
