MODEL 1
REMARK VINA RESULT:      -8.1      0.000      0.000
REMARK  Name = 445896
REMARK  8 active torsions:
REMARK  status: ('A' for Active; 'I' for Inactive)
REMARK    1  A    between atoms: C_1  and  C_2
REMARK    2  A    between atoms: C_1  and  O_11
REMARK    3  A    between atoms: C_1  and  CA_13
REMARK    4  A    between atoms: C_7  and  N_8
REMARK    5  A    between atoms: CA_13  and  N_15
REMARK    6  A    between atoms: CA_13  and  C_21
REMARK    7  A    between atoms: C_16  and  C_20
REMARK    8  A    between atoms: C_21  and  O_22
REMARK                            x       y       z     vdW  Elec       q    Type
REMARK                         _______ _______ _______ _____ _____    ______ ____
ROOT
ATOM      1  C   UNL     1      35.750 -18.327 -21.808  0.00  0.00    +0.153 C 
ENDROOT
BRANCH   1   2
ATOM      2  C   UNL     1      34.992 -19.378 -21.028  0.00  0.00    +0.006 C 
ATOM      3  C   UNL     1      33.614 -19.286 -20.931  0.00  0.00    -0.001 C 
ATOM      4  C   UNL     1      35.693 -20.410 -20.426  0.00  0.00    -0.001 C 
ATOM      5  C   UNL     1      32.915 -20.255 -20.211  0.00  0.00    +0.014 C 
ATOM      6  C   UNL     1      34.993 -21.379 -19.705  0.00  0.00    +0.014 C 
ATOM      7  C   UNL     1      33.605 -21.301 -19.598  0.00  0.00    +0.042 C 
BRANCH   7   8
ATOM      8  N   UNL     1      32.898 -22.282 -18.870  0.00  0.00    -0.357 N 
ATOM      9  H   UNL     1      33.387 -23.009 -18.421  0.00  0.00    +0.142 HD
ATOM     10  H   UNL     1      31.917 -22.238 -18.811  0.00  0.00    +0.142 HD
ENDBRANCH   7   8
ENDBRANCH   1   2
BRANCH   1  11
ATOM     11  O   UNL     1      37.137 -18.672 -21.739  0.00  0.00    -0.378 OA
ATOM     12  H   UNL     1      37.438 -18.619 -20.819  0.00  0.00    +0.211 HD
ENDBRANCH   1  11
BRANCH   1  13
ATOM     13  CA  UNL     1      35.322 -18.217 -23.288  0.00  0.00    +0.132 C 
BRANCH  13  15
ATOM     14  O   UNL     1      34.949 -16.747 -25.721  0.00  0.00    -0.272 OA
ATOM     15  N   UNL     1      34.493 -17.040 -23.467  0.00  0.00    -0.299 N 
ATOM     16  C   UNL     1      34.379 -16.400 -24.687  0.00  0.00    +0.253 C 
ATOM     17  H   UNL     1      33.996 -16.685 -22.695  0.00  0.00    +0.150 HD
BRANCH  16  20
ATOM     18 CL   UNL     1      34.208 -13.987 -23.576  0.00  0.00    -0.087 Cl
ATOM     19 CL   UNL     1      33.256 -14.582 -26.273  0.00  0.00    -0.087 Cl
ATOM     20  C   UNL     1      33.460 -15.201 -24.626  0.00  0.00    +0.234 C 
ENDBRANCH  16  20
ENDBRANCH  13  15
BRANCH  13  21
ATOM     21  C   UNL     1      34.580 -19.448 -23.820  0.00  0.00    +0.159 C 
BRANCH  21  22
ATOM     22  O   UNL     1      34.972 -19.761 -25.150  0.00  0.00    -0.380 OA
ATOM     23  H   UNL     1      35.365 -20.648 -25.172  0.00  0.00    +0.211 HD
ENDBRANCH  21  22
ENDBRANCH  13  21
ENDBRANCH   1  13
TORSDOF 8
ENDMDL
MODEL 2
REMARK VINA RESULT:      -7.9      2.130      2.718
REMARK  Name = 445896
REMARK  8 active torsions:
REMARK  status: ('A' for Active; 'I' for Inactive)
REMARK    1  A    between atoms: C_1  and  C_2
REMARK    2  A    between atoms: C_1  and  O_11
REMARK    3  A    between atoms: C_1  and  CA_13
REMARK    4  A    between atoms: C_7  and  N_8
REMARK    5  A    between atoms: CA_13  and  N_15
REMARK    6  A    between atoms: CA_13  and  C_21
REMARK    7  A    between atoms: C_16  and  C_20
REMARK    8  A    between atoms: C_21  and  O_22
REMARK                            x       y       z     vdW  Elec       q    Type
REMARK                         _______ _______ _______ _____ _____    ______ ____
ROOT
ATOM      1  C   UNL     1      35.351 -17.607 -21.802  0.00  0.00    +0.153 C 
ENDROOT
BRANCH   1   2
ATOM      2  C   UNL     1      34.799 -18.854 -21.148  0.00  0.00    +0.006 C 
ATOM      3  C   UNL     1      33.427 -19.021 -21.061  0.00  0.00    -0.001 C 
ATOM      4  C   UNL     1      35.677 -19.802 -20.650  0.00  0.00    -0.001 C 
ATOM      5  C   UNL     1      32.919 -20.171 -20.457  0.00  0.00    +0.014 C 
ATOM      6  C   UNL     1      35.168 -20.952 -20.046  0.00  0.00    +0.014 C 
ATOM      7  C   UNL     1      33.789 -21.136 -19.949  0.00  0.00    +0.042 C 
BRANCH   7   8
ATOM      8  N   UNL     1      33.274 -22.300 -19.339  0.00  0.00    -0.357 N 
ATOM      9  H   UNL     1      32.342 -22.571 -19.504  0.00  0.00    +0.142 HD
ATOM     10  H   UNL     1      33.847 -22.840 -18.750  0.00  0.00    +0.142 HD
ENDBRANCH   7   8
ENDBRANCH   1   2
BRANCH   1  11
ATOM     11  O   UNL     1      35.683 -17.952 -23.151  0.00  0.00    -0.378 OA
ATOM     12  H   UNL     1      36.612 -18.225 -23.195  0.00  0.00    +0.211 HD
ENDBRANCH   1  11
BRANCH   1  13
ATOM     13  CA  UNL     1      34.369 -16.415 -21.804  0.00  0.00    +0.132 C 
BRANCH  13  15
ATOM     14  O   UNL     1      32.416 -14.665 -22.964  0.00  0.00    -0.272 OA
ATOM     15  N   UNL     1      34.499 -15.680 -23.049  0.00  0.00    -0.299 N 
ATOM     16  C   UNL     1      33.495 -14.858 -23.525  0.00  0.00    +0.253 C 
ATOM     17  H   UNL     1      35.328 -15.771 -23.571  0.00  0.00    +0.150 HD
BRANCH  16  20
ATOM     18 CL   UNL     1      32.748 -14.791 -26.079  0.00  0.00    -0.087 Cl
ATOM     19 CL   UNL     1      33.716 -12.447 -24.629  0.00  0.00    -0.087 Cl
ATOM     20  C   UNL     1      33.862 -14.200 -24.836  0.00  0.00    +0.234 C 
ENDBRANCH  16  20
ENDBRANCH  13  15
BRANCH  13  21
ATOM     21  C   UNL     1      34.546 -15.453 -20.624  0.00  0.00    +0.159 C 
BRANCH  21  22
ATOM     22  O   UNL     1      33.295 -14.984 -20.139  0.00  0.00    -0.380 OA
ATOM     23  H   UNL     1      33.010 -14.220 -20.664  0.00  0.00    +0.211 HD
ENDBRANCH  21  22
ENDBRANCH  13  21
ENDBRANCH   1  13
TORSDOF 8
ENDMDL
MODEL 3
REMARK VINA RESULT:      -7.9      4.123      6.261
REMARK  Name = 445896
REMARK  8 active torsions:
REMARK  status: ('A' for Active; 'I' for Inactive)
REMARK    1  A    between atoms: C_1  and  C_2
REMARK    2  A    between atoms: C_1  and  O_11
REMARK    3  A    between atoms: C_1  and  CA_13
REMARK    4  A    between atoms: C_7  and  N_8
REMARK    5  A    between atoms: CA_13  and  N_15
REMARK    6  A    between atoms: CA_13  and  C_21
REMARK    7  A    between atoms: C_16  and  C_20
REMARK    8  A    between atoms: C_21  and  O_22
REMARK                            x       y       z     vdW  Elec       q    Type
REMARK                         _______ _______ _______ _____ _____    ______ ____
ROOT
ATOM      1  C   UNL     1      35.060 -17.081 -21.610  0.00  0.00    +0.153 C 
ENDROOT
BRANCH   1   2
ATOM      2  C   UNL     1      34.142 -15.893 -21.791  0.00  0.00    +0.006 C 
ATOM      3  C   UNL     1      33.492 -15.366 -20.688  0.00  0.00    -0.001 C 
ATOM      4  C   UNL     1      33.971 -15.356 -23.057  0.00  0.00    -0.001 C 
ATOM      5  C   UNL     1      32.645 -14.270 -20.855  0.00  0.00    +0.014 C 
ATOM      6  C   UNL     1      33.124 -14.260 -23.224  0.00  0.00    +0.014 C 
ATOM      7  C   UNL     1      32.461 -13.718 -22.123  0.00  0.00    +0.042 C 
BRANCH   7   8
ATOM      8  N   UNL     1      31.605 -12.609 -22.292  0.00  0.00    -0.357 N 
ATOM      9  H   UNL     1      30.799 -12.520 -21.734  0.00  0.00    +0.142 HD
ATOM     10  H   UNL     1      31.814 -11.924 -22.967  0.00  0.00    +0.142 HD
ENDBRANCH   7   8
ENDBRANCH   1   2
BRANCH   1  11
ATOM     11  O   UNL     1      35.517 -17.056 -20.255  0.00  0.00    -0.378 OA
ATOM     12  H   UNL     1      35.390 -17.930 -19.855  0.00  0.00    +0.211 HD
ENDBRANCH   1  11
BRANCH   1  13
ATOM     13  CA  UNL     1      34.386 -18.441 -21.899  0.00  0.00    +0.132 C 
BRANCH  13  15
ATOM     14  O   UNL     1      32.792 -20.473 -20.655  0.00  0.00    -0.272 OA
ATOM     15  N   UNL     1      34.840 -19.423 -20.932  0.00  0.00    -0.299 N 
ATOM     16  C   UNL     1      33.989 -20.366 -20.389  0.00  0.00    +0.253 C 
ATOM     17  H   UNL     1      35.784 -19.417 -20.654  0.00  0.00    +0.150 HD
BRANCH  16  20
ATOM     18 CL   UNL     1      33.884 -22.854 -19.449  0.00  0.00    -0.087 Cl
ATOM     19 CL   UNL     1      36.385 -21.416 -19.904  0.00  0.00    -0.087 Cl
ATOM     20  C   UNL     1      34.690 -21.278 -19.408  0.00  0.00    +0.234 C 
ENDBRANCH  16  20
ENDBRANCH  13  15
BRANCH  13  21
ATOM     21  C   UNL     1      34.628 -18.972 -23.316  0.00  0.00    +0.159 C 
BRANCH  21  22
ATOM     22  O   UNL     1      35.721 -18.313 -23.944  0.00  0.00    -0.380 OA
ATOM     23  H   UNL     1      35.680 -17.364 -23.751  0.00  0.00    +0.211 HD
ENDBRANCH  21  22
ENDBRANCH  13  21
ENDBRANCH   1  13
TORSDOF 8
ENDMDL
MODEL 4
REMARK VINA RESULT:      -7.8      9.599     11.259
REMARK  Name = 445896
REMARK  8 active torsions:
REMARK  status: ('A' for Active; 'I' for Inactive)
REMARK    1  A    between atoms: C_1  and  C_2
REMARK    2  A    between atoms: C_1  and  O_11
REMARK    3  A    between atoms: C_1  and  CA_13
REMARK    4  A    between atoms: C_7  and  N_8
REMARK    5  A    between atoms: CA_13  and  N_15
REMARK    6  A    between atoms: CA_13  and  C_21
REMARK    7  A    between atoms: C_16  and  C_20
REMARK    8  A    between atoms: C_21  and  O_22
REMARK                            x       y       z     vdW  Elec       q    Type
REMARK                         _______ _______ _______ _____ _____    ______ ____
ROOT
ATOM      1  C   UNL     1      33.712 -23.948 -13.844  0.00  0.00    +0.153 C 
ENDROOT
BRANCH   1   2
ATOM      2  C   UNL     1      32.275 -23.983 -14.314  0.00  0.00    +0.006 C 
ATOM      3  C   UNL     1      31.505 -25.104 -14.053  0.00  0.00    -0.001 C 
ATOM      4  C   UNL     1      31.759 -22.893 -14.995  0.00  0.00    -0.001 C 
ATOM      5  C   UNL     1      30.180 -25.137 -14.487  0.00  0.00    +0.014 C 
ATOM      6  C   UNL     1      30.433 -22.926 -15.429  0.00  0.00    +0.014 C 
ATOM      7  C   UNL     1      29.644 -24.049 -15.175  0.00  0.00    +0.042 C 
BRANCH   7   8
ATOM      8  N   UNL     1      28.303 -24.081 -15.613  0.00  0.00    -0.357 N 
ATOM      9  H   UNL     1      27.792 -24.922 -15.572  0.00  0.00    +0.142 HD
ATOM     10  H   UNL     1      27.879 -23.263 -15.959  0.00  0.00    +0.142 HD
ENDBRANCH   7   8
ENDBRANCH   1   2
BRANCH   1  11
ATOM     11  O   UNL     1      33.807 -24.827 -12.719  0.00  0.00    -0.378 OA
ATOM     12  H   UNL     1      32.920 -25.124 -12.465  0.00  0.00    +0.211 HD
ENDBRANCH   1  11
BRANCH   1  13
ATOM     13  CA  UNL     1      34.732 -24.379 -14.920  0.00  0.00    +0.132 C 
BRANCH  13  15
ATOM     14  O   UNL     1      36.183 -26.625 -15.957  0.00  0.00    -0.272 OA
ATOM     15  N   UNL     1      35.852 -25.051 -14.287  0.00  0.00    -0.299 N 
ATOM     16  C   UNL     1      36.487 -26.131 -14.872  0.00  0.00    +0.253 C 
ATOM     17  H   UNL     1      36.168 -24.728 -13.412  0.00  0.00    +0.150 HD
BRANCH  16  20
ATOM     18 CL   UNL     1      39.132 -25.963 -14.632  0.00  0.00    -0.087 Cl
ATOM     19 CL   UNL     1      37.326 -26.176 -12.347  0.00  0.00    -0.087 Cl
ATOM     20  C   UNL     1      37.622 -26.659 -14.025  0.00  0.00    +0.234 C 
ENDBRANCH  16  20
ENDBRANCH  13  15
BRANCH  13  21
ATOM     21  C   UNL     1      35.254 -23.229 -15.788  0.00  0.00    +0.159 C 
BRANCH  21  22
ATOM     22  O   UNL     1      34.711 -23.276 -17.101  0.00  0.00    -0.380 OA
ATOM     23  H   UNL     1      34.420 -24.179 -17.299  0.00  0.00    +0.211 HD
ENDBRANCH  21  22
ENDBRANCH  13  21
ENDBRANCH   1  13
TORSDOF 8
ENDMDL
MODEL 5
REMARK VINA RESULT:      -7.7      1.612      2.261
REMARK  Name = 445896
REMARK  8 active torsions:
REMARK  status: ('A' for Active; 'I' for Inactive)
REMARK    1  A    between atoms: C_1  and  C_2
REMARK    2  A    between atoms: C_1  and  O_11
REMARK    3  A    between atoms: C_1  and  CA_13
REMARK    4  A    between atoms: C_7  and  N_8
REMARK    5  A    between atoms: CA_13  and  N_15
REMARK    6  A    between atoms: CA_13  and  C_21
REMARK    7  A    between atoms: C_16  and  C_20
REMARK    8  A    between atoms: C_21  and  O_22
REMARK                            x       y       z     vdW  Elec       q    Type
REMARK                         _______ _______ _______ _____ _____    ______ ____
ROOT
ATOM      1  C   UNL     1      35.970 -17.882 -21.870  0.00  0.00    +0.153 C 
ENDROOT
BRANCH   1   2
ATOM      2  C   UNL     1      35.173 -18.979 -21.201  0.00  0.00    +0.006 C 
ATOM      3  C   UNL     1      35.841 -20.050 -20.632  0.00  0.00    -0.001 C 
ATOM      4  C   UNL     1      33.791 -18.889 -21.171  0.00  0.00    -0.001 C 
ATOM      5  C   UNL     1      35.106 -21.062 -20.016  0.00  0.00    +0.014 C 
ATOM      6  C   UNL     1      33.055 -19.902 -20.554  0.00  0.00    +0.014 C 
ATOM      7  C   UNL     1      33.713 -20.988 -19.977  0.00  0.00    +0.042 C 
BRANCH   7   8
ATOM      8  N   UNL     1      32.969 -22.011 -19.352  0.00  0.00    -0.357 N 
ATOM      9  H   UNL     1      32.654 -21.896 -18.427  0.00  0.00    +0.142 HD
ATOM     10  H   UNL     1      32.765 -22.840 -19.842  0.00  0.00    +0.142 HD
ENDBRANCH   7   8
ENDBRANCH   1   2
BRANCH   1  11
ATOM     11  O   UNL     1      37.123 -18.497 -22.454  0.00  0.00    -0.378 OA
ATOM     12  H   UNL     1      37.654 -18.914 -21.758  0.00  0.00    +0.211 HD
ENDBRANCH   1  11
BRANCH   1  13
ATOM     13  CA  UNL     1      35.189 -17.117 -22.961  0.00  0.00    +0.132 C 
BRANCH  13  15
ATOM     14  O   UNL     1      34.148 -14.586 -23.817  0.00  0.00    -0.272 OA
ATOM     15  N   UNL     1      34.097 -16.381 -22.351  0.00  0.00    -0.299 N 
ATOM     16  C   UNL     1      33.668 -15.162 -22.842  0.00  0.00    +0.253 C 
ATOM     17  H   UNL     1      33.648 -16.762 -21.562  0.00  0.00    +0.150 HD
BRANCH  16  20
ATOM     18 CL   UNL     1      32.806 -14.950 -20.333  0.00  0.00    -0.087 Cl
ATOM     19 CL   UNL     1      32.467 -12.844 -22.328  0.00  0.00    -0.087 Cl
ATOM     20  C   UNL     1      32.519 -14.592 -22.043  0.00  0.00    +0.234 C 
ENDBRANCH  16  20
ENDBRANCH  13  15
BRANCH  13  21
ATOM     21  C   UNL     1      34.639 -18.008 -24.081  0.00  0.00    +0.159 C 
BRANCH  21  22
ATOM     22  O   UNL     1      34.694 -17.356 -25.343  0.00  0.00    -0.380 OA
ATOM     23  H   UNL     1      34.671 -18.018 -26.051  0.00  0.00    +0.211 HD
ENDBRANCH  21  22
ENDBRANCH  13  21
ENDBRANCH   1  13
TORSDOF 8
ENDMDL
MODEL 6
REMARK VINA RESULT:      -7.7      4.714      7.107
REMARK  Name = 445896
REMARK  8 active torsions:
REMARK  status: ('A' for Active; 'I' for Inactive)
REMARK    1  A    between atoms: C_1  and  C_2
REMARK    2  A    between atoms: C_1  and  O_11
REMARK    3  A    between atoms: C_1  and  CA_13
REMARK    4  A    between atoms: C_7  and  N_8
REMARK    5  A    between atoms: CA_13  and  N_15
REMARK    6  A    between atoms: CA_13  and  C_21
REMARK    7  A    between atoms: C_16  and  C_20
REMARK    8  A    between atoms: C_21  and  O_22
REMARK                            x       y       z     vdW  Elec       q    Type
REMARK                         _______ _______ _______ _____ _____    ______ ____
ROOT
ATOM      1  C   UNL     1      33.727 -20.038 -20.327  0.00  0.00    +0.153 C 
ENDROOT
BRANCH   1   2
ATOM      2  C   UNL     1      34.206 -19.080 -21.394  0.00  0.00    +0.006 C 
ATOM      3  C   UNL     1      34.353 -17.738 -21.082  0.00  0.00    -0.001 C 
ATOM      4  C   UNL     1      34.487 -19.563 -22.661  0.00  0.00    -0.001 C 
ATOM      5  C   UNL     1      34.794 -16.854 -22.067  0.00  0.00    +0.014 C 
ATOM      6  C   UNL     1      34.927 -18.678 -23.646  0.00  0.00    +0.014 C 
ATOM      7  C   UNL     1      35.081 -17.324 -23.349  0.00  0.00    +0.042 C 
BRANCH   7   8
ATOM      8  N   UNL     1      35.527 -16.430 -24.345  0.00  0.00    -0.357 N 
ATOM      9  H   UNL     1      36.036 -15.626 -24.092  0.00  0.00    +0.142 HD
ATOM     10  H   UNL     1      35.331 -16.611 -25.292  0.00  0.00    +0.142 HD
ENDBRANCH   7   8
ENDBRANCH   1   2
BRANCH   1  11
ATOM     11  O   UNL     1      32.501 -20.609 -20.794  0.00  0.00    -0.378 OA
ATOM     12  H   UNL     1      32.157 -20.077 -21.528  0.00  0.00    +0.211 HD
ENDBRANCH   1  11
BRANCH   1  13
ATOM     13  CA  UNL     1      34.730 -21.168 -20.006  0.00  0.00    +0.132 C 
BRANCH  13  15
ATOM     14  O   UNL     1      33.856 -23.875 -19.643  0.00  0.00    -0.272 OA
ATOM     15  N   UNL     1      34.367 -21.797 -18.750  0.00  0.00    -0.299 N 
ATOM     16  C   UNL     1      33.956 -23.115 -18.680  0.00  0.00    +0.253 C 
ATOM     17  H   UNL     1      34.414 -21.268 -17.920  0.00  0.00    +0.150 HD
BRANCH  16  20
ATOM     18 CL   UNL     1      34.863 -22.863 -16.190  0.00  0.00    -0.087 Cl
ATOM     19 CL   UNL     1      32.021 -22.932 -16.862  0.00  0.00    -0.087 Cl
ATOM     20  C   UNL     1      33.634 -23.545 -17.267  0.00  0.00    +0.234 C 
ENDBRANCH  16  20
ENDBRANCH  13  15
BRANCH  13  21
ATOM     21  C   UNL     1      36.191 -20.711 -19.942  0.00  0.00    +0.159 C 
BRANCH  21  22
ATOM     22  O   UNL     1      36.698 -20.759 -18.614  0.00  0.00    -0.380 OA
ATOM     23  H   UNL     1      36.114 -20.255 -18.027  0.00  0.00    +0.211 HD
ENDBRANCH  21  22
ENDBRANCH  13  21
ENDBRANCH   1  13
TORSDOF 8
ENDMDL
MODEL 7
REMARK VINA RESULT:      -7.5      2.204      3.021
REMARK  Name = 445896
REMARK  8 active torsions:
REMARK  status: ('A' for Active; 'I' for Inactive)
REMARK    1  A    between atoms: C_1  and  C_2
REMARK    2  A    between atoms: C_1  and  O_11
REMARK    3  A    between atoms: C_1  and  CA_13
REMARK    4  A    between atoms: C_7  and  N_8
REMARK    5  A    between atoms: CA_13  and  N_15
REMARK    6  A    between atoms: CA_13  and  C_21
REMARK    7  A    between atoms: C_16  and  C_20
REMARK    8  A    between atoms: C_21  and  O_22
REMARK                            x       y       z     vdW  Elec       q    Type
REMARK                         _______ _______ _______ _____ _____    ______ ____
ROOT
ATOM      1  C   UNL     1      34.433 -19.961 -21.257  0.00  0.00    +0.153 C 
ENDROOT
BRANCH   1   2
ATOM      2  C   UNL     1      34.501 -20.868 -20.049  0.00  0.00    +0.006 C 
ATOM      3  C   UNL     1      33.336 -21.445 -19.571  0.00  0.00    -0.001 C 
ATOM      4  C   UNL     1      35.725 -21.101 -19.446  0.00  0.00    -0.001 C 
ATOM      5  C   UNL     1      33.398 -22.281 -18.456  0.00  0.00    +0.014 C 
ATOM      6  C   UNL     1      35.787 -21.937 -18.330  0.00  0.00    +0.014 C 
ATOM      7  C   UNL     1      34.623 -22.527 -17.835  0.00  0.00    +0.042 C 
BRANCH   7   8
ATOM      8  N   UNL     1      34.686 -23.373 -16.708  0.00  0.00    -0.357 N 
ATOM      9  H   UNL     1      35.136 -23.067 -15.887  0.00  0.00    +0.142 HD
ATOM     10  H   UNL     1      34.281 -24.269 -16.743  0.00  0.00    +0.142 HD
ENDBRANCH   7   8
ENDBRANCH   1   2
BRANCH   1  11
ATOM     11  O   UNL     1      33.049 -19.699 -21.509  0.00  0.00    -0.378 OA
ATOM     12  H   UNL     1      32.558 -19.726 -20.673  0.00  0.00    +0.211 HD
ENDBRANCH   1  11
BRANCH   1  13
ATOM     13  CA  UNL     1      35.185 -18.624 -21.078  0.00  0.00    +0.132 C 
BRANCH  13  15
ATOM     14  O   UNL     1      34.997 -15.963 -20.026  0.00  0.00    -0.272 OA
ATOM     15  N   UNL     1      34.380 -17.539 -21.610  0.00  0.00    -0.299 N 
ATOM     16  C   UNL     1      34.358 -16.286 -21.027  0.00  0.00    +0.253 C 
ATOM     17  H   UNL     1      33.832 -17.702 -22.412  0.00  0.00    +0.150 HD
BRANCH  16  20
ATOM     18 CL   UNL     1      32.739 -14.224 -20.569  0.00  0.00    -0.087 Cl
ATOM     19 CL   UNL     1      34.426 -14.441 -22.944  0.00  0.00    -0.087 Cl
ATOM     20  C   UNL     1      33.449 -15.326 -21.759  0.00  0.00    +0.234 C 
ENDBRANCH  16  20
ENDBRANCH  13  15
BRANCH  13  21
ATOM     21  C   UNL     1      36.573 -18.592 -21.726  0.00  0.00    +0.159 C 
BRANCH  21  22
ATOM     22  O   UNL     1      36.508 -18.183 -23.086  0.00  0.00    -0.380 OA
ATOM     23  H   UNL     1      36.412 -17.219 -23.130  0.00  0.00    +0.211 HD
ENDBRANCH  21  22
ENDBRANCH  13  21
ENDBRANCH   1  13
TORSDOF 8
ENDMDL
MODEL 8
REMARK VINA RESULT:      -7.5      2.241      2.838
REMARK  Name = 445896
REMARK  8 active torsions:
REMARK  status: ('A' for Active; 'I' for Inactive)
REMARK    1  A    between atoms: C_1  and  C_2
REMARK    2  A    between atoms: C_1  and  O_11
REMARK    3  A    between atoms: C_1  and  CA_13
REMARK    4  A    between atoms: C_7  and  N_8
REMARK    5  A    between atoms: CA_13  and  N_15
REMARK    6  A    between atoms: CA_13  and  C_21
REMARK    7  A    between atoms: C_16  and  C_20
REMARK    8  A    between atoms: C_21  and  O_22
REMARK                            x       y       z     vdW  Elec       q    Type
REMARK                         _______ _______ _______ _____ _____    ______ ____
ROOT
ATOM      1  C   UNL     1      35.164 -17.565 -22.667  0.00  0.00    +0.153 C 
ENDROOT
BRANCH   1   2
ATOM      2  C   UNL     1      35.197 -18.716 -21.686  0.00  0.00    +0.006 C 
ATOM      3  C   UNL     1      34.014 -19.353 -21.351  0.00  0.00    -0.001 C 
ATOM      4  C   UNL     1      36.409 -19.108 -21.144  0.00  0.00    -0.001 C 
ATOM      5  C   UNL     1      34.044 -20.413 -20.446  0.00  0.00    +0.014 C 
ATOM      6  C   UNL     1      36.440 -20.169 -20.238  0.00  0.00    +0.014 C 
ATOM      7  C   UNL     1      35.257 -20.821 -19.889  0.00  0.00    +0.042 C 
BRANCH   7   8
ATOM      8  N   UNL     1      35.288 -21.895 -18.974  0.00  0.00    -0.357 N 
ATOM      9  H   UNL     1      35.421 -22.815 -19.299  0.00  0.00    +0.142 HD
ATOM     10  H   UNL     1      35.177 -21.724 -18.011  0.00  0.00    +0.142 HD
ENDBRANCH   7   8
ENDBRANCH   1   2
BRANCH   1  11
ATOM     11  O   UNL     1      34.722 -18.095 -23.921  0.00  0.00    -0.378 OA
ATOM     12  H   UNL     1      34.453 -17.367 -24.502  0.00  0.00    +0.211 HD
ENDBRANCH   1  11
BRANCH   1  13
ATOM     13  CA  UNL     1      34.233 -16.408 -22.243  0.00  0.00    +0.132 C 
BRANCH  13  15
ATOM     14  O   UNL     1      32.223 -14.371 -22.418  0.00  0.00    -0.272 OA
ATOM     15  N   UNL     1      33.965 -15.556 -23.386  0.00  0.00    -0.299 N 
ATOM     16  C   UNL     1      32.968 -14.598 -23.371  0.00  0.00    +0.253 C 
ATOM     17  H   UNL     1      34.510 -15.664 -24.199  0.00  0.00    +0.150 HD
BRANCH  16  20
ATOM     18 CL   UNL     1      33.949 -12.430 -24.562  0.00  0.00    -0.087 Cl
ATOM     19 CL   UNL     1      33.388 -14.922 -25.978  0.00  0.00    -0.087 Cl
ATOM     20  C   UNL     1      32.880 -13.837 -24.674  0.00  0.00    +0.234 C 
ENDBRANCH  16  20
ENDBRANCH  13  15
BRANCH  13  21
ATOM     21  C   UNL     1      34.776 -15.557 -21.089  0.00  0.00    +0.159 C 
BRANCH  21  22
ATOM     22  O   UNL     1      33.771 -15.288 -20.120  0.00  0.00    -0.380 OA
ATOM     23  H   UNL     1      33.614 -14.332 -20.073  0.00  0.00    +0.211 HD
ENDBRANCH  21  22
ENDBRANCH  13  21
ENDBRANCH   1  13
TORSDOF 8
ENDMDL
MODEL 9
REMARK VINA RESULT:      -7.5      4.566      6.277
REMARK  Name = 445896
REMARK  8 active torsions:
REMARK  status: ('A' for Active; 'I' for Inactive)
REMARK    1  A    between atoms: C_1  and  C_2
REMARK    2  A    between atoms: C_1  and  O_11
REMARK    3  A    between atoms: C_1  and  CA_13
REMARK    4  A    between atoms: C_7  and  N_8
REMARK    5  A    between atoms: CA_13  and  N_15
REMARK    6  A    between atoms: CA_13  and  C_21
REMARK    7  A    between atoms: C_16  and  C_20
REMARK    8  A    between atoms: C_21  and  O_22
REMARK                            x       y       z     vdW  Elec       q    Type
REMARK                         _______ _______ _______ _____ _____    ______ ____
ROOT
ATOM      1  C   UNL     1      32.718 -13.401 -23.588  0.00  0.00    +0.153 C 
ENDROOT
BRANCH   1   2
ATOM      2  C   UNL     1      33.438 -14.490 -22.825  0.00  0.00    +0.006 C 
ATOM      3  C   UNL     1      33.274 -14.575 -21.452  0.00  0.00    -0.001 C 
ATOM      4  C   UNL     1      34.246 -15.378 -23.514  0.00  0.00    -0.001 C 
ATOM      5  C   UNL     1      33.938 -15.579 -20.748  0.00  0.00    +0.014 C 
ATOM      6  C   UNL     1      34.912 -16.382 -22.809  0.00  0.00    +0.014 C 
ATOM      7  C   UNL     1      34.757 -16.482 -21.426  0.00  0.00    +0.042 C 
BRANCH   7   8
ATOM      8  N   UNL     1      35.429 -17.498 -20.714  0.00  0.00    -0.357 N 
ATOM      9  H   UNL     1      35.935 -17.276 -19.899  0.00  0.00    +0.142 HD
ATOM     10  H   UNL     1      35.391 -18.429 -21.031  0.00  0.00    +0.142 HD
ENDBRANCH   7   8
ENDBRANCH   1   2
BRANCH   1  11
ATOM     11  O   UNL     1      31.836 -12.754 -22.665  0.00  0.00    -0.378 OA
ATOM     12  H   UNL     1      31.927 -11.793 -22.751  0.00  0.00    +0.211 HD
ENDBRANCH   1  11
BRANCH   1  13
ATOM     13  CA  UNL     1      33.659 -12.352 -24.219  0.00  0.00    +0.132 C 
BRANCH  13  15
ATOM     14  O   UNL     1      35.281  -9.987 -24.187  0.00  0.00    -0.272 OA
ATOM     15  N   UNL     1      33.238 -11.021 -23.825  0.00  0.00    -0.299 N 
ATOM     16  C   UNL     1      34.100  -9.940 -23.845  0.00  0.00    +0.253 C 
ATOM     17  H   UNL     1      32.307 -10.883 -23.533  0.00  0.00    +0.150 HD
BRANCH  16  20
ATOM     18 CL   UNL     1      32.578  -8.992 -21.878  0.00  0.00    -0.087 Cl
ATOM     19 CL   UNL     1      34.692  -7.438 -23.162  0.00  0.00    -0.087 Cl
ATOM     20  C   UNL     1      33.432  -8.662 -23.393  0.00  0.00    +0.234 C 
ENDBRANCH  16  20
ENDBRANCH  13  15
BRANCH  13  21
ATOM     21  C   UNL     1      33.748 -12.426 -25.747  0.00  0.00    +0.159 C 
BRANCH  21  22
ATOM     22  O   UNL     1      33.076 -13.572 -26.256  0.00  0.00    -0.380 OA
ATOM     23  H   UNL     1      32.938 -13.469 -27.210  0.00  0.00    +0.211 HD
ENDBRANCH  21  22
ENDBRANCH  13  21
ENDBRANCH   1  13
TORSDOF 8
ENDMDL
