MODEL 1
REMARK VINA RESULT:      -9.1      0.000      0.000
REMARK  Name = 3256859
REMARK  10 active torsions:
REMARK  status: ('A' for Active; 'I' for Inactive)
REMARK    1  A    between atoms: C_1  and  C_2
REMARK    2  A    between atoms: C_1  and  C_15
REMARK    3  A    between atoms: C_5  and  N_10
REMARK    4  A    between atoms: C_7  and  O_11
REMARK    5  A    between atoms: N_14  and  C_17
REMARK    6  A    between atoms: C_17  and  C_18
REMARK    7  A    between atoms: C_18  and  C_19
REMARK    8  A    between atoms: C_19  and  C_20
REMARK    9  A    between atoms: C_20  and  C_21
REMARK   10  A    between atoms: C_21  and  C_24
REMARK                            x       y       z     vdW  Elec       q    Type
REMARK                         _______ _______ _______ _____ _____    ______ ____
ROOT
ATOM      1  C   UNL     1      33.134 -20.176 -20.687  0.00  0.00    +0.111 C 
ENDROOT
BRANCH   1   2
ATOM      2  C   UNL     1      33.845 -19.110 -21.477  0.00  0.00    -0.011 C 
ATOM      3  C   UNL     1      33.864 -17.794 -21.015  0.00  0.00    +0.023 C 
ATOM      4  C   UNL     1      34.483 -19.438 -22.673  0.00  0.00    -0.001 C 
ATOM      5  C   UNL     1      34.522 -16.807 -21.749  0.00  0.00    +0.176 C 
ATOM      6  C   UNL     1      35.141 -18.451 -23.406  0.00  0.00    +0.038 C 
ATOM      7  C   UNL     1      35.161 -17.136 -22.944  0.00  0.00    +0.156 C 
BRANCH   5  10
ATOM      8  O   UNL     1      34.896 -15.258 -20.082  0.00  0.00    -0.126 OA
ATOM      9  O   UNL     1      34.178 -14.543 -22.029  0.00  0.00    -0.126 OA
ATOM     10  N   UNL     1      34.533 -15.470 -21.263  0.00  0.00    +0.061 N 
ENDBRANCH   5  10
BRANCH   7  11
ATOM     11  O   UNL     1      35.812 -16.189 -23.679  0.00  0.00    -0.504 OA
ATOM     12  H   UNL     1      36.626 -16.396 -24.094  0.00  0.00    +0.292 HD
ENDBRANCH   7  11
ENDBRANCH   1   2
BRANCH   1  15
ATOM     13  O   UNL     1      35.256 -20.729 -19.659  0.00  0.00    -0.275 OA
ATOM     14  N   UNL     1      33.365 -21.935 -19.058  0.00  0.00    -0.304 N 
ATOM     15  C   UNL     1      34.052 -20.951 -19.761  0.00  0.00    +0.227 C 
ATOM     16  H   UNL     1      32.398 -22.035 -19.211  0.00  0.00    +0.149 HD
BRANCH  14  17
ATOM     17  C   UNL     1      34.006 -22.813 -18.117  0.00  0.00    +0.089 C 
BRANCH  17  18
ATOM     18  C   UNL     1      33.083 -23.209 -16.970  0.00  0.00    +0.021 C 
BRANCH  18  19
ATOM     19  C   UNL     1      31.637 -22.755 -17.194  0.00  0.00    +0.002 C 
BRANCH  19  20
ATOM     20  C   UNL     1      30.803 -22.917 -15.919  0.00  0.00    +0.012 C 
BRANCH  20  21
ATOM     21  C   UNL     1      29.582 -23.806 -16.133  0.00  0.00    +0.114 C 
BRANCH  21  24
ATOM     22  O   UNL     1      27.706 -24.077 -17.530  0.00  0.00    -0.246 OA
ATOM     23  O   UNL     1      28.374 -21.955 -17.011  0.00  0.00    -0.246 OA
ATOM     24  C   UNL     1      28.441 -23.214 -16.968  0.00  0.00    +0.365 C 
ENDBRANCH  21  24
ENDBRANCH  20  21
ENDBRANCH  19  20
ENDBRANCH  18  19
ENDBRANCH  17  18
ENDBRANCH  14  17
ENDBRANCH   1  15
TORSDOF 10
ENDMDL
MODEL 2
REMARK VINA RESULT:      -8.9      5.919      8.737
REMARK  Name = 3256859
REMARK  10 active torsions:
REMARK  status: ('A' for Active; 'I' for Inactive)
REMARK    1  A    between atoms: C_1  and  C_2
REMARK    2  A    between atoms: C_1  and  C_15
REMARK    3  A    between atoms: C_5  and  N_10
REMARK    4  A    between atoms: C_7  and  O_11
REMARK    5  A    between atoms: N_14  and  C_17
REMARK    6  A    between atoms: C_17  and  C_18
REMARK    7  A    between atoms: C_18  and  C_19
REMARK    8  A    between atoms: C_19  and  C_20
REMARK    9  A    between atoms: C_20  and  C_21
REMARK   10  A    between atoms: C_21  and  C_24
REMARK                            x       y       z     vdW  Elec       q    Type
REMARK                         _______ _______ _______ _____ _____    ______ ____
ROOT
ATOM      1  C   UNL     1      36.072 -22.923 -15.911  0.00  0.00    +0.111 C 
ENDROOT
BRANCH   1   2
ATOM      2  C   UNL     1      36.347 -23.885 -14.786  0.00  0.00    -0.011 C 
ATOM      3  C   UNL     1      36.252 -23.455 -13.462  0.00  0.00    +0.023 C 
ATOM      4  C   UNL     1      36.699 -25.204 -15.068  0.00  0.00    -0.001 C 
ATOM      5  C   UNL     1      36.508 -24.347 -12.421  0.00  0.00    +0.176 C 
ATOM      6  C   UNL     1      36.956 -26.096 -14.026  0.00  0.00    +0.038 C 
ATOM      7  C   UNL     1      36.860 -25.667 -12.703  0.00  0.00    +0.156 C 
BRANCH   5  10
ATOM      8  O   UNL     1      37.169 -22.978 -10.687  0.00  0.00    -0.126 OA
ATOM      9  O   UNL     1      35.559 -24.424 -10.320  0.00  0.00    -0.126 OA
ATOM     10  N   UNL     1      36.407 -23.894 -11.076  0.00  0.00    +0.061 N 
ENDBRANCH   5  10
BRANCH   7  11
ATOM     11  O   UNL     1      37.114 -26.558 -11.702  0.00  0.00    -0.504 OA
ATOM     12  H   UNL     1      37.602 -27.338 -11.882  0.00  0.00    +0.292 HD
ENDBRANCH   7  11
ENDBRANCH   1   2
BRANCH   1  15
ATOM     13  O   UNL     1      34.427 -23.023 -17.686  0.00  0.00    -0.275 OA
ATOM     14  N   UNL     1      33.718 -23.197 -15.482  0.00  0.00    -0.304 N 
ATOM     15  C   UNL     1      34.672 -23.051 -16.483  0.00  0.00    +0.227 C 
ATOM     16  H   UNL     1      34.016 -23.208 -14.544  0.00  0.00    +0.149 HD
BRANCH  14  17
ATOM     17  C   UNL     1      32.314 -23.334 -15.757  0.00  0.00    +0.089 C 
BRANCH  17  18
ATOM     18  C   UNL     1      31.445 -22.896 -14.583  0.00  0.00    +0.021 C 
BRANCH  18  19
ATOM     19  C   UNL     1      30.586 -24.037 -14.029  0.00  0.00    +0.002 C 
BRANCH  19  20
ATOM     20  C   UNL     1      29.796 -24.725 -15.146  0.00  0.00    +0.012 C 
BRANCH  20  21
ATOM     21  C   UNL     1      28.498 -23.993 -15.475  0.00  0.00    +0.114 C 
BRANCH  21  24
ATOM     22  O   UNL     1      27.639 -24.110 -17.664  0.00  0.00    -0.246 OA
ATOM     23  O   UNL     1      29.016 -22.367 -17.132  0.00  0.00    -0.246 OA
ATOM     24  C   UNL     1      28.372 -23.426 -16.893  0.00  0.00    +0.365 C 
ENDBRANCH  21  24
ENDBRANCH  20  21
ENDBRANCH  19  20
ENDBRANCH  18  19
ENDBRANCH  17  18
ENDBRANCH  14  17
ENDBRANCH   1  15
TORSDOF 10
ENDMDL
MODEL 3
REMARK VINA RESULT:      -8.8      6.758      9.300
REMARK  Name = 3256859
REMARK  10 active torsions:
REMARK  status: ('A' for Active; 'I' for Inactive)
REMARK    1  A    between atoms: C_1  and  C_2
REMARK    2  A    between atoms: C_1  and  C_15
REMARK    3  A    between atoms: C_5  and  N_10
REMARK    4  A    between atoms: C_7  and  O_11
REMARK    5  A    between atoms: N_14  and  C_17
REMARK    6  A    between atoms: C_17  and  C_18
REMARK    7  A    between atoms: C_18  and  C_19
REMARK    8  A    between atoms: C_19  and  C_20
REMARK    9  A    between atoms: C_20  and  C_21
REMARK   10  A    between atoms: C_21  and  C_24
REMARK                            x       y       z     vdW  Elec       q    Type
REMARK                         _______ _______ _______ _____ _____    ______ ____
ROOT
ATOM      1  C   UNL     1      33.400 -22.874 -15.068  0.00  0.00    +0.111 C 
ENDROOT
BRANCH   1   2
ATOM      2  C   UNL     1      32.041 -23.513 -14.972  0.00  0.00    -0.011 C 
ATOM      3  C   UNL     1      31.030 -23.143 -15.859  0.00  0.00    +0.023 C 
ATOM      4  C   UNL     1      31.791 -24.475 -13.993  0.00  0.00    -0.001 C 
ATOM      5  C   UNL     1      29.771 -23.736 -15.768  0.00  0.00    +0.176 C 
ATOM      6  C   UNL     1      30.532 -25.067 -13.902  0.00  0.00    +0.038 C 
ATOM      7  C   UNL     1      29.522 -24.698 -14.790  0.00  0.00    +0.156 C 
BRANCH   5  10
ATOM      8  O   UNL     1      28.019 -24.232 -17.183  0.00  0.00    -0.126 OA
ATOM      9  O   UNL     1      28.617 -22.132 -16.959  0.00  0.00    -0.126 OA
ATOM     10  N   UNL     1      28.752 -23.347 -16.681  0.00  0.00    +0.061 N 
ENDBRANCH   5  10
BRANCH   7  11
ATOM     11  O   UNL     1      28.299 -25.292 -14.682  0.00  0.00    -0.504 OA
ATOM     12  H   UNL     1      27.676 -24.972 -14.058  0.00  0.00    +0.292 HD
ENDBRANCH   7  11
ENDBRANCH   1   2
BRANCH   1  15
ATOM     13  O   UNL     1      34.593 -23.955 -16.877  0.00  0.00    -0.275 OA
ATOM     14  N   UNL     1      35.224 -24.401 -14.688  0.00  0.00    -0.304 N 
ATOM     15  C   UNL     1      34.453 -23.786 -15.669  0.00  0.00    +0.227 C 
ATOM     16  H   UNL     1      35.032 -24.200 -13.743  0.00  0.00    +0.149 HD
BRANCH  14  17
ATOM     17  C   UNL     1      36.288 -25.317 -14.992  0.00  0.00    +0.089 C 
BRANCH  17  18
ATOM     18  C   UNL     1      37.633 -24.848 -14.449  0.00  0.00    +0.021 C 
BRANCH  18  19
ATOM     19  C   UNL     1      37.907 -25.361 -13.031  0.00  0.00    +0.002 C 
BRANCH  19  20
ATOM     20  C   UNL     1      38.233 -24.207 -12.080  0.00  0.00    +0.012 C 
BRANCH  20  21
ATOM     21  C   UNL     1      37.013 -23.345 -11.773  0.00  0.00    +0.114 C 
BRANCH  21  24
ATOM     22  O   UNL     1      34.836 -24.243 -11.760  0.00  0.00    -0.246 OA
ATOM     23  O   UNL     1      36.040 -24.291  -9.819  0.00  0.00    -0.246 OA
ATOM     24  C   UNL     1      35.855 -24.032 -11.040  0.00  0.00    +0.365 C 
ENDBRANCH  21  24
ENDBRANCH  20  21
ENDBRANCH  19  20
ENDBRANCH  18  19
ENDBRANCH  17  18
ENDBRANCH  14  17
ENDBRANCH   1  15
TORSDOF 10
ENDMDL
MODEL 4
REMARK VINA RESULT:      -8.8      3.196      7.809
REMARK  Name = 3256859
REMARK  10 active torsions:
REMARK  status: ('A' for Active; 'I' for Inactive)
REMARK    1  A    between atoms: C_1  and  C_2
REMARK    2  A    between atoms: C_1  and  C_15
REMARK    3  A    between atoms: C_5  and  N_10
REMARK    4  A    between atoms: C_7  and  O_11
REMARK    5  A    between atoms: N_14  and  C_17
REMARK    6  A    between atoms: C_17  and  C_18
REMARK    7  A    between atoms: C_18  and  C_19
REMARK    8  A    between atoms: C_19  and  C_20
REMARK    9  A    between atoms: C_20  and  C_21
REMARK   10  A    between atoms: C_21  and  C_24
REMARK                            x       y       z     vdW  Elec       q    Type
REMARK                         _______ _______ _______ _____ _____    ______ ____
ROOT
ATOM      1  C   UNL     1      35.760 -18.436 -22.072  0.00  0.00    +0.111 C 
ENDROOT
BRANCH   1   2
ATOM      2  C   UNL     1      34.981 -19.410 -21.229  0.00  0.00    -0.011 C 
ATOM      3  C   UNL     1      35.647 -20.244 -20.331  0.00  0.00    +0.023 C 
ATOM      4  C   UNL     1      33.594 -19.480 -21.349  0.00  0.00    -0.001 C 
ATOM      5  C   UNL     1      34.924 -21.147 -19.551  0.00  0.00    +0.176 C 
ATOM      6  C   UNL     1      32.871 -20.383 -20.569  0.00  0.00    +0.038 C 
ATOM      7  C   UNL     1      33.536 -21.216 -19.671  0.00  0.00    +0.156 C 
BRANCH   5  10
ATOM      8  O   UNL     1      36.842 -21.796 -18.448  0.00  0.00    -0.126 OA
ATOM      9  O   UNL     1      34.986 -22.901 -18.055  0.00  0.00    -0.126 OA
ATOM     10  N   UNL     1      35.617 -21.990 -18.639  0.00  0.00    +0.061 N 
ENDBRANCH   5  10
BRANCH   7  11
ATOM     11  O   UNL     1      32.807 -22.090 -18.919  0.00  0.00    -0.504 OA
ATOM     12  H   UNL     1      32.744 -21.971 -17.991  0.00  0.00    +0.292 HD
ENDBRANCH   7  11
ENDBRANCH   1   2
BRANCH   1  15
ATOM     13  O   UNL     1      35.030 -19.170 -24.262  0.00  0.00    -0.275 OA
ATOM     14  N   UNL     1      34.863 -16.920 -23.714  0.00  0.00    -0.304 N 
ATOM     15  C   UNL     1      35.184 -18.249 -23.463  0.00  0.00    +0.227 C 
ATOM     16  H   UNL     1      35.025 -16.254 -23.008  0.00  0.00    +0.149 HD
BRANCH  14  17
ATOM     17  C   UNL     1      34.304 -16.475 -24.962  0.00  0.00    +0.089 C 
BRANCH  17  18
ATOM     18  C   UNL     1      33.555 -15.153 -24.825  0.00  0.00    +0.021 C 
BRANCH  18  19
ATOM     19  C   UNL     1      34.002 -14.346 -23.602  0.00  0.00    +0.002 C 
BRANCH  19  20
ATOM     20  C   UNL     1      32.807 -13.963 -22.726  0.00  0.00    +0.012 C 
BRANCH  20  21
ATOM     21  C   UNL     1      33.129 -14.044 -21.237  0.00  0.00    +0.114 C 
BRANCH  21  24
ATOM     22  O   UNL     1      33.076 -16.382 -20.959  0.00  0.00    -0.246 OA
ATOM     23  O   UNL     1      34.893 -15.238 -20.178  0.00  0.00    -0.246 OA
ATOM     24  C   UNL     1      33.771 -15.346 -20.745  0.00  0.00    +0.365 C 
ENDBRANCH  21  24
ENDBRANCH  20  21
ENDBRANCH  19  20
ENDBRANCH  18  19
ENDBRANCH  17  18
ENDBRANCH  14  17
ENDBRANCH   1  15
TORSDOF 10
ENDMDL
MODEL 5
REMARK VINA RESULT:      -8.7      6.775      9.934
REMARK  Name = 3256859
REMARK  10 active torsions:
REMARK  status: ('A' for Active; 'I' for Inactive)
REMARK    1  A    between atoms: C_1  and  C_2
REMARK    2  A    between atoms: C_1  and  C_15
REMARK    3  A    between atoms: C_5  and  N_10
REMARK    4  A    between atoms: C_7  and  O_11
REMARK    5  A    between atoms: N_14  and  C_17
REMARK    6  A    between atoms: C_17  and  C_18
REMARK    7  A    between atoms: C_18  and  C_19
REMARK    8  A    between atoms: C_19  and  C_20
REMARK    9  A    between atoms: C_20  and  C_21
REMARK   10  A    between atoms: C_21  and  C_24
REMARK                            x       y       z     vdW  Elec       q    Type
REMARK                         _______ _______ _______ _____ _____    ______ ____
ROOT
ATOM      1  C   UNL     1      33.433 -22.968 -15.529  0.00  0.00    +0.111 C 
ENDROOT
BRANCH   1   2
ATOM      2  C   UNL     1      32.051 -23.536 -15.345  0.00  0.00    -0.011 C 
ATOM      3  C   UNL     1      31.008 -23.113 -16.168  0.00  0.00    +0.023 C 
ATOM      4  C   UNL     1      31.814 -24.483 -14.349  0.00  0.00    -0.001 C 
ATOM      5  C   UNL     1      29.727 -23.640 -15.996  0.00  0.00    +0.176 C 
ATOM      6  C   UNL     1      30.534 -25.009 -14.177  0.00  0.00    +0.038 C 
ATOM      7  C   UNL     1      29.490 -24.588 -15.001  0.00  0.00    +0.156 C 
BRANCH   5  10
ATOM      8  O   UNL     1      28.530 -21.969 -17.041  0.00  0.00    -0.126 OA
ATOM      9  O   UNL     1      27.922 -24.052 -17.371  0.00  0.00    -0.126 OA
ATOM     10  N   UNL     1      28.674 -23.199 -16.845  0.00  0.00    +0.061 N 
ENDBRANCH   5  10
BRANCH   7  11
ATOM     11  O   UNL     1      28.248 -25.117 -14.814  0.00  0.00    -0.504 OA
ATOM     12  H   UNL     1      28.142 -25.891 -14.296  0.00  0.00    +0.292 HD
ENDBRANCH   7  11
ENDBRANCH   1   2
BRANCH   1  15
ATOM     13  O   UNL     1      35.078 -24.747 -15.524  0.00  0.00    -0.275 OA
ATOM     14  N   UNL     1      34.806 -23.459 -13.611  0.00  0.00    -0.304 N 
ATOM     15  C   UNL     1      34.524 -23.831 -14.921  0.00  0.00    +0.227 C 
ATOM     16  H   UNL     1      34.306 -22.709 -13.216  0.00  0.00    +0.149 HD
BRANCH  14  17
ATOM     17  C   UNL     1      35.798 -24.121 -12.809  0.00  0.00    +0.089 C 
BRANCH  17  18
ATOM     18  C   UNL     1      37.174 -23.474 -12.934  0.00  0.00    +0.021 C 
BRANCH  18  19
ATOM     19  C   UNL     1      38.261 -24.254 -12.188  0.00  0.00    +0.002 C 
BRANCH  19  20
ATOM     20  C   UNL     1      38.428 -25.661 -12.768  0.00  0.00    +0.012 C 
BRANCH  20  21
ATOM     21  C   UNL     1      38.916 -25.638 -14.214  0.00  0.00    +0.114 C 
BRANCH  21  24
ATOM     22  O   UNL     1      40.972 -24.510 -14.424  0.00  0.00    -0.246 OA
ATOM     23  O   UNL     1      40.964 -26.788 -14.590  0.00  0.00    -0.246 OA
ATOM     24  C   UNL     1      40.433 -25.654 -14.426  0.00  0.00    +0.365 C 
ENDBRANCH  21  24
ENDBRANCH  20  21
ENDBRANCH  19  20
ENDBRANCH  18  19
ENDBRANCH  17  18
ENDBRANCH  14  17
ENDBRANCH   1  15
TORSDOF 10
ENDMDL
MODEL 6
REMARK VINA RESULT:      -8.7      3.668      8.716
REMARK  Name = 3256859
REMARK  10 active torsions:
REMARK  status: ('A' for Active; 'I' for Inactive)
REMARK    1  A    between atoms: C_1  and  C_2
REMARK    2  A    between atoms: C_1  and  C_15
REMARK    3  A    between atoms: C_5  and  N_10
REMARK    4  A    between atoms: C_7  and  O_11
REMARK    5  A    between atoms: N_14  and  C_17
REMARK    6  A    between atoms: C_17  and  C_18
REMARK    7  A    between atoms: C_18  and  C_19
REMARK    8  A    between atoms: C_19  and  C_20
REMARK    9  A    between atoms: C_20  and  C_21
REMARK   10  A    between atoms: C_21  and  C_24
REMARK                            x       y       z     vdW  Elec       q    Type
REMARK                         _______ _______ _______ _____ _____    ______ ____
ROOT
ATOM      1  C   UNL     1      35.253 -17.971 -22.268  0.00  0.00    +0.111 C 
ENDROOT
BRANCH   1   2
ATOM      2  C   UNL     1      35.447 -19.098 -21.288  0.00  0.00    -0.011 C 
ATOM      3  C   UNL     1      34.349 -19.837 -20.848  0.00  0.00    +0.023 C 
ATOM      4  C   UNL     1      36.725 -19.400 -20.820  0.00  0.00    -0.001 C 
ATOM      5  C   UNL     1      34.531 -20.880 -19.940  0.00  0.00    +0.176 C 
ATOM      6  C   UNL     1      36.906 -20.443 -19.911  0.00  0.00    +0.038 C 
ATOM      7  C   UNL     1      35.809 -21.183 -19.472  0.00  0.00    +0.156 C 
BRANCH   5  10
ATOM      8  O   UNL     1      32.385 -21.007 -19.103  0.00  0.00    -0.126 OA
ATOM      9  O   UNL     1      33.453 -22.877 -19.526  0.00  0.00    -0.126 OA
ATOM     10  N   UNL     1      33.401 -21.625 -19.502  0.00  0.00    +0.061 N 
ENDBRANCH   5  10
BRANCH   7  11
ATOM     11  O   UNL     1      36.011 -22.199 -18.584  0.00  0.00    -0.504 OA
ATOM     12  H   UNL     1      35.326 -22.451 -17.997  0.00  0.00    +0.292 HD
ENDBRANCH   7  11
ENDBRANCH   1   2
BRANCH   1  15
ATOM     13  O   UNL     1      35.131 -16.424 -20.408  0.00  0.00    -0.275 OA
ATOM     14  N   UNL     1      34.434 -15.719 -22.507  0.00  0.00    -0.304 N 
ATOM     15  C   UNL     1      34.947 -16.642 -21.603  0.00  0.00    +0.227 C 
ATOM     16  H   UNL     1      34.323 -15.991 -23.447  0.00  0.00    +0.149 HD
BRANCH  14  17
ATOM     17  C   UNL     1      34.058 -14.384 -22.130  0.00  0.00    +0.089 C 
BRANCH  17  18
ATOM     18  C   UNL     1      32.604 -14.295 -21.676  0.00  0.00    +0.021 C 
BRANCH  18  19
ATOM     19  C   UNL     1      32.066 -12.861 -21.701  0.00  0.00    +0.002 C 
BRANCH  19  20
ATOM     20  C   UNL     1      31.863 -12.323 -20.282  0.00  0.00    +0.012 C 
BRANCH  20  21
ATOM     21  C   UNL     1      31.037 -11.040 -20.261  0.00  0.00    +0.114 C 
BRANCH  21  24
ATOM     22  O   UNL     1      31.847  -9.227 -21.526  0.00  0.00    -0.246 OA
ATOM     23  O   UNL     1      32.337  -9.297 -19.296  0.00  0.00    -0.246 OA
ATOM     24  C   UNL     1      31.814  -9.723 -20.363  0.00  0.00    +0.365 C 
ENDBRANCH  21  24
ENDBRANCH  20  21
ENDBRANCH  19  20
ENDBRANCH  18  19
ENDBRANCH  17  18
ENDBRANCH  14  17
ENDBRANCH   1  15
TORSDOF 10
ENDMDL
MODEL 7
REMARK VINA RESULT:      -8.6      7.268      9.446
REMARK  Name = 3256859
REMARK  10 active torsions:
REMARK  status: ('A' for Active; 'I' for Inactive)
REMARK    1  A    between atoms: C_1  and  C_2
REMARK    2  A    between atoms: C_1  and  C_15
REMARK    3  A    between atoms: C_5  and  N_10
REMARK    4  A    between atoms: C_7  and  O_11
REMARK    5  A    between atoms: N_14  and  C_17
REMARK    6  A    between atoms: C_17  and  C_18
REMARK    7  A    between atoms: C_18  and  C_19
REMARK    8  A    between atoms: C_19  and  C_20
REMARK    9  A    between atoms: C_20  and  C_21
REMARK   10  A    between atoms: C_21  and  C_24
REMARK                            x       y       z     vdW  Elec       q    Type
REMARK                         _______ _______ _______ _____ _____    ______ ____
ROOT
ATOM      1  C   UNL     1      31.429 -22.765 -13.853  0.00  0.00    +0.111 C 
ENDROOT
BRANCH   1   2
ATOM      2  C   UNL     1      30.401 -23.251 -14.839  0.00  0.00    -0.011 C 
ATOM      3  C   UNL     1      29.264 -22.485 -15.098  0.00  0.00    +0.023 C 
ATOM      4  C   UNL     1      30.584 -24.469 -15.492  0.00  0.00    -0.001 C 
ATOM      5  C   UNL     1      28.311 -22.937 -16.011  0.00  0.00    +0.176 C 
ATOM      6  C   UNL     1      29.631 -24.922 -16.405  0.00  0.00    +0.038 C 
ATOM      7  C   UNL     1      28.495 -24.156 -16.665  0.00  0.00    +0.156 C 
BRANCH   5  10
ATOM      8  O   UNL     1      27.138 -21.413 -17.282  0.00  0.00    -0.126 OA
ATOM      9  O   UNL     1      26.197 -22.197 -15.461  0.00  0.00    -0.126 OA
ATOM     10  N   UNL     1      27.158 -22.144 -16.263  0.00  0.00    +0.061 N 
ENDBRANCH   5  10
BRANCH   7  11
ATOM     11  O   UNL     1      27.578 -24.618 -17.562  0.00  0.00    -0.504 OA
ATOM     12  H   UNL     1      27.838 -25.231 -18.223  0.00  0.00    +0.292 HD
ENDBRANCH   7  11
ENDBRANCH   1   2
BRANCH   1  15
ATOM     13  O   UNL     1      32.629 -24.724 -13.086  0.00  0.00    -0.275 OA
ATOM     14  N   UNL     1      33.723 -23.195 -14.448  0.00  0.00    -0.304 N 
ATOM     15  C   UNL     1      32.632 -23.682 -13.737  0.00  0.00    +0.227 C 
ATOM     16  H   UNL     1      33.625 -22.347 -14.939  0.00  0.00    +0.149 HD
BRANCH  14  17
ATOM     17  C   UNL     1      34.988 -23.875 -14.497  0.00  0.00    +0.089 C 
BRANCH  17  18
ATOM     18  C   UNL     1      36.113 -22.975 -15.001  0.00  0.00    +0.021 C 
BRANCH  18  19
ATOM     19  C   UNL     1      37.459 -23.702 -15.075  0.00  0.00    +0.002 C 
BRANCH  19  20
ATOM     20  C   UNL     1      37.454 -24.965 -14.210  0.00  0.00    +0.012 C 
BRANCH  20  21
ATOM     21  C   UNL     1      38.466 -24.893 -13.071  0.00  0.00    +0.114 C 
BRANCH  21  24
ATOM     22  O   UNL     1      37.143 -24.531 -11.157  0.00  0.00    -0.246 OA
ATOM     23  O   UNL     1      38.703 -22.956 -11.710  0.00  0.00    -0.246 OA
ATOM     24  C   UNL     1      38.074 -24.040 -11.859  0.00  0.00    +0.365 C 
ENDBRANCH  21  24
ENDBRANCH  20  21
ENDBRANCH  19  20
ENDBRANCH  18  19
ENDBRANCH  17  18
ENDBRANCH  14  17
ENDBRANCH   1  15
TORSDOF 10
ENDMDL
MODEL 8
REMARK VINA RESULT:      -8.6      1.763      2.049
REMARK  Name = 3256859
REMARK  10 active torsions:
REMARK  status: ('A' for Active; 'I' for Inactive)
REMARK    1  A    between atoms: C_1  and  C_2
REMARK    2  A    between atoms: C_1  and  C_15
REMARK    3  A    between atoms: C_5  and  N_10
REMARK    4  A    between atoms: C_7  and  O_11
REMARK    5  A    between atoms: N_14  and  C_17
REMARK    6  A    between atoms: C_17  and  C_18
REMARK    7  A    between atoms: C_18  and  C_19
REMARK    8  A    between atoms: C_19  and  C_20
REMARK    9  A    between atoms: C_20  and  C_21
REMARK   10  A    between atoms: C_21  and  C_24
REMARK                            x       y       z     vdW  Elec       q    Type
REMARK                         _______ _______ _______ _____ _____    ______ ____
ROOT
ATOM      1  C   UNL     1      33.060 -20.232 -20.674  0.00  0.00    +0.111 C 
ENDROOT
BRANCH   1   2
ATOM      2  C   UNL     1      33.801 -19.176 -21.449  0.00  0.00    -0.011 C 
ATOM      3  C   UNL     1      33.848 -17.865 -20.974  0.00  0.00    +0.023 C 
ATOM      4  C   UNL     1      34.439 -19.508 -22.643  0.00  0.00    -0.001 C 
ATOM      5  C   UNL     1      34.534 -16.887 -21.694  0.00  0.00    +0.176 C 
ATOM      6  C   UNL     1      35.126 -18.530 -23.363  0.00  0.00    +0.038 C 
ATOM      7  C   UNL     1      35.173 -17.219 -22.888  0.00  0.00    +0.156 C 
BRANCH   5  10
ATOM      8  O   UNL     1      34.934 -15.363 -20.010  0.00  0.00    -0.126 OA
ATOM      9  O   UNL     1      34.244 -14.614 -21.954  0.00  0.00    -0.126 OA
ATOM     10  N   UNL     1      34.573 -15.555 -21.195  0.00  0.00    +0.061 N 
ENDBRANCH   5  10
BRANCH   7  11
ATOM     11  O   UNL     1      35.851 -16.281 -23.609  0.00  0.00    -0.504 OA
ATOM     12  H   UNL     1      35.446 -15.879 -24.353  0.00  0.00    +0.292 HD
ENDBRANCH   7  11
ENDBRANCH   1   2
BRANCH   1  15
ATOM     13  O   UNL     1      35.192 -21.014 -19.832  0.00  0.00    -0.275 OA
ATOM     14  N   UNL     1      33.241 -21.996 -19.044  0.00  0.00    -0.304 N 
ATOM     15  C   UNL     1      33.967 -21.100 -19.822  0.00  0.00    +0.227 C 
ATOM     16  H   UNL     1      32.259 -21.988 -19.107  0.00  0.00    +0.149 HD
BRANCH  14  17
ATOM     17  C   UNL     1      33.863 -22.935 -18.151  0.00  0.00    +0.089 C 
BRANCH  17  18
ATOM     18  C   UNL     1      33.003 -23.232 -16.927  0.00  0.00    +0.021 C 
BRANCH  18  19
ATOM     19  C   UNL     1      31.554 -22.762 -17.098  0.00  0.00    +0.002 C 
BRANCH  19  20
ATOM     20  C   UNL     1      30.777 -22.878 -15.784  0.00  0.00    +0.012 C 
BRANCH  20  21
ATOM     21  C   UNL     1      31.690 -23.156 -14.593  0.00  0.00    +0.114 C 
BRANCH  21  24
ATOM     22  O   UNL     1      30.711 -24.056 -12.649  0.00  0.00    -0.246 OA
ATOM     23  O   UNL     1      31.680 -25.491 -14.139  0.00  0.00    -0.246 OA
ATOM     24  C   UNL     1      31.323 -24.358 -13.715  0.00  0.00    +0.365 C 
ENDBRANCH  21  24
ENDBRANCH  20  21
ENDBRANCH  19  20
ENDBRANCH  18  19
ENDBRANCH  17  18
ENDBRANCH  14  17
ENDBRANCH   1  15
TORSDOF 10
ENDMDL
MODEL 9
REMARK VINA RESULT:      -8.6      3.094      8.523
REMARK  Name = 3256859
REMARK  10 active torsions:
REMARK  status: ('A' for Active; 'I' for Inactive)
REMARK    1  A    between atoms: C_1  and  C_2
REMARK    2  A    between atoms: C_1  and  C_15
REMARK    3  A    between atoms: C_5  and  N_10
REMARK    4  A    between atoms: C_7  and  O_11
REMARK    5  A    between atoms: N_14  and  C_17
REMARK    6  A    between atoms: C_17  and  C_18
REMARK    7  A    between atoms: C_18  and  C_19
REMARK    8  A    between atoms: C_19  and  C_20
REMARK    9  A    between atoms: C_20  and  C_21
REMARK   10  A    between atoms: C_21  and  C_24
REMARK                            x       y       z     vdW  Elec       q    Type
REMARK                         _______ _______ _______ _____ _____    ______ ____
ROOT
ATOM      1  C   UNL     1      35.385 -18.500 -22.017  0.00  0.00    +0.111 C 
ENDROOT
BRANCH   1   2
ATOM      2  C   UNL     1      34.727 -19.526 -21.134  0.00  0.00    -0.011 C 
ATOM      3  C   UNL     1      35.495 -20.276 -20.243  0.00  0.00    +0.023 C 
ATOM      4  C   UNL     1      33.350 -19.729 -21.210  0.00  0.00    -0.001 C 
ATOM      5  C   UNL     1      34.884 -21.228 -19.427  0.00  0.00    +0.176 C 
ATOM      6  C   UNL     1      32.739 -20.681 -20.393  0.00  0.00    +0.038 C 
ATOM      7  C   UNL     1      33.506 -21.431 -19.502  0.00  0.00    +0.156 C 
BRANCH   5  10
ATOM      8  O   UNL     1      36.927 -21.840 -18.549  0.00  0.00    -0.126 OA
ATOM      9  O   UNL     1      35.117 -22.772 -17.729  0.00  0.00    -0.126 OA
ATOM     10  N   UNL     1      35.682 -21.984 -18.523  0.00  0.00    +0.061 N 
ENDBRANCH   5  10
BRANCH   7  11
ATOM     11  O   UNL     1      32.886 -22.355 -18.713  0.00  0.00    -0.504 OA
ATOM     12  H   UNL     1      32.061 -22.715 -18.975  0.00  0.00    +0.292 HD
ENDBRANCH   7  11
ENDBRANCH   1   2
BRANCH   1  15
ATOM     13  O   UNL     1      35.265 -16.726 -20.372  0.00  0.00    -0.275 OA
ATOM     14  N   UNL     1      34.845 -16.226 -22.600  0.00  0.00    -0.304 N 
ATOM     15  C   UNL     1      35.168 -17.074 -21.546  0.00  0.00    +0.227 C 
ATOM     16  H   UNL     1      34.791 -16.602 -23.508  0.00  0.00    +0.149 HD
BRANCH  14  17
ATOM     17  C   UNL     1      34.585 -14.824 -22.421  0.00  0.00    +0.089 C 
BRANCH  17  18
ATOM     18  C   UNL     1      33.099 -14.524 -22.254  0.00  0.00    +0.021 C 
BRANCH  18  19
ATOM     19  C   UNL     1      32.582 -13.515 -23.286  0.00  0.00    +0.002 C 
BRANCH  19  20
ATOM     20  C   UNL     1      33.425 -13.552 -24.564  0.00  0.00    +0.012 C 
BRANCH  20  21
ATOM     21  C   UNL     1      32.700 -14.237 -25.718  0.00  0.00    +0.114 C 
BRANCH  21  24
ATOM     22  O   UNL     1      32.421 -16.282 -26.851  0.00  0.00    -0.246 OA
ATOM     23  O   UNL     1      34.363 -15.938 -25.700  0.00  0.00    -0.246 OA
ATOM     24  C   UNL     1      33.221 -15.618 -26.130  0.00  0.00    +0.365 C 
ENDBRANCH  21  24
ENDBRANCH  20  21
ENDBRANCH  19  20
ENDBRANCH  18  19
ENDBRANCH  17  18
ENDBRANCH  14  17
ENDBRANCH   1  15
TORSDOF 10
ENDMDL
