MODEL 1
REMARK VINA RESULT:      -5.4      0.000      0.000
REMARK  Name = 3604
REMARK  7 active torsions:
REMARK  status: ('A' for Active; 'I' for Inactive)
REMARK    1  A    between atoms: C_1  and  C_2
REMARK    2  A    between atoms: C_1  and  C_8
REMARK    3  A    between atoms: C_2  and  C_3
REMARK    4  A    between atoms: C_3  and  N_4
REMARK    5  A    between atoms: C_8  and  C_9
REMARK    6  A    between atoms: C_9  and  C_10
REMARK    7  A    between atoms: C_10  and  N_11
REMARK                            x       y       z     vdW  Elec       q    Type
REMARK                         _______ _______ _______ _____ _____    ______ ____
ROOT
ATOM      1  C   UNL     1      34.538 -17.930 -25.158  0.00  0.00    -0.002 C 
ENDROOT
BRANCH   1   2
ATOM      2  C   UNL     1      35.129 -17.949 -23.747  0.00  0.00    -0.022 C 
BRANCH   2   3
ATOM      3  C   UNL     1      34.794 -19.249 -23.033  0.00  0.00    -0.073 C 
BRANCH   3   4
ATOM      4  N   UNL     1      34.744 -19.001 -21.572  0.00  0.00    +0.386 N 
ATOM      5  C   UNL     1      33.548 -19.723 -20.935  0.00  0.00    -0.096 C 
ATOM      6  C   UNL     1      36.023 -19.505 -20.888  0.00  0.00    -0.096 C 
ATOM      7  C   UNL     1      34.606 -17.500 -21.276  0.00  0.00    -0.096 C 
ENDBRANCH   3   4
ENDBRANCH   2   3
ENDBRANCH   1   2
BRANCH   1   8
ATOM      8  C   UNL     1      33.961 -16.556 -25.502  0.00  0.00    -0.002 C 
BRANCH   8   9
ATOM      9  C   UNL     1      33.868 -15.664 -24.263  0.00  0.00    -0.022 C 
BRANCH   9  10
ATOM     10  C   UNL     1      33.142 -14.365 -24.577  0.00  0.00    -0.073 C 
BRANCH  10  11
ATOM     11  N   UNL     1      33.372 -13.401 -23.475  0.00  0.00    +0.386 N 
ATOM     12  C   UNL     1      32.061 -13.085 -22.742  0.00  0.00    -0.096 C 
ATOM     13  C   UNL     1      34.366 -13.969 -22.451  0.00  0.00    -0.096 C 
ATOM     14  C   UNL     1      33.946 -12.082 -24.014  0.00  0.00    -0.096 C 
ENDBRANCH  10  11
ENDBRANCH   9  10
ENDBRANCH   8   9
ENDBRANCH   1   8
TORSDOF 7
ENDMDL
MODEL 2
REMARK VINA RESULT:      -5.3      5.138      7.885
REMARK  Name = 3604
REMARK  7 active torsions:
REMARK  status: ('A' for Active; 'I' for Inactive)
REMARK    1  A    between atoms: C_1  and  C_2
REMARK    2  A    between atoms: C_1  and  C_8
REMARK    3  A    between atoms: C_2  and  C_3
REMARK    4  A    between atoms: C_3  and  N_4
REMARK    5  A    between atoms: C_8  and  C_9
REMARK    6  A    between atoms: C_9  and  C_10
REMARK    7  A    between atoms: C_10  and  N_11
REMARK                            x       y       z     vdW  Elec       q    Type
REMARK                         _______ _______ _______ _____ _____    ______ ____
ROOT
ATOM      1  C   UNL     1      36.734 -21.739 -17.905  0.00  0.00    -0.002 C 
ENDROOT
BRANCH   1   2
ATOM      2  C   UNL     1      36.251 -22.392 -16.608  0.00  0.00    -0.022 C 
BRANCH   2   3
ATOM      3  C   UNL     1      37.422 -22.927 -15.798  0.00  0.00    -0.073 C 
BRANCH   3   4
ATOM      4  N   UNL     1      36.920 -23.921 -14.819  0.00  0.00    +0.386 N 
ATOM      5  C   UNL     1      36.811 -23.301 -13.418  0.00  0.00    -0.096 C 
ATOM      6  C   UNL     1      35.530 -24.432 -15.222  0.00  0.00    -0.096 C 
ATOM      7  C   UNL     1      37.864 -25.129 -14.731  0.00  0.00    -0.096 C 
ENDBRANCH   3   4
ENDBRANCH   2   3
ENDBRANCH   1   2
BRANCH   1   8
ATOM      8  C   UNL     1      35.618 -21.683 -18.949  0.00  0.00    -0.002 C 
BRANCH   8   9
ATOM      9  C   UNL     1      35.967 -20.722 -20.086  0.00  0.00    -0.022 C 
BRANCH   9  10
ATOM     10  C   UNL     1      34.709 -20.159 -20.731  0.00  0.00    -0.073 C 
BRANCH  10  11
ATOM     11  N   UNL     1      35.077 -19.005 -21.586  0.00  0.00    +0.386 N 
ATOM     12  C   UNL     1      36.583 -18.719 -21.500  0.00  0.00    -0.096 C 
ATOM     13  C   UNL     1      34.729 -19.281 -23.056  0.00  0.00    -0.096 C 
ATOM     14  C   UNL     1      34.326 -17.739 -21.148  0.00  0.00    -0.096 C 
ENDBRANCH  10  11
ENDBRANCH   9  10
ENDBRANCH   8   9
ENDBRANCH   1   8
TORSDOF 7
ENDMDL
MODEL 3
REMARK VINA RESULT:      -5.3      0.231      5.563
REMARK  Name = 3604
REMARK  7 active torsions:
REMARK  status: ('A' for Active; 'I' for Inactive)
REMARK    1  A    between atoms: C_1  and  C_2
REMARK    2  A    between atoms: C_1  and  C_8
REMARK    3  A    between atoms: C_2  and  C_3
REMARK    4  A    between atoms: C_3  and  N_4
REMARK    5  A    between atoms: C_8  and  C_9
REMARK    6  A    between atoms: C_9  and  C_10
REMARK    7  A    between atoms: C_10  and  N_11
REMARK                            x       y       z     vdW  Elec       q    Type
REMARK                         _______ _______ _______ _____ _____    ______ ____
ROOT
ATOM      1  C   UNL     1      33.878 -16.636 -25.477  0.00  0.00    -0.002 C 
ENDROOT
BRANCH   1   2
ATOM      2  C   UNL     1      33.932 -15.674 -24.289  0.00  0.00    -0.022 C 
BRANCH   2   3
ATOM      3  C   UNL     1      33.130 -14.413 -24.571  0.00  0.00    -0.073 C 
BRANCH   3   4
ATOM      4  N   UNL     1      33.374 -13.430 -23.487  0.00  0.00    +0.386 N 
ATOM      5  C   UNL     1      33.911 -12.109 -24.058  0.00  0.00    -0.096 C 
ATOM      6  C   UNL     1      32.078 -13.127 -22.723  0.00  0.00    -0.096 C 
ATOM      7  C   UNL     1      34.404 -13.968 -22.483  0.00  0.00    -0.096 C 
ENDBRANCH   3   4
ENDBRANCH   2   3
ENDBRANCH   1   2
BRANCH   1   8
ATOM      8  C   UNL     1      34.587 -17.953 -25.160  0.00  0.00    -0.002 C 
BRANCH   8   9
ATOM      9  C   UNL     1      35.164 -17.949 -23.744  0.00  0.00    -0.022 C 
BRANCH   9  10
ATOM     10  C   UNL     1      34.781 -19.217 -22.994  0.00  0.00    -0.073 C 
BRANCH  10  11
ATOM     11  N   UNL     1      34.805 -18.945 -21.537  0.00  0.00    +0.386 N 
ATOM     12  C   UNL     1      36.239 -19.010 -20.993  0.00  0.00    -0.096 C 
ATOM     13  C   UNL     1      34.242 -17.549 -21.232  0.00  0.00    -0.096 C 
ATOM     14  C   UNL     1      33.960 -19.976 -20.775  0.00  0.00    -0.096 C 
ENDBRANCH  10  11
ENDBRANCH   9  10
ENDBRANCH   8   9
ENDBRANCH   1   8
TORSDOF 7
ENDMDL
MODEL 4
REMARK VINA RESULT:      -5.3      4.986      9.470
REMARK  Name = 3604
REMARK  7 active torsions:
REMARK  status: ('A' for Active; 'I' for Inactive)
REMARK    1  A    between atoms: C_1  and  C_2
REMARK    2  A    between atoms: C_1  and  C_8
REMARK    3  A    between atoms: C_2  and  C_3
REMARK    4  A    between atoms: C_3  and  N_4
REMARK    5  A    between atoms: C_8  and  C_9
REMARK    6  A    between atoms: C_9  and  C_10
REMARK    7  A    between atoms: C_10  and  N_11
REMARK                            x       y       z     vdW  Elec       q    Type
REMARK                         _______ _______ _______ _____ _____    ______ ____
ROOT
ATOM      1  C   UNL     1      36.455 -21.240 -19.093  0.00  0.00    -0.002 C 
ENDROOT
BRANCH   1   2
ATOM      2  C   UNL     1      35.609 -20.814 -20.295  0.00  0.00    -0.022 C 
BRANCH   2   3
ATOM      3  C   UNL     1      36.088 -19.484 -20.856  0.00  0.00    -0.073 C 
BRANCH   3   4
ATOM      4  N   UNL     1      34.943 -18.782 -21.484  0.00  0.00    +0.386 N 
ATOM      5  C   UNL     1      34.996 -18.909 -23.014  0.00  0.00    -0.096 C 
ATOM      6  C   UNL     1      33.610 -19.373 -21.004  0.00  0.00    -0.096 C 
ATOM      7  C   UNL     1      34.957 -17.288 -21.131  0.00  0.00    -0.096 C 
ENDBRANCH   3   4
ENDBRANCH   2   3
ENDBRANCH   1   2
BRANCH   1   8
ATOM      8  C   UNL     1      35.634 -22.058 -18.096  0.00  0.00    -0.002 C 
BRANCH   8   9
ATOM      9  C   UNL     1      36.391 -22.258 -16.782  0.00  0.00    -0.022 C 
BRANCH   9  10
ATOM     10  C   UNL     1      35.503 -22.910 -15.734  0.00  0.00    -0.073 C 
BRANCH  10  11
ATOM     11  N   UNL     1      36.327 -23.808 -14.890  0.00  0.00    +0.386 N 
ATOM     12  C   UNL     1      36.236 -23.405 -13.411  0.00  0.00    -0.096 C 
ATOM     13  C   UNL     1      35.854 -25.264 -15.017  0.00  0.00    -0.096 C 
ATOM     14  C   UNL     1      37.803 -23.750 -15.310  0.00  0.00    -0.096 C 
ENDBRANCH  10  11
ENDBRANCH   9  10
ENDBRANCH   8   9
ENDBRANCH   1   8
TORSDOF 7
ENDMDL
MODEL 5
REMARK VINA RESULT:      -5.2      3.677      6.410
REMARK  Name = 3604
REMARK  7 active torsions:
REMARK  status: ('A' for Active; 'I' for Inactive)
REMARK    1  A    between atoms: C_1  and  C_2
REMARK    2  A    between atoms: C_1  and  C_8
REMARK    3  A    between atoms: C_2  and  C_3
REMARK    4  A    between atoms: C_3  and  N_4
REMARK    5  A    between atoms: C_8  and  C_9
REMARK    6  A    between atoms: C_9  and  C_10
REMARK    7  A    between atoms: C_10  and  N_11
REMARK                            x       y       z     vdW  Elec       q    Type
REMARK                         _______ _______ _______ _____ _____    ______ ____
ROOT
ATOM      1  C   UNL     1      32.012 -12.495 -20.443  0.00  0.00    -0.002 C 
ENDROOT
BRANCH   1   2
ATOM      2  C   UNL     1      32.486 -13.588 -21.403  0.00  0.00    -0.022 C 
BRANCH   2   3
ATOM      3  C   UNL     1      32.116 -13.250 -22.839  0.00  0.00    -0.073 C 
BRANCH   3   4
ATOM      4  N   UNL     1      33.311 -13.423 -23.701  0.00  0.00    +0.386 N 
ATOM      5  C   UNL     1      34.390 -14.244 -22.981  0.00  0.00    -0.096 C 
ATOM      6  C   UNL     1      32.946 -14.152 -25.001  0.00  0.00    -0.096 C 
ATOM      7  C   UNL     1      33.918 -12.062 -24.072  0.00  0.00    -0.096 C 
ENDBRANCH   3   4
ENDBRANCH   2   3
ENDBRANCH   1   2
BRANCH   1   8
ATOM      8  C   UNL     1      31.155 -11.454 -21.164  0.00  0.00    -0.002 C 
BRANCH   8   9
ATOM      9  C   UNL     1      31.665 -10.036 -20.906  0.00  0.00    -0.022 C 
BRANCH   9  10
ATOM     10  C   UNL     1      31.956  -9.314 -22.213  0.00  0.00    -0.073 C 
BRANCH  10  11
ATOM     11  N   UNL     1      32.432  -7.942 -21.913  0.00  0.00    +0.386 N 
ATOM     12  C   UNL     1      32.681  -7.766 -20.409  0.00  0.00    -0.096 C 
ATOM     13  C   UNL     1      33.746  -7.646 -22.651  0.00  0.00    -0.096 C 
ATOM     14  C   UNL     1      31.396  -6.896 -22.350  0.00  0.00    -0.096 C 
ENDBRANCH  10  11
ENDBRANCH   9  10
ENDBRANCH   8   9
ENDBRANCH   1   8
TORSDOF 7
ENDMDL
MODEL 6
REMARK VINA RESULT:      -5.1     10.313     12.630
REMARK  Name = 3604
REMARK  7 active torsions:
REMARK  status: ('A' for Active; 'I' for Inactive)
REMARK    1  A    between atoms: C_1  and  C_2
REMARK    2  A    between atoms: C_1  and  C_8
REMARK    3  A    between atoms: C_2  and  C_3
REMARK    4  A    between atoms: C_3  and  N_4
REMARK    5  A    between atoms: C_8  and  C_9
REMARK    6  A    between atoms: C_9  and  C_10
REMARK    7  A    between atoms: C_10  and  N_11
REMARK                            x       y       z     vdW  Elec       q    Type
REMARK                         _______ _______ _______ _____ _____    ______ ____
ROOT
ATOM      1  C   UNL     1      33.986 -23.252 -16.412  0.00  0.00    -0.002 C 
ENDROOT
BRANCH   1   2
ATOM      2  C   UNL     1      32.835 -23.460 -15.425  0.00  0.00    -0.022 C 
BRANCH   2   3
ATOM      3  C   UNL     1      31.491 -23.399 -16.135  0.00  0.00    -0.073 C 
BRANCH   3   4
ATOM      4  N   UNL     1      30.415 -23.710 -15.163  0.00  0.00    +0.386 N 
ATOM      5  C   UNL     1      29.967 -25.174 -15.294  0.00  0.00    -0.096 C 
ATOM      6  C   UNL     1      30.899 -23.489 -13.723  0.00  0.00    -0.096 C 
ATOM      7  C   UNL     1      29.190 -22.815 -15.397  0.00  0.00    -0.096 C 
ENDBRANCH   3   4
ENDBRANCH   2   3
ENDBRANCH   1   2
BRANCH   1   8
ATOM      8  C   UNL     1      35.323 -23.103 -15.684  0.00  0.00    -0.002 C 
BRANCH   8   9
ATOM      9  C   UNL     1      35.805 -24.441 -15.122  0.00  0.00    -0.022 C 
BRANCH   9  10
ATOM     10  C   UNL     1      37.255 -24.354 -14.671  0.00  0.00    -0.073 C 
BRANCH  10  11
ATOM     11  N   UNL     1      37.719 -25.702 -14.265  0.00  0.00    +0.386 N 
ATOM     12  C   UNL     1      37.043 -26.790 -15.113  0.00  0.00    -0.096 C 
ATOM     13  C   UNL     1      39.238 -25.835 -14.445  0.00  0.00    -0.096 C 
ATOM     14  C   UNL     1      37.388 -25.974 -12.790  0.00  0.00    -0.096 C 
ENDBRANCH  10  11
ENDBRANCH   9  10
ENDBRANCH   8   9
ENDBRANCH   1   8
TORSDOF 7
ENDMDL
MODEL 7
REMARK VINA RESULT:      -5.1      3.931      6.362
REMARK  Name = 3604
REMARK  7 active torsions:
REMARK  status: ('A' for Active; 'I' for Inactive)
REMARK    1  A    between atoms: C_1  and  C_2
REMARK    2  A    between atoms: C_1  and  C_8
REMARK    3  A    between atoms: C_2  and  C_3
REMARK    4  A    between atoms: C_3  and  N_4
REMARK    5  A    between atoms: C_8  and  C_9
REMARK    6  A    between atoms: C_9  and  C_10
REMARK    7  A    between atoms: C_10  and  N_11
REMARK                            x       y       z     vdW  Elec       q    Type
REMARK                         _______ _______ _______ _____ _____    ______ ____
ROOT
ATOM      1  C   UNL     1      31.286 -11.640 -20.704  0.00  0.00    -0.002 C 
ENDROOT
BRANCH   1   2
ATOM      2  C   UNL     1      32.039 -12.961 -20.531  0.00  0.00    -0.022 C 
BRANCH   2   3
ATOM      3  C   UNL     1      32.600 -13.447 -21.859  0.00  0.00    -0.073 C 
BRANCH   3   4
ATOM      4  N   UNL     1      33.233 -14.773 -21.662  0.00  0.00    +0.386 N 
ATOM      5  C   UNL     1      32.315 -15.702 -20.853  0.00  0.00    -0.096 C 
ATOM      6  C   UNL     1      33.522 -15.447 -23.011  0.00  0.00    -0.096 C 
ATOM      7  C   UNL     1      34.560 -14.638 -20.902  0.00  0.00    -0.096 C 
ENDBRANCH   3   4
ENDBRANCH   2   3
ENDBRANCH   1   2
BRANCH   1   8
ATOM      8  C   UNL     1      31.500 -10.716 -19.504  0.00  0.00    -0.002 C 
BRANCH   8   9
ATOM      9  C   UNL     1      31.986  -9.335 -19.944  0.00  0.00    -0.022 C 
BRANCH   9  10
ATOM     10  C   UNL     1      32.043  -9.232 -21.460  0.00  0.00    -0.073 C 
BRANCH  10  11
ATOM     11  N   UNL     1      32.258  -7.817 -21.843  0.00  0.00    +0.386 N 
ATOM     12  C   UNL     1      33.654  -7.622 -22.453  0.00  0.00    -0.096 C 
ATOM     13  C   UNL     1      31.219  -7.366 -22.880  0.00  0.00    -0.096 C 
ATOM     14  C   UNL     1      32.140  -6.895 -20.621  0.00  0.00    -0.096 C 
ENDBRANCH  10  11
ENDBRANCH   9  10
ENDBRANCH   8   9
ENDBRANCH   1   8
TORSDOF 7
ENDMDL
MODEL 8
REMARK VINA RESULT:      -5.1      4.664      9.095
REMARK  Name = 3604
REMARK  7 active torsions:
REMARK  status: ('A' for Active; 'I' for Inactive)
REMARK    1  A    between atoms: C_1  and  C_2
REMARK    2  A    between atoms: C_1  and  C_8
REMARK    3  A    between atoms: C_2  and  C_3
REMARK    4  A    between atoms: C_3  and  N_4
REMARK    5  A    between atoms: C_8  and  C_9
REMARK    6  A    between atoms: C_9  and  C_10
REMARK    7  A    between atoms: C_10  and  N_11
REMARK                            x       y       z     vdW  Elec       q    Type
REMARK                         _______ _______ _______ _____ _____    ______ ____
ROOT
ATOM      1  C   UNL     1      33.412 -21.380 -19.420  0.00  0.00    -0.002 C 
ENDROOT
BRANCH   1   2
ATOM      2  C   UNL     1      34.473 -20.597 -20.196  0.00  0.00    -0.022 C 
BRANCH   2   3
ATOM      3  C   UNL     1      33.837 -19.488 -21.020  0.00  0.00    -0.073 C 
BRANCH   3   4
ATOM      4  N   UNL     1      34.907 -18.653 -21.617  0.00  0.00    +0.386 N 
ATOM      5  C   UNL     1      36.280 -19.026 -21.036  0.00  0.00    -0.096 C 
ATOM      6  C   UNL     1      34.966 -18.845 -23.138  0.00  0.00    -0.096 C 
ATOM      7  C   UNL     1      34.661 -17.164 -21.334  0.00  0.00    -0.096 C 
ENDBRANCH   3   4
ENDBRANCH   2   3
ENDBRANCH   1   2
BRANCH   1   8
ATOM      8  C   UNL     1      33.948 -22.737 -18.958  0.00  0.00    -0.002 C 
BRANCH   8   9
ATOM      9  C   UNL     1      34.512 -22.660 -17.539  0.00  0.00    -0.022 C 
BRANCH   9  10
ATOM     10  C   UNL     1      33.844 -23.680 -16.630  0.00  0.00    -0.073 C 
BRANCH  10  11
ATOM     11  N   UNL     1      34.598 -23.764 -15.357  0.00  0.00    +0.386 N 
ATOM     12  C   UNL     1      35.399 -25.072 -15.280  0.00  0.00    -0.096 C 
ATOM     13  C   UNL     1      35.585 -22.594 -15.228  0.00  0.00    -0.096 C 
ATOM     14  C   UNL     1      33.647 -23.717 -14.152  0.00  0.00    -0.096 C 
ENDBRANCH  10  11
ENDBRANCH   9  10
ENDBRANCH   8   9
ENDBRANCH   1   8
TORSDOF 7
ENDMDL
MODEL 9
REMARK VINA RESULT:      -5.1     10.383     11.871
REMARK  Name = 3604
REMARK  7 active torsions:
REMARK  status: ('A' for Active; 'I' for Inactive)
REMARK    1  A    between atoms: C_1  and  C_2
REMARK    2  A    between atoms: C_1  and  C_8
REMARK    3  A    between atoms: C_2  and  C_3
REMARK    4  A    between atoms: C_3  and  N_4
REMARK    5  A    between atoms: C_8  and  C_9
REMARK    6  A    between atoms: C_9  and  C_10
REMARK    7  A    between atoms: C_10  and  N_11
REMARK                            x       y       z     vdW  Elec       q    Type
REMARK                         _______ _______ _______ _____ _____    ______ ____
ROOT
ATOM      1  C   UNL     1      35.414 -22.995 -15.652  0.00  0.00    -0.002 C 
ENDROOT
BRANCH   1   2
ATOM      2  C   UNL     1      36.128 -24.252 -15.151  0.00  0.00    -0.022 C 
BRANCH   2   3
ATOM      3  C   UNL     1      37.610 -23.988 -14.935  0.00  0.00    -0.073 C 
BRANCH   3   4
ATOM      4  N   UNL     1      38.235 -25.194 -14.340  0.00  0.00    +0.386 N 
ATOM      5  C   UNL     1      38.346 -25.056 -12.814  0.00  0.00    -0.096 C 
ATOM      6  C   UNL     1      37.404 -26.448 -14.645  0.00  0.00    -0.096 C 
ATOM      7  C   UNL     1      39.648 -25.411 -14.901  0.00  0.00    -0.096 C 
ENDBRANCH   3   4
ENDBRANCH   2   3
ENDBRANCH   1   2
BRANCH   1   8
ATOM      8  C   UNL     1      34.111 -23.343 -16.372  0.00  0.00    -0.002 C 
BRANCH   8   9
ATOM      9  C   UNL     1      32.955 -23.509 -15.385  0.00  0.00    -0.022 C 
BRANCH   9  10
ATOM     10  C   UNL     1      31.612 -23.391 -16.090  0.00  0.00    -0.073 C 
BRANCH  10  11
ATOM     11  N   UNL     1      30.529 -23.699 -15.126  0.00  0.00    +0.386 N 
ATOM     12  C   UNL     1      29.324 -22.773 -15.345  0.00  0.00    -0.096 C 
ATOM     13  C   UNL     1      30.050 -25.149 -15.286  0.00  0.00    -0.096 C 
ATOM     14  C   UNL     1      31.015 -23.514 -13.681  0.00  0.00    -0.096 C 
ENDBRANCH  10  11
ENDBRANCH   9  10
ENDBRANCH   8   9
ENDBRANCH   1   8
TORSDOF 7
ENDMDL
