MODEL 1
REMARK VINA RESULT:      -9.5      0.000      0.000
REMARK  Name = 1548970
REMARK  7 active torsions:
REMARK  status: ('A' for Active; 'I' for Inactive)
REMARK    1  A    between atoms: C_1  and  C_2
REMARK    2  A    between atoms: C_1  and  O_8
REMARK    3  A    between atoms: C_1  and  C_19
REMARK    4  A    between atoms: O_8  and  C_9
REMARK    5  A    between atoms: C_12  and  C_18
REMARK    6  A    between atoms: C_19  and  C_20
REMARK    7  A    between atoms: C_20  and  N_21
REMARK                            x       y       z     vdW  Elec       q    Type
REMARK                         _______ _______ _______ _____ _____    ______ ____
ROOT
ATOM      1  C   UNL     1      34.164 -23.057 -16.348  0.00  0.00    +0.186 C 
ENDROOT
BRANCH   1   2
ATOM      2  C   UNL     1      32.895 -23.512 -15.666  0.00  0.00    +0.017 C 
ATOM      3  C   UNL     1      32.980 -24.218 -14.478  0.00  0.00    -0.001 C 
ATOM      4  C   UNL     1      31.671 -23.212 -16.242  0.00  0.00    -0.001 C 
ATOM      5  C   UNL     1      31.809 -24.638 -13.847  0.00  0.00    -0.000 C 
ATOM      6  C   UNL     1      30.499 -23.631 -15.611  0.00  0.00    -0.000 C 
ATOM      7  C   UNL     1      30.568 -24.344 -14.414  0.00  0.00    -0.000 C 
ENDBRANCH   1   2
BRANCH   1   8
ATOM      8  O   UNL     1      34.065 -23.395 -17.733  0.00  0.00    -0.475 OA
BRANCH   8   9
ATOM      9  C   UNL     1      34.235 -22.372 -18.624  0.00  0.00    +0.139 C 
ATOM     10  C   UNL     1      33.122 -21.730 -19.159  0.00  0.00    +0.037 C 
ATOM     11  C   UNL     1      35.519 -21.980 -18.990  0.00  0.00    +0.037 C 
ATOM     12  C   UNL     1      34.579 -20.290 -20.438  0.00  0.00    +0.072 C 
ATOM     13  C   UNL     1      33.294 -20.687 -20.068  0.00  0.00    +0.007 C 
ATOM     14  C   UNL     1      35.691 -20.936 -19.900  0.00  0.00    +0.007 C 
BRANCH  12  18
ATOM     15  F   UNL     1      36.000 -18.599 -21.358  0.00  0.00    -0.166 F 
ATOM     16  F   UNL     1      34.600 -19.553 -22.713  0.00  0.00    -0.166 F 
ATOM     17  F   UNL     1      33.875 -18.155 -21.214  0.00  0.00    -0.166 F 
ATOM     18  C   UNL     1      34.762 -19.174 -21.410  0.00  0.00    +0.419 C 
ENDBRANCH  12  18
ENDBRANCH   8   9
ENDBRANCH   1   8
BRANCH   1  19
ATOM     19  C   UNL     1      35.442 -23.684 -15.767  0.00  0.00    +0.025 C 
BRANCH  19  20
ATOM     20  C   UNL     1      36.589 -22.682 -15.627  0.00  0.00    -0.078 C 
BRANCH  20  21
ATOM     21  N   UNL     1      37.871 -23.354 -15.807  0.00  0.00    +0.382 N 
ATOM     22  C   UNL     1      38.041 -24.419 -14.830  0.00  0.00    -0.106 C 
ATOM     23  H   UNL     1      38.623 -22.674 -15.695  0.00  0.00    -0.085 HD
ATOM     24  H   UNL     1      37.896 -23.762 -16.742  0.00  0.00    -0.085 HD
ENDBRANCH  20  21
ENDBRANCH  19  20
ENDBRANCH   1  19
TORSDOF 7
ENDMDL
MODEL 2
REMARK VINA RESULT:      -8.9      4.578      8.337
REMARK  Name = 1548970
REMARK  7 active torsions:
REMARK  status: ('A' for Active; 'I' for Inactive)
REMARK    1  A    between atoms: C_1  and  C_2
REMARK    2  A    between atoms: C_1  and  O_8
REMARK    3  A    between atoms: C_1  and  C_19
REMARK    4  A    between atoms: O_8  and  C_9
REMARK    5  A    between atoms: C_12  and  C_18
REMARK    6  A    between atoms: C_19  and  C_20
REMARK    7  A    between atoms: C_20  and  N_21
REMARK                            x       y       z     vdW  Elec       q    Type
REMARK                         _______ _______ _______ _____ _____    ______ ____
ROOT
ATOM      1  C   UNL     1      34.657 -18.336 -22.392  0.00  0.00    +0.186 C 
ENDROOT
BRANCH   1   2
ATOM      2  C   UNL     1      34.213 -16.990 -21.868  0.00  0.00    +0.017 C 
ATOM      3  C   UNL     1      35.007 -15.879 -22.095  0.00  0.00    -0.001 C 
ATOM      4  C   UNL     1      33.019 -16.895 -21.172  0.00  0.00    -0.001 C 
ATOM      5  C   UNL     1      34.598 -14.636 -21.611  0.00  0.00    -0.000 C 
ATOM      6  C   UNL     1      32.609 -15.651 -20.689  0.00  0.00    -0.000 C 
ATOM      7  C   UNL     1      33.399 -14.522 -20.908  0.00  0.00    -0.000 C 
ENDBRANCH   1   2
BRANCH   1   8
ATOM      8  O   UNL     1      35.585 -18.889 -21.457  0.00  0.00    -0.475 OA
BRANCH   8   9
ATOM      9  C   UNL     1      35.116 -19.887 -20.649  0.00  0.00    +0.139 C 
ATOM     10  C   UNL     1      33.745 -20.106 -20.547  0.00  0.00    +0.037 C 
ATOM     11  C   UNL     1      36.011 -20.679 -19.937  0.00  0.00    +0.037 C 
ATOM     12  C   UNL     1      34.159 -21.921 -19.008  0.00  0.00    +0.072 C 
ATOM     13  C   UNL     1      33.265 -21.125 -19.724  0.00  0.00    +0.007 C 
ATOM     14  C   UNL     1      35.531 -21.698 -19.113  0.00  0.00    +0.007 C 
BRANCH  12  18
ATOM     15  F   UNL     1      34.388 -23.198 -16.997  0.00  0.00    -0.166 F 
ATOM     16  F   UNL     1      32.370 -22.799 -17.685  0.00  0.00    -0.166 F 
ATOM     17  F   UNL     1      33.617 -24.223 -18.754  0.00  0.00    -0.166 F 
ATOM     18  C   UNL     1      33.645 -23.010 -18.128  0.00  0.00    +0.419 C 
ENDBRANCH  12  18
ENDBRANCH   8   9
ENDBRANCH   1   8
BRANCH   1  19
ATOM     19  C   UNL     1      35.317 -18.277 -23.780  0.00  0.00    +0.025 C 
BRANCH  19  20
ATOM     20  C   UNL     1      34.332 -17.922 -24.895  0.00  0.00    -0.078 C 
BRANCH  20  21
ATOM     21  N   UNL     1      34.726 -16.673 -25.536  0.00  0.00    +0.382 N 
ATOM     22  C   UNL     1      33.627 -15.718 -25.533  0.00  0.00    -0.106 C 
ATOM     23  H   UNL     1      35.000 -16.864 -26.500  0.00  0.00    -0.085 HD
ATOM     24  H   UNL     1      35.508 -16.273 -25.017  0.00  0.00    -0.085 HD
ENDBRANCH  20  21
ENDBRANCH  19  20
ENDBRANCH   1  19
TORSDOF 7
ENDMDL
MODEL 3
REMARK VINA RESULT:      -8.9      4.866      8.676
REMARK  Name = 1548970
REMARK  7 active torsions:
REMARK  status: ('A' for Active; 'I' for Inactive)
REMARK    1  A    between atoms: C_1  and  C_2
REMARK    2  A    between atoms: C_1  and  O_8
REMARK    3  A    between atoms: C_1  and  C_19
REMARK    4  A    between atoms: O_8  and  C_9
REMARK    5  A    between atoms: C_12  and  C_18
REMARK    6  A    between atoms: C_19  and  C_20
REMARK    7  A    between atoms: C_20  and  N_21
REMARK                            x       y       z     vdW  Elec       q    Type
REMARK                         _______ _______ _______ _____ _____    ______ ____
ROOT
ATOM      1  C   UNL     1      34.342 -16.724 -22.886  0.00  0.00    +0.186 C 
ENDROOT
BRANCH   1   2
ATOM      2  C   UNL     1      33.628 -15.509 -22.340  0.00  0.00    +0.017 C 
ATOM      3  C   UNL     1      33.180 -14.536 -23.218  0.00  0.00    -0.001 C 
ATOM      4  C   UNL     1      33.436 -15.393 -20.974  0.00  0.00    -0.001 C 
ATOM      5  C   UNL     1      32.520 -13.414 -22.715  0.00  0.00    -0.000 C 
ATOM      6  C   UNL     1      32.775 -14.271 -20.471  0.00  0.00    -0.000 C 
ATOM      7  C   UNL     1      32.318 -13.282 -21.342  0.00  0.00    -0.000 C 
ENDBRANCH   1   2
BRANCH   1   8
ATOM      8  O   UNL     1      35.335 -17.115 -21.936  0.00  0.00    -0.475 OA
BRANCH   8   9
ATOM      9  C   UNL     1      35.145 -18.318 -21.314  0.00  0.00    +0.139 C 
ATOM     10  C   UNL     1      36.245 -19.046 -20.869  0.00  0.00    +0.037 C 
ATOM     11  C   UNL     1      33.855 -18.805 -21.130  0.00  0.00    +0.037 C 
ATOM     12  C   UNL     1      34.761 -20.766 -20.048  0.00  0.00    +0.072 C 
ATOM     13  C   UNL     1      36.052 -20.273 -20.234  0.00  0.00    +0.007 C 
ATOM     14  C   UNL     1      33.662 -20.033 -20.495  0.00  0.00    +0.007 C 
BRANCH  12  18
ATOM     15  F   UNL     1      33.287 -22.260 -18.898  0.00  0.00    -0.166 F 
ATOM     16  F   UNL     1      34.793 -23.154 -20.178  0.00  0.00    -0.166 F 
ATOM     17  F   UNL     1      35.375 -22.246 -18.290  0.00  0.00    -0.166 F 
ATOM     18  C   UNL     1      34.556 -22.078 -19.369  0.00  0.00    +0.419 C 
ENDBRANCH  12  18
ENDBRANCH   8   9
ENDBRANCH   1   8
BRANCH   1  19
ATOM     19  C   UNL     1      35.014 -16.491 -24.249  0.00  0.00    +0.025 C 
BRANCH  19  20
ATOM     20  C   UNL     1      34.591 -17.513 -25.305  0.00  0.00    -0.078 C 
BRANCH  20  21
ATOM     21  N   UNL     1      34.031 -18.698 -24.665  0.00  0.00    +0.382 N 
ATOM     22  C   UNL     1      34.969 -19.810 -24.720  0.00  0.00    -0.106 C 
ATOM     23  H   UNL     1      33.171 -18.962 -25.145  0.00  0.00    -0.085 HD
ATOM     24  H   UNL     1      33.840 -18.480 -23.687  0.00  0.00    -0.085 HD
ENDBRANCH  20  21
ENDBRANCH  19  20
ENDBRANCH   1  19
TORSDOF 7
ENDMDL
MODEL 4
REMARK VINA RESULT:      -8.9     10.883     14.764
REMARK  Name = 1548970
REMARK  7 active torsions:
REMARK  status: ('A' for Active; 'I' for Inactive)
REMARK    1  A    between atoms: C_1  and  C_2
REMARK    2  A    between atoms: C_1  and  O_8
REMARK    3  A    between atoms: C_1  and  C_19
REMARK    4  A    between atoms: O_8  and  C_9
REMARK    5  A    between atoms: C_12  and  C_18
REMARK    6  A    between atoms: C_19  and  C_20
REMARK    7  A    between atoms: C_20  and  N_21
REMARK                            x       y       z     vdW  Elec       q    Type
REMARK                         _______ _______ _______ _____ _____    ______ ____
ROOT
ATOM      1  C   UNL     1      33.225  -8.128 -22.474  0.00  0.00    +0.186 C 
ENDROOT
BRANCH   1   2
ATOM      2  C   UNL     1      33.265  -7.166 -23.639  0.00  0.00    +0.017 C 
ATOM      3  C   UNL     1      34.425  -7.058 -24.388  0.00  0.00    -0.001 C 
ATOM      4  C   UNL     1      32.142  -6.412 -23.934  0.00  0.00    -0.001 C 
ATOM      5  C   UNL     1      34.463  -6.170 -25.463  0.00  0.00    -0.000 C 
ATOM      6  C   UNL     1      32.179  -5.525 -25.011  0.00  0.00    -0.000 C 
ATOM      7  C   UNL     1      33.340  -5.404 -25.775  0.00  0.00    -0.000 C 
ENDBRANCH   1   2
BRANCH   1   8
ATOM      8  O   UNL     1      32.139  -9.032 -22.687  0.00  0.00    -0.475 OA
BRANCH   8   9
ATOM      9  C   UNL     1      32.468 -10.338 -22.924  0.00  0.00    +0.139 C 
ATOM     10  C   UNL     1      31.816 -11.351 -22.228  0.00  0.00    +0.037 C 
ATOM     11  C   UNL     1      33.452 -10.644 -23.859  0.00  0.00    +0.037 C 
ATOM     12  C   UNL     1      33.137 -12.996 -23.405  0.00  0.00    +0.072 C 
ATOM     13  C   UNL     1      32.151 -12.684 -22.469  0.00  0.00    +0.007 C 
ATOM     14  C   UNL     1      33.787 -11.977 -24.100  0.00  0.00    +0.007 C 
BRANCH  12  18
ATOM     15  F   UNL     1      33.170 -14.850 -24.917  0.00  0.00    -0.166 F 
ATOM     16  F   UNL     1      34.829 -14.681 -23.530  0.00  0.00    -0.166 F 
ATOM     17  F   UNL     1      32.869 -15.282 -22.807  0.00  0.00    -0.166 F 
ATOM     18  C   UNL     1      33.494 -14.421 -23.662  0.00  0.00    +0.419 C 
ENDBRANCH  12  18
ENDBRANCH   8   9
ENDBRANCH   1   8
BRANCH   1  19
ATOM     19  C   UNL     1      33.050  -7.445 -21.108  0.00  0.00    +0.025 C 
BRANCH  19  20
ATOM     20  C   UNL     1      31.996  -8.123 -20.232  0.00  0.00    -0.078 C 
BRANCH  20  21
ATOM     21  N   UNL     1      32.611  -9.163 -19.416  0.00  0.00    +0.382 N 
ATOM     22  C   UNL     1      31.628 -10.159 -19.015  0.00  0.00    -0.106 C 
ATOM     23  H   UNL     1      33.016  -8.738 -18.582  0.00  0.00    -0.085 HD
ATOM     24  H   UNL     1      33.335  -9.624 -19.968  0.00  0.00    -0.085 HD
ENDBRANCH  20  21
ENDBRANCH  19  20
ENDBRANCH   1  19
TORSDOF 7
ENDMDL
MODEL 5
REMARK VINA RESULT:      -8.8      4.948      7.487
REMARK  Name = 1548970
REMARK  7 active torsions:
REMARK  status: ('A' for Active; 'I' for Inactive)
REMARK    1  A    between atoms: C_1  and  C_2
REMARK    2  A    between atoms: C_1  and  O_8
REMARK    3  A    between atoms: C_1  and  C_19
REMARK    4  A    between atoms: O_8  and  C_9
REMARK    5  A    between atoms: C_12  and  C_18
REMARK    6  A    between atoms: C_19  and  C_20
REMARK    7  A    between atoms: C_20  and  N_21
REMARK                            x       y       z     vdW  Elec       q    Type
REMARK                         _______ _______ _______ _____ _____    ______ ____
ROOT
ATOM      1  C   UNL     1      35.338 -18.731 -21.468  0.00  0.00    +0.186 C 
ENDROOT
BRANCH   1   2
ATOM      2  C   UNL     1      35.007 -19.934 -20.616  0.00  0.00    +0.017 C 
ATOM      3  C   UNL     1      33.681 -20.266 -20.398  0.00  0.00    -0.001 C 
ATOM      4  C   UNL     1      36.038 -20.682 -20.070  0.00  0.00    -0.001 C 
ATOM      5  C   UNL     1      33.375 -21.377 -19.612  0.00  0.00    -0.000 C 
ATOM      6  C   UNL     1      35.732 -21.794 -19.285  0.00  0.00    -0.000 C 
ATOM      7  C   UNL     1      34.400 -22.141 -19.056  0.00  0.00    -0.000 C 
ENDBRANCH   1   2
BRANCH   1   8
ATOM      8  O   UNL     1      35.267 -17.570 -20.637  0.00  0.00    -0.475 OA
BRANCH   8   9
ATOM      9  C   UNL     1      34.584 -16.499 -21.142  0.00  0.00    +0.139 C 
ATOM     10  C   UNL     1      33.371 -16.122 -20.572  0.00  0.00    +0.037 C 
ATOM     11  C   UNL     1      35.107 -15.791 -22.220  0.00  0.00    +0.037 C 
ATOM     12  C   UNL     1      33.194 -14.317 -22.168  0.00  0.00    +0.072 C 
ATOM     13  C   UNL     1      32.674 -15.029 -21.087  0.00  0.00    +0.007 C 
ATOM     14  C   UNL     1      34.410 -14.697 -22.735  0.00  0.00    +0.007 C 
BRANCH  12  18
ATOM     15  F   UNL     1      33.246 -12.081 -23.018  0.00  0.00    -0.166 F 
ATOM     16  F   UNL     1      31.772 -13.424 -23.872  0.00  0.00    -0.166 F 
ATOM     17  F   UNL     1      31.508 -12.670 -21.850  0.00  0.00    -0.166 F 
ATOM     18  C   UNL     1      32.448 -13.148 -22.717  0.00  0.00    +0.419 C 
ENDBRANCH  12  18
ENDBRANCH   8   9
ENDBRANCH   1   8
BRANCH   1  19
ATOM     19  C   UNL     1      34.402 -18.544 -22.673  0.00  0.00    +0.025 C 
BRANCH  19  20
ATOM     20  C   UNL     1      34.909 -19.240 -23.937  0.00  0.00    -0.078 C 
BRANCH  20  21
ATOM     21  N   UNL     1      34.209 -18.729 -25.110  0.00  0.00    +0.382 N 
ATOM     22  C   UNL     1      34.537 -17.330 -25.342  0.00  0.00    -0.106 C 
ATOM     23  H   UNL     1      33.203 -18.817 -24.963  0.00  0.00    -0.085 HD
ATOM     24  H   UNL     1      34.498 -19.272 -25.924  0.00  0.00    -0.085 HD
ENDBRANCH  20  21
ENDBRANCH  19  20
ENDBRANCH   1  19
TORSDOF 7
ENDMDL
MODEL 6
REMARK VINA RESULT:      -8.8      5.824      8.439
REMARK  Name = 1548970
REMARK  7 active torsions:
REMARK  status: ('A' for Active; 'I' for Inactive)
REMARK    1  A    between atoms: C_1  and  C_2
REMARK    2  A    between atoms: C_1  and  O_8
REMARK    3  A    between atoms: C_1  and  C_19
REMARK    4  A    between atoms: O_8  and  C_9
REMARK    5  A    between atoms: C_12  and  C_18
REMARK    6  A    between atoms: C_19  and  C_20
REMARK    7  A    between atoms: C_20  and  N_21
REMARK                            x       y       z     vdW  Elec       q    Type
REMARK                         _______ _______ _______ _____ _____    ______ ____
ROOT
ATOM      1  C   UNL     1      34.802 -17.390 -21.710  0.00  0.00    +0.186 C 
ENDROOT
BRANCH   1   2
ATOM      2  C   UNL     1      34.742 -18.749 -21.050  0.00  0.00    +0.017 C 
ATOM      3  C   UNL     1      33.508 -19.326 -20.800  0.00  0.00    -0.001 C 
ATOM      4  C   UNL     1      35.921 -19.390 -20.710  0.00  0.00    -0.001 C 
ATOM      5  C   UNL     1      33.451 -20.580 -20.192  0.00  0.00    -0.000 C 
ATOM      6  C   UNL     1      35.865 -20.645 -20.103  0.00  0.00    -0.000 C 
ATOM      7  C   UNL     1      34.630 -21.239 -19.843  0.00  0.00    -0.000 C 
ENDBRANCH   1   2
BRANCH   1   8
ATOM      8  O   UNL     1      33.478 -17.039 -22.115  0.00  0.00    -0.475 OA
BRANCH   8   9
ATOM      9  C   UNL     1      33.062 -15.772 -21.811  0.00  0.00    +0.139 C 
ATOM     10  C   UNL     1      32.920 -14.830 -22.826  0.00  0.00    +0.037 C 
ATOM     11  C   UNL     1      32.783 -15.433 -20.491  0.00  0.00    +0.037 C 
ATOM     12  C   UNL     1      32.215 -13.193 -21.195  0.00  0.00    +0.072 C 
ATOM     13  C   UNL     1      32.496 -13.537 -22.517  0.00  0.00    +0.007 C 
ATOM     14  C   UNL     1      32.359 -14.141 -20.182  0.00  0.00    +0.007 C 
BRANCH  12  18
ATOM     15  F   UNL     1      32.275 -10.854 -21.693  0.00  0.00    -0.166 F 
ATOM     16  F   UNL     1      30.407 -11.651 -20.932  0.00  0.00    -0.166 F 
ATOM     17  F   UNL     1      32.112 -11.430 -19.602  0.00  0.00    -0.166 F 
ATOM     18  C   UNL     1      31.762 -11.812 -20.866  0.00  0.00    +0.419 C 
ENDBRANCH  12  18
ENDBRANCH   8   9
ENDBRANCH   1   8
BRANCH   1  19
ATOM     19  C   UNL     1      35.734 -17.331 -22.931  0.00  0.00    +0.025 C 
BRANCH  19  20
ATOM     20  C   UNL     1      35.413 -18.397 -23.980  0.00  0.00    -0.078 C 
BRANCH  20  21
ATOM     21  N   UNL     1      34.320 -17.948 -24.835  0.00  0.00    +0.382 N 
ATOM     22  C   UNL     1      34.611 -16.642 -25.408  0.00  0.00    -0.106 C 
ATOM     23  H   UNL     1      33.466 -17.888 -24.281  0.00  0.00    -0.085 HD
ATOM     24  H   UNL     1      34.205 -18.620 -25.595  0.00  0.00    -0.085 HD
ENDBRANCH  20  21
ENDBRANCH  19  20
ENDBRANCH   1  19
TORSDOF 7
ENDMDL
MODEL 7
REMARK VINA RESULT:      -8.7      9.439     11.857
REMARK  Name = 1548970
REMARK  7 active torsions:
REMARK  status: ('A' for Active; 'I' for Inactive)
REMARK    1  A    between atoms: C_1  and  C_2
REMARK    2  A    between atoms: C_1  and  O_8
REMARK    3  A    between atoms: C_1  and  C_19
REMARK    4  A    between atoms: O_8  and  C_9
REMARK    5  A    between atoms: C_12  and  C_18
REMARK    6  A    between atoms: C_19  and  C_20
REMARK    7  A    between atoms: C_20  and  N_21
REMARK                            x       y       z     vdW  Elec       q    Type
REMARK                         _______ _______ _______ _____ _____    ______ ____
ROOT
ATOM      1  C   UNL     1      33.579 -13.818 -24.117  0.00  0.00    +0.186 C 
ENDROOT
BRANCH   1   2
ATOM      2  C   UNL     1      34.136 -15.223 -24.090  0.00  0.00    +0.017 C 
ATOM      3  C   UNL     1      34.784 -15.672 -22.952  0.00  0.00    -0.001 C 
ATOM      4  C   UNL     1      33.986 -16.033 -25.203  0.00  0.00    -0.001 C 
ATOM      5  C   UNL     1      35.298 -16.968 -22.925  0.00  0.00    -0.000 C 
ATOM      6  C   UNL     1      34.499 -17.331 -25.176  0.00  0.00    -0.000 C 
ATOM      7  C   UNL     1      35.155 -17.798 -24.037  0.00  0.00    -0.000 C 
ENDBRANCH   1   2
BRANCH   1   8
ATOM      8  O   UNL     1      32.266 -13.854 -23.554  0.00  0.00    -0.475 OA
BRANCH   8   9
ATOM      9  C   UNL     1      32.050 -13.063 -22.459  0.00  0.00    +0.139 C 
ATOM     10  C   UNL     1      32.326 -13.555 -21.187  0.00  0.00    +0.037 C 
ATOM     11  C   UNL     1      31.559 -11.772 -22.625  0.00  0.00    +0.037 C 
ATOM     12  C   UNL     1      31.613 -11.454 -20.231  0.00  0.00    +0.072 C 
ATOM     13  C   UNL     1      32.106 -12.749 -20.070  0.00  0.00    +0.007 C 
ATOM     14  C   UNL     1      31.339 -10.965 -21.508  0.00  0.00    +0.007 C 
BRANCH  12  18
ATOM     15  F   UNL     1      31.534 -11.249 -17.848  0.00  0.00    -0.166 F 
ATOM     16  F   UNL     1      32.220  -9.519 -18.963  0.00  0.00    -0.166 F 
ATOM     17  F   UNL     1      30.117 -10.071 -19.003  0.00  0.00    -0.166 F 
ATOM     18  C   UNL     1      31.378 -10.593 -19.036  0.00  0.00    +0.419 C 
ENDBRANCH  12  18
ENDBRANCH   8   9
ENDBRANCH   1   8
BRANCH   1  19
ATOM     19  C   UNL     1      33.505 -13.205 -25.525  0.00  0.00    +0.025 C 
BRANCH  19  20
ATOM     20  C   UNL     1      33.996 -11.757 -25.572  0.00  0.00    -0.078 C 
BRANCH  20  21
ATOM     21  N   UNL     1      34.504 -11.354 -24.265  0.00  0.00    +0.382 N 
ATOM     22  C   UNL     1      34.501  -9.905 -24.132  0.00  0.00    -0.106 C 
ATOM     23  H   UNL     1      35.457 -11.699 -24.157  0.00  0.00    -0.085 HD
ATOM     24  H   UNL     1      33.899 -11.750 -23.545  0.00  0.00    -0.085 HD
ENDBRANCH  20  21
ENDBRANCH  19  20
ENDBRANCH   1  19
TORSDOF 7
ENDMDL
MODEL 8
REMARK VINA RESULT:      -8.5      1.822      2.831
REMARK  Name = 1548970
REMARK  7 active torsions:
REMARK  status: ('A' for Active; 'I' for Inactive)
REMARK    1  A    between atoms: C_1  and  C_2
REMARK    2  A    between atoms: C_1  and  O_8
REMARK    3  A    between atoms: C_1  and  C_19
REMARK    4  A    between atoms: O_8  and  C_9
REMARK    5  A    between atoms: C_12  and  C_18
REMARK    6  A    between atoms: C_19  and  C_20
REMARK    7  A    between atoms: C_20  and  N_21
REMARK                            x       y       z     vdW  Elec       q    Type
REMARK                         _______ _______ _______ _____ _____    ______ ____
ROOT
ATOM      1  C   UNL     1      32.950 -23.403 -14.646  0.00  0.00    +0.186 C 
ENDROOT
BRANCH   1   2
ATOM      2  C   UNL     1      31.510 -23.736 -14.958  0.00  0.00    +0.017 C 
ATOM      3  C   UNL     1      30.712 -22.786 -15.573  0.00  0.00    -0.001 C 
ATOM      4  C   UNL     1      31.016 -24.986 -14.623  0.00  0.00    -0.001 C 
ATOM      5  C   UNL     1      29.383 -23.093 -15.862  0.00  0.00    -0.000 C 
ATOM      6  C   UNL     1      29.685 -25.294 -14.912  0.00  0.00    -0.000 C 
ATOM      7  C   UNL     1      28.870 -24.347 -15.532  0.00  0.00    -0.000 C 
ENDBRANCH   1   2
BRANCH   1   8
ATOM      8  O   UNL     1      33.776 -24.093 -15.586  0.00  0.00    -0.475 OA
BRANCH   8   9
ATOM      9  C   UNL     1      34.268 -23.352 -16.625  0.00  0.00    +0.139 C 
ATOM     10  C   UNL     1      35.538 -22.792 -16.533  0.00  0.00    +0.037 C 
ATOM     11  C   UNL     1      33.496 -23.165 -17.768  0.00  0.00    +0.037 C 
ATOM     12  C   UNL     1      35.271 -21.846 -18.739  0.00  0.00    +0.072 C 
ATOM     13  C   UNL     1      36.041 -22.037 -17.592  0.00  0.00    +0.007 C 
ATOM     14  C   UNL     1      33.999 -22.410 -18.827  0.00  0.00    +0.007 C 
BRANCH  12  18
ATOM     15  F   UNL     1      36.817 -20.190 -19.510  0.00  0.00    -0.166 F 
ATOM     16  F   UNL     1      36.327 -21.795 -20.885  0.00  0.00    -0.166 F 
ATOM     17  F   UNL     1      34.859 -20.250 -20.454  0.00  0.00    -0.166 F 
ATOM     18  C   UNL     1      35.809 -21.038 -19.871  0.00  0.00    +0.419 C 
ENDBRANCH  12  18
ENDBRANCH   8   9
ENDBRANCH   1   8
BRANCH   1  19
ATOM     19  C   UNL     1      33.383 -23.785 -13.221  0.00  0.00    +0.025 C 
BRANCH  19  20
ATOM     20  C   UNL     1      34.826 -24.289 -13.150  0.00  0.00    -0.078 C 
BRANCH  20  21
ATOM     21  N   UNL     1      35.751 -23.162 -13.102  0.00  0.00    +0.382 N 
ATOM     22  C   UNL     1      36.730 -23.340 -12.039  0.00  0.00    -0.106 C 
ATOM     23  H   UNL     1      35.225 -22.305 -12.933  0.00  0.00    -0.085 HD
ATOM     24  H   UNL     1      36.244 -23.107 -13.994  0.00  0.00    -0.085 HD
ENDBRANCH  20  21
ENDBRANCH  19  20
ENDBRANCH   1  19
TORSDOF 7
ENDMDL
MODEL 9
REMARK VINA RESULT:      -8.5      5.357      9.464
REMARK  Name = 1548970
REMARK  7 active torsions:
REMARK  status: ('A' for Active; 'I' for Inactive)
REMARK    1  A    between atoms: C_1  and  C_2
REMARK    2  A    between atoms: C_1  and  O_8
REMARK    3  A    between atoms: C_1  and  C_19
REMARK    4  A    between atoms: O_8  and  C_9
REMARK    5  A    between atoms: C_12  and  C_18
REMARK    6  A    between atoms: C_19  and  C_20
REMARK    7  A    between atoms: C_20  and  N_21
REMARK                            x       y       z     vdW  Elec       q    Type
REMARK                         _______ _______ _______ _____ _____    ______ ____
ROOT
ATOM      1  C   UNL     1      34.782 -16.155 -22.739  0.00  0.00    +0.186 C 
ENDROOT
BRANCH   1   2
ATOM      2  C   UNL     1      34.196 -15.322 -23.855  0.00  0.00    +0.017 C 
ATOM      3  C   UNL     1      33.806 -15.942 -25.031  0.00  0.00    -0.001 C 
ATOM      4  C   UNL     1      34.060 -13.954 -23.680  0.00  0.00    -0.001 C 
ATOM      5  C   UNL     1      33.265 -15.173 -26.061  0.00  0.00    -0.000 C 
ATOM      6  C   UNL     1      33.517 -13.186 -24.711  0.00  0.00    -0.000 C 
ATOM      7  C   UNL     1      33.121 -13.795 -25.901  0.00  0.00    -0.000 C 
ENDBRANCH   1   2
BRANCH   1   8
ATOM      8  O   UNL     1      34.298 -17.492 -22.887  0.00  0.00    -0.475 OA
BRANCH   8   9
ATOM      9  C   UNL     1      34.797 -18.421 -22.017  0.00  0.00    +0.139 C 
ATOM     10  C   UNL     1      36.162 -18.453 -21.749  0.00  0.00    +0.037 C 
ATOM     11  C   UNL     1      33.936 -19.328 -21.405  0.00  0.00    +0.037 C 
ATOM     12  C   UNL     1      35.813 -20.312 -20.245  0.00  0.00    +0.072 C 
ATOM     13  C   UNL     1      36.672 -19.401 -20.861  0.00  0.00    +0.007 C 
ATOM     14  C   UNL     1      34.446 -20.276 -20.517  0.00  0.00    +0.007 C 
BRANCH  12  18
ATOM     15  F   UNL     1      36.823 -20.788 -18.129  0.00  0.00    -0.166 F 
ATOM     16  F   UNL     1      35.445 -22.266 -18.917  0.00  0.00    -0.166 F 
ATOM     17  F   UNL     1      37.408 -22.024 -19.820  0.00  0.00    -0.166 F 
ATOM     18  C   UNL     1      36.359 -21.324 -19.297  0.00  0.00    +0.419 C 
ENDBRANCH  12  18
ENDBRANCH   8   9
ENDBRANCH   1   8
BRANCH   1  19
ATOM     19  C   UNL     1      34.431 -15.647 -21.332  0.00  0.00    +0.025 C 
BRANCH  19  20
ATOM     20  C   UNL     1      32.930 -15.690 -21.038  0.00  0.00    -0.078 C 
BRANCH  20  21
ATOM     21  N   UNL     1      32.580 -14.671 -20.055  0.00  0.00    +0.382 N 
ATOM     22  C   UNL     1      32.274 -13.405 -20.705  0.00  0.00    -0.106 C 
ATOM     23  H   UNL     1      33.364 -14.538 -19.417  0.00  0.00    -0.085 HD
ATOM     24  H   UNL     1      31.754 -14.983 -19.543  0.00  0.00    -0.085 HD
ENDBRANCH  20  21
ENDBRANCH  19  20
ENDBRANCH   1  19
TORSDOF 7
ENDMDL
