MODEL 1
REMARK VINA RESULT:     -10.8      0.000      0.000
REMARK  Name = 17758920
REMARK  10 active torsions:
REMARK  status: ('A' for Active; 'I' for Inactive)
REMARK    1  A    between atoms: C_3  and  C_7
REMARK    2  A    between atoms: C_5  and  O_26
REMARK    3  A    between atoms: C_6  and  C_23
REMARK    4  A    between atoms: C_8  and  N_13
REMARK    5  A    between atoms: N_13  and  C_15
REMARK    6  A    between atoms: C_15  and  C_16
REMARK    7  A    between atoms: C_23  and  O_24
REMARK    8  A    between atoms: O_26  and  C_27
REMARK    9  A    between atoms: C_27  and  C_29
REMARK   10  A    between atoms: C_29  and  O_30
REMARK                            x       y       z     vdW  Elec       q    Type
REMARK                         _______ _______ _______ _____ _____    ______ ____
ROOT
ATOM      1 BR   UNL     1      36.941 -22.440 -16.530  0.00  0.00    -0.045 Br
ATOM      2  S   UNL     1      34.914 -24.707 -13.327  0.00  0.00    -0.077 S 
ATOM      3  C   UNL     1      35.046 -23.758 -14.747  0.00  0.00    +0.039 A 
ATOM      4  C   UNL     1      36.356 -23.461 -15.050  0.00  0.00    +0.075 A 
ATOM      5  C   UNL     1      37.264 -24.019 -14.104  0.00  0.00    +0.158 A 
ATOM      6  C   UNL     1      36.614 -24.721 -13.114  0.00  0.00    +0.139 A 
ENDROOT
BRANCH   3   7
ATOM      7  C   UNL     1      33.831 -23.395 -15.435  0.00  0.00    +0.008 C 
ATOM      8  C   UNL     1      32.695 -22.701 -17.451  0.00  0.00    +0.045 C 
ATOM      9  C   UNL     1      33.870 -23.050 -16.786  0.00  0.00    +0.015 C 
ATOM     10  C   UNL     1      32.617 -23.390 -14.749  0.00  0.00    +0.001 C 
ATOM     11  C   UNL     1      31.481 -22.696 -16.765  0.00  0.00    +0.014 C 
ATOM     12  C   UNL     1      31.441 -23.040 -15.414  0.00  0.00    +0.001 C 
BRANCH   8  13
ATOM     13  N   UNL     1      32.734 -22.352 -18.817  0.00  0.00    -0.329 N 
ATOM     14  H   UNL     1      31.914 -22.011 -19.239  0.00  0.00    +0.147 HD
BRANCH  13  15
ATOM     15  C   UNL     1      33.915 -22.474 -19.616  0.00  0.00    +0.114 C 
BRANCH  15  16
ATOM     16  C   UNL     1      34.335 -21.130 -20.143  0.00  0.00    -0.003 C 
ATOM     17  C   UNL     1      35.689 -20.796 -20.202  0.00  0.00    -0.003 C 
ATOM     18  C   UNL     1      33.373 -20.217 -20.573  0.00  0.00    -0.003 C 
ATOM     19  C   UNL     1      36.079 -19.550 -20.691  0.00  0.00    -0.000 C 
ATOM     20  C   UNL     1      33.763 -18.970 -21.063  0.00  0.00    -0.000 C 
ATOM     21  C   UNL     1      35.116 -18.636 -21.121  0.00  0.00    -0.000 C 
ENDBRANCH  15  16
ENDBRANCH  13  15
ENDBRANCH   8  13
ENDBRANCH   3   7
BRANCH   6  23
ATOM     22  O   UNL     1      36.969 -26.609 -11.682  0.00  0.00    -0.244 OA
ATOM     23  C   UNL     1      37.160 -25.420 -11.995  0.00  0.00    +0.347 C 
BRANCH  23  24
ATOM     24  O   UNL     1      37.977 -24.635 -11.221  0.00  0.00    -0.477 OA
ATOM     25  H   UNL     1      38.245 -23.791 -11.528  0.00  0.00    +0.295 HD
ENDBRANCH  23  24
ENDBRANCH   6  23
BRANCH   5  26
ATOM     26  O   UNL     1      38.606 -23.901 -14.135  0.00  0.00    -0.463 OA
BRANCH  26  27
ATOM     27  C   UNL     1      39.302 -24.674 -15.116  0.00  0.00    +0.314 C 
BRANCH  27  29
ATOM     28  O   UNL     1      40.825 -26.119 -13.893  0.00  0.00    -0.246 OA
ATOM     29  C   UNL     1      39.779 -25.962 -14.503  0.00  0.00    +0.359 C 
BRANCH  29  30
ATOM     30  O   UNL     1      38.873 -26.948 -14.724  0.00  0.00    -0.478 OA
ATOM     31  H   UNL     1      39.158 -27.835 -14.811  0.00  0.00    +0.295 HD
ENDBRANCH  29  30
ENDBRANCH  27  29
ENDBRANCH  26  27
ENDBRANCH   5  26
TORSDOF 10
ENDMDL
MODEL 2
REMARK VINA RESULT:     -10.2     10.518     14.511
REMARK  Name = 17758920
REMARK  10 active torsions:
REMARK  status: ('A' for Active; 'I' for Inactive)
REMARK    1  A    between atoms: C_3  and  C_7
REMARK    2  A    between atoms: C_5  and  O_26
REMARK    3  A    between atoms: C_6  and  C_23
REMARK    4  A    between atoms: C_8  and  N_13
REMARK    5  A    between atoms: N_13  and  C_15
REMARK    6  A    between atoms: C_15  and  C_16
REMARK    7  A    between atoms: C_23  and  O_24
REMARK    8  A    between atoms: O_26  and  C_27
REMARK    9  A    between atoms: C_27  and  C_29
REMARK   10  A    between atoms: C_29  and  O_30
REMARK                            x       y       z     vdW  Elec       q    Type
REMARK                         _______ _______ _______ _____ _____    ______ ____
ROOT
ATOM      1 BR   UNL     1      31.556 -12.690 -20.996  0.00  0.00    -0.045 Br
ATOM      2  S   UNL     1      33.860 -10.987 -24.356  0.00  0.00    -0.077 S 
ATOM      3  C   UNL     1      33.230 -12.209 -23.335  0.00  0.00    +0.039 A 
ATOM      4  C   UNL     1      32.441 -11.689 -22.333  0.00  0.00    +0.075 A 
ATOM      5  C   UNL     1      32.353 -10.269 -22.404  0.00  0.00    +0.158 A 
ATOM      6  C   UNL     1      33.078  -9.757 -23.457  0.00  0.00    +0.139 A 
ENDROOT
BRANCH   3   7
ATOM      7  C   UNL     1      33.577 -13.580 -23.624  0.00  0.00    +0.008 C 
ATOM      8  C   UNL     1      34.460 -15.711 -22.907  0.00  0.00    +0.045 C 
ATOM      9  C   UNL     1      34.127 -14.385 -22.627  0.00  0.00    +0.015 C 
ATOM     10  C   UNL     1      33.358 -14.099 -24.899  0.00  0.00    +0.001 C 
ATOM     11  C   UNL     1      34.242 -16.230 -24.182  0.00  0.00    +0.014 C 
ATOM     12  C   UNL     1      33.691 -15.425 -25.179  0.00  0.00    +0.001 C 
BRANCH   8  13
ATOM     13  N   UNL     1      35.017 -16.526 -21.899  0.00  0.00    -0.329 N 
ATOM     14  H   UNL     1      34.977 -16.214 -20.967  0.00  0.00    +0.147 HD
BRANCH  13  15
ATOM     15  C   UNL     1      35.639 -17.784 -22.173  0.00  0.00    +0.114 C 
BRANCH  15  16
ATOM     16  C   UNL     1      34.984 -18.880 -21.378  0.00  0.00    -0.003 C 
ATOM     17  C   UNL     1      33.593 -18.931 -21.275  0.00  0.00    -0.003 C 
ATOM     18  C   UNL     1      35.765 -19.846 -20.745  0.00  0.00    -0.003 C 
ATOM     19  C   UNL     1      32.986 -19.947 -20.538  0.00  0.00    -0.000 C 
ATOM     20  C   UNL     1      35.158 -20.862 -20.008  0.00  0.00    -0.000 C 
ATOM     21  C   UNL     1      33.768 -20.913 -19.905  0.00  0.00    -0.000 C 
ENDBRANCH  15  16
ENDBRANCH  13  15
ENDBRANCH   8  13
ENDBRANCH   3   7
BRANCH   6  23
ATOM     22  O   UNL     1      34.306  -7.825 -24.165  0.00  0.00    -0.244 OA
ATOM     23  C   UNL     1      33.243  -8.398 -23.864  0.00  0.00    +0.347 C 
BRANCH  23  24
ATOM     24  O   UNL     1      32.060  -7.705 -23.909  0.00  0.00    -0.477 OA
ATOM     25  H   UNL     1      31.898  -7.097 -24.603  0.00  0.00    +0.295 HD
ENDBRANCH  23  24
ENDBRANCH   6  23
BRANCH   5  26
ATOM     26  O   UNL     1      31.656  -9.480 -21.564  0.00  0.00    -0.463 OA
BRANCH  26  27
ATOM     27  C   UNL     1      32.333  -9.023 -20.391  0.00  0.00    +0.314 C 
BRANCH  27  29
ATOM     28  O   UNL     1      31.728  -6.780 -21.102  0.00  0.00    -0.246 OA
ATOM     29  C   UNL     1      32.384  -7.520 -20.386  0.00  0.00    +0.359 C 
BRANCH  29  30
ATOM     30  O   UNL     1      33.276  -7.086 -19.459  0.00  0.00    -0.478 OA
ATOM     31  H   UNL     1      33.706  -6.261 -19.574  0.00  0.00    +0.295 HD
ENDBRANCH  29  30
ENDBRANCH  27  29
ENDBRANCH  26  27
ENDBRANCH   5  26
TORSDOF 10
ENDMDL
MODEL 3
REMARK VINA RESULT:     -10.2     10.250     14.208
REMARK  Name = 17758920
REMARK  10 active torsions:
REMARK  status: ('A' for Active; 'I' for Inactive)
REMARK    1  A    between atoms: C_3  and  C_7
REMARK    2  A    between atoms: C_5  and  O_26
REMARK    3  A    between atoms: C_6  and  C_23
REMARK    4  A    between atoms: C_8  and  N_13
REMARK    5  A    between atoms: N_13  and  C_15
REMARK    6  A    between atoms: C_15  and  C_16
REMARK    7  A    between atoms: C_23  and  O_24
REMARK    8  A    between atoms: O_26  and  C_27
REMARK    9  A    between atoms: C_27  and  C_29
REMARK   10  A    between atoms: C_29  and  O_30
REMARK                            x       y       z     vdW  Elec       q    Type
REMARK                         _______ _______ _______ _____ _____    ______ ____
ROOT
ATOM      1 BR   UNL     1      34.439 -11.118 -25.288  0.00  0.00    -0.045 Br
ATOM      2  S   UNL     1      32.121 -13.022 -22.047  0.00  0.00    -0.077 S 
ATOM      3  C   UNL     1      33.105 -12.944 -23.447  0.00  0.00    +0.039 A 
ATOM      4  C   UNL     1      33.388 -11.645 -23.809  0.00  0.00    +0.075 A 
ATOM      5  C   UNL     1      32.788 -10.701 -22.926  0.00  0.00    +0.158 A 
ATOM      6  C   UNL     1      32.071 -11.314 -21.922  0.00  0.00    +0.139 A 
ENDROOT
BRANCH   3   7
ATOM      7  C   UNL     1      33.511 -14.185 -24.061  0.00  0.00    +0.008 C 
ATOM      8  C   UNL     1      34.684 -16.294 -23.943  0.00  0.00    +0.045 C 
ATOM      9  C   UNL     1      34.294 -15.093 -23.349  0.00  0.00    +0.015 C 
ATOM     10  C   UNL     1      33.116 -14.477 -25.366  0.00  0.00    +0.001 C 
ATOM     11  C   UNL     1      34.290 -16.586 -25.248  0.00  0.00    +0.014 C 
ATOM     12  C   UNL     1      33.506 -15.678 -25.961  0.00  0.00    +0.001 C 
BRANCH   8  13
ATOM     13  N   UNL     1      35.476 -17.212 -23.223  0.00  0.00    -0.329 N 
ATOM     14  H   UNL     1      35.979 -17.893 -23.725  0.00  0.00    +0.147 HD
BRANCH  13  15
ATOM     15  C   UNL     1      35.580 -17.197 -21.797  0.00  0.00    +0.114 C 
BRANCH  15  16
ATOM     16  C   UNL     1      35.139 -18.515 -21.222  0.00  0.00    -0.003 C 
ATOM     17  C   UNL     1      36.088 -19.434 -20.774  0.00  0.00    -0.003 C 
ATOM     18  C   UNL     1      33.780 -18.819 -21.136  0.00  0.00    -0.003 C 
ATOM     19  C   UNL     1      35.679 -20.656 -20.242  0.00  0.00    -0.000 C 
ATOM     20  C   UNL     1      33.370 -20.041 -20.603  0.00  0.00    -0.000 C 
ATOM     21  C   UNL     1      34.320 -20.959 -20.156  0.00  0.00    -0.000 C 
ENDBRANCH  15  16
ENDBRANCH  13  15
ENDBRANCH   8  13
ENDBRANCH   3   7
BRANCH   6  23
ATOM     22  O   UNL     1      30.230 -11.093 -20.404  0.00  0.00    -0.244 OA
ATOM     23  C   UNL     1      31.331 -10.725 -20.852  0.00  0.00    +0.347 C 
BRANCH  23  24
ATOM     24  O   UNL     1      31.962  -9.639 -20.299  0.00  0.00    -0.477 OA
ATOM     25  H   UNL     1      31.725  -9.345 -19.442  0.00  0.00    +0.295 HD
ENDBRANCH  23  24
ENDBRANCH   6  23
BRANCH   5  26
ATOM     26  O   UNL     1      32.886  -9.361 -23.020  0.00  0.00    -0.463 OA
BRANCH  26  27
ATOM     27  C   UNL     1      31.861  -8.687 -23.756  0.00  0.00    +0.314 C 
BRANCH  27  29
ATOM     28  O   UNL     1      31.581  -7.187 -21.865  0.00  0.00    -0.246 OA
ATOM     29  C   UNL     1      31.503  -7.400 -23.065  0.00  0.00    +0.359 C 
BRANCH  29  30
ATOM     30  O   UNL     1      31.072  -6.487 -23.973  0.00  0.00    -0.478 OA
ATOM     31  H   UNL     1      30.911  -5.604 -23.707  0.00  0.00    +0.295 HD
ENDBRANCH  29  30
ENDBRANCH  27  29
ENDBRANCH  26  27
ENDBRANCH   5  26
TORSDOF 10
ENDMDL
MODEL 4
REMARK VINA RESULT:     -10.2      7.466     11.019
REMARK  Name = 17758920
REMARK  10 active torsions:
REMARK  status: ('A' for Active; 'I' for Inactive)
REMARK    1  A    between atoms: C_3  and  C_7
REMARK    2  A    between atoms: C_5  and  O_26
REMARK    3  A    between atoms: C_6  and  C_23
REMARK    4  A    between atoms: C_8  and  N_13
REMARK    5  A    between atoms: N_13  and  C_15
REMARK    6  A    between atoms: C_15  and  C_16
REMARK    7  A    between atoms: C_23  and  O_24
REMARK    8  A    between atoms: O_26  and  C_27
REMARK    9  A    between atoms: C_27  and  C_29
REMARK   10  A    between atoms: C_29  and  O_30
REMARK                            x       y       z     vdW  Elec       q    Type
REMARK                         _______ _______ _______ _____ _____    ______ ____
ROOT
ATOM      1 BR   UNL     1      35.321 -19.186 -24.433  0.00  0.00    -0.045 Br
ATOM      2  S   UNL     1      34.388 -16.551 -21.014  0.00  0.00    -0.077 S 
ATOM      3  C   UNL     1      34.822 -18.001 -21.815  0.00  0.00    +0.039 A 
ATOM      4  C   UNL     1      34.881 -17.840 -23.182  0.00  0.00    +0.075 A 
ATOM      5  C   UNL     1      34.564 -16.508 -23.577  0.00  0.00    +0.158 A 
ATOM      6  C   UNL     1      34.276 -15.702 -22.498  0.00  0.00    +0.139 A 
ENDROOT
BRANCH   3   7
ATOM      7  C   UNL     1      35.069 -19.173 -21.011  0.00  0.00    +0.008 C 
ATOM      8  C   UNL     1      34.241 -21.090 -19.796  0.00  0.00    +0.045 C 
ATOM      9  C   UNL     1      34.001 -19.956 -20.572  0.00  0.00    +0.015 C 
ATOM     10  C   UNL     1      36.376 -19.524 -20.674  0.00  0.00    +0.001 C 
ATOM     11  C   UNL     1      35.547 -21.441 -19.459  0.00  0.00    +0.014 C 
ATOM     12  C   UNL     1      36.615 -20.659 -19.897  0.00  0.00    +0.001 C 
BRANCH   8  13
ATOM     13  N   UNL     1      33.161 -21.882 -19.352  0.00  0.00    -0.329 N 
ATOM     14  H   UNL     1      32.251 -21.516 -19.420  0.00  0.00    +0.147 HD
BRANCH  13  15
ATOM     15  C   UNL     1      33.332 -23.193 -18.806  0.00  0.00    +0.114 C 
BRANCH  15  16
ATOM     16  C   UNL     1      33.086 -23.182 -17.323  0.00  0.00    -0.003 C 
ATOM     17  C   UNL     1      34.161 -23.261 -16.437  0.00  0.00    -0.003 C 
ATOM     18  C   UNL     1      31.783 -23.094 -16.832  0.00  0.00    -0.003 C 
ATOM     19  C   UNL     1      33.932 -23.251 -15.062  0.00  0.00    -0.000 C 
ATOM     20  C   UNL     1      31.555 -23.083 -15.456  0.00  0.00    -0.000 C 
ATOM     21  C   UNL     1      32.630 -23.162 -14.571  0.00  0.00    -0.000 C 
ENDBRANCH  15  16
ENDBRANCH  13  15
ENDBRANCH   8  13
ENDBRANCH   3   7
BRANCH   6  23
ATOM     22  O   UNL     1      33.119 -13.763 -21.696  0.00  0.00    -0.244 OA
ATOM     23  C   UNL     1      33.916 -14.320 -22.473  0.00  0.00    +0.347 C 
BRANCH  23  24
ATOM     24  O   UNL     1      34.556 -13.582 -23.437  0.00  0.00    -0.477 OA
ATOM     25  H   UNL     1      35.421 -13.817 -23.710  0.00  0.00    +0.295 HD
ENDBRANCH  23  24
ENDBRANCH   6  23
BRANCH   5  26
ATOM     26  O   UNL     1      34.538 -16.046 -24.842  0.00  0.00    -0.463 OA
BRANCH  26  27
ATOM     27  C   UNL     1      33.291 -16.129 -25.537  0.00  0.00    +0.314 C 
BRANCH  27  29
ATOM     28  O   UNL     1      33.497 -14.611 -27.423  0.00  0.00    -0.246 OA
ATOM     29  C   UNL     1      33.055 -14.862 -26.312  0.00  0.00    +0.359 C 
BRANCH  29  30
ATOM     30  O   UNL     1      32.270 -14.016 -25.598  0.00  0.00    -0.478 OA
ATOM     31  H   UNL     1      31.390 -14.257 -25.389  0.00  0.00    +0.295 HD
ENDBRANCH  29  30
ENDBRANCH  27  29
ENDBRANCH  26  27
ENDBRANCH   5  26
TORSDOF 10
ENDMDL
MODEL 5
REMARK VINA RESULT:     -10.1      9.143     12.961
REMARK  Name = 17758920
REMARK  10 active torsions:
REMARK  status: ('A' for Active; 'I' for Inactive)
REMARK    1  A    between atoms: C_3  and  C_7
REMARK    2  A    between atoms: C_5  and  O_26
REMARK    3  A    between atoms: C_6  and  C_23
REMARK    4  A    between atoms: C_8  and  N_13
REMARK    5  A    between atoms: N_13  and  C_15
REMARK    6  A    between atoms: C_15  and  C_16
REMARK    7  A    between atoms: C_23  and  O_24
REMARK    8  A    between atoms: O_26  and  C_27
REMARK    9  A    between atoms: C_27  and  C_29
REMARK   10  A    between atoms: C_29  and  O_30
REMARK                            x       y       z     vdW  Elec       q    Type
REMARK                         _______ _______ _______ _____ _____    ______ ____
ROOT
ATOM      1 BR   UNL     1      32.134 -15.457 -20.780  0.00  0.00    -0.045 Br
ATOM      2  S   UNL     1      33.470 -12.763 -24.014  0.00  0.00    -0.077 S 
ATOM      3  C   UNL     1      33.282 -14.241 -23.169  0.00  0.00    +0.039 A 
ATOM      4  C   UNL     1      32.566 -14.083 -22.003  0.00  0.00    +0.075 A 
ATOM      5  C   UNL     1      32.168 -12.730 -21.800  0.00  0.00    +0.158 A 
ATOM      6  C   UNL     1      32.593 -11.906 -22.818  0.00  0.00    +0.139 A 
ENDROOT
BRANCH   3   7
ATOM      7  C   UNL     1      33.863 -15.430 -23.744  0.00  0.00    +0.008 C 
ATOM      8  C   UNL     1      35.227 -17.411 -23.522  0.00  0.00    +0.045 C 
ATOM      9  C   UNL     1      34.667 -16.261 -22.965  0.00  0.00    +0.015 C 
ATOM     10  C   UNL     1      33.617 -15.749 -25.080  0.00  0.00    +0.001 C 
ATOM     11  C   UNL     1      34.982 -17.730 -24.857  0.00  0.00    +0.014 C 
ATOM     12  C   UNL     1      34.177 -16.899 -25.637  0.00  0.00    +0.001 C 
BRANCH   8  13
ATOM     13  N   UNL     1      36.041 -18.252 -22.734  0.00  0.00    -0.329 N 
ATOM     14  H   UNL     1      36.654 -18.872 -23.188  0.00  0.00    +0.147 HD
BRANCH  13  15
ATOM     15  C   UNL     1      36.012 -18.242 -21.304  0.00  0.00    +0.114 C 
BRANCH  15  16
ATOM     16  C   UNL     1      35.125 -19.340 -20.787  0.00  0.00    -0.003 C 
ATOM     17  C   UNL     1      33.739 -19.232 -20.905  0.00  0.00    -0.003 C 
ATOM     18  C   UNL     1      35.687 -20.469 -20.190  0.00  0.00    -0.003 C 
ATOM     19  C   UNL     1      32.916 -20.250 -20.426  0.00  0.00    -0.000 C 
ATOM     20  C   UNL     1      34.864 -21.488 -19.711  0.00  0.00    -0.000 C 
ATOM     21  C   UNL     1      33.478 -21.379 -19.829  0.00  0.00    -0.000 C 
ENDBRANCH  15  16
ENDBRANCH  13  15
ENDBRANCH   8  13
ENDBRANCH   3   7
BRANCH   6  23
ATOM     22  O   UNL     1      33.232  -9.667 -23.386  0.00  0.00    -0.244 OA
ATOM     23  C   UNL     1      32.400 -10.501 -22.983  0.00  0.00    +0.347 C 
BRANCH  23  24
ATOM     24  O   UNL     1      31.136 -10.090 -22.643  0.00  0.00    -0.477 OA
ATOM     25  H   UNL     1      30.881 -10.052 -21.742  0.00  0.00    +0.295 HD
ENDBRANCH  23  24
ENDBRANCH   6  23
BRANCH   5  26
ATOM     26  O   UNL     1      31.458 -12.266 -20.753  0.00  0.00    -0.463 OA
BRANCH  26  27
ATOM     27  C   UNL     1      32.199 -11.803 -19.621  0.00  0.00    +0.314 C 
BRANCH  27  29
ATOM     28  O   UNL     1      32.486  -9.448 -19.094  0.00  0.00    -0.246 OA
ATOM     29  C   UNL     1      31.754 -10.413 -19.258  0.00  0.00    +0.359 C 
BRANCH  29  30
ATOM     30  O   UNL     1      30.404 -10.372 -19.132  0.00  0.00    -0.478 OA
ATOM     31  H   UNL     1      29.859 -10.528 -19.877  0.00  0.00    +0.295 HD
ENDBRANCH  29  30
ENDBRANCH  27  29
ENDBRANCH  26  27
ENDBRANCH   5  26
TORSDOF 10
ENDMDL
MODEL 6
REMARK VINA RESULT:     -10.0      5.377      8.193
REMARK  Name = 17758920
REMARK  10 active torsions:
REMARK  status: ('A' for Active; 'I' for Inactive)
REMARK    1  A    between atoms: C_3  and  C_7
REMARK    2  A    between atoms: C_5  and  O_26
REMARK    3  A    between atoms: C_6  and  C_23
REMARK    4  A    between atoms: C_8  and  N_13
REMARK    5  A    between atoms: N_13  and  C_15
REMARK    6  A    between atoms: C_15  and  C_16
REMARK    7  A    between atoms: C_23  and  O_24
REMARK    8  A    between atoms: O_26  and  C_27
REMARK    9  A    between atoms: C_27  and  C_29
REMARK   10  A    between atoms: C_29  and  O_30
REMARK                            x       y       z     vdW  Elec       q    Type
REMARK                         _______ _______ _______ _____ _____    ______ ____
ROOT
ATOM      1 BR   UNL     1      37.511 -19.467 -20.913  0.00  0.00    -0.045 Br
ATOM      2  S   UNL     1      33.161 -20.170 -20.629  0.00  0.00    -0.077 S 
ATOM      3  C   UNL     1      34.605 -19.402 -21.139  0.00  0.00    +0.039 A 
ATOM      4  C   UNL     1      35.725 -20.000 -20.606  0.00  0.00    +0.075 A 
ATOM      5  C   UNL     1      35.394 -21.104 -19.767  0.00  0.00    +0.158 A 
ATOM      6  C   UNL     1      34.034 -21.307 -19.691  0.00  0.00    +0.139 A 
ENDROOT
BRANCH   3   7
ATOM      7  C   UNL     1      34.494 -18.271 -22.027  0.00  0.00    +0.008 C 
ATOM      8  C   UNL     1      34.045 -15.924 -22.382  0.00  0.00    +0.045 C 
ATOM      9  C   UNL     1      34.150 -17.017 -21.522  0.00  0.00    +0.015 C 
ATOM     10  C   UNL     1      34.734 -18.431 -23.392  0.00  0.00    +0.001 C 
ATOM     11  C   UNL     1      34.285 -16.084 -23.746  0.00  0.00    +0.014 C 
ATOM     12  C   UNL     1      34.629 -17.338 -24.252  0.00  0.00    +0.001 C 
BRANCH   8  13
ATOM     13  N   UNL     1      33.697 -14.656 -21.872  0.00  0.00    -0.329 N 
ATOM     14  H   UNL     1      34.376 -14.147 -21.374  0.00  0.00    +0.147 HD
BRANCH  13  15
ATOM     15  C   UNL     1      32.400 -14.078 -22.045  0.00  0.00    +0.114 C 
BRANCH  15  16
ATOM     16  C   UNL     1      32.516 -12.660 -22.531  0.00  0.00    -0.003 C 
ATOM     17  C   UNL     1      33.436 -12.337 -23.530  0.00  0.00    -0.003 C 
ATOM     18  C   UNL     1      31.704 -11.666 -21.984  0.00  0.00    -0.003 C 
ATOM     19  C   UNL     1      33.542 -11.023 -23.981  0.00  0.00    -0.000 C 
ATOM     20  C   UNL     1      31.811 -10.350 -22.436  0.00  0.00    -0.000 C 
ATOM     21  C   UNL     1      32.731 -10.029 -23.434  0.00  0.00    -0.000 C 
ENDBRANCH  15  16
ENDBRANCH  13  15
ENDBRANCH   8  13
ENDBRANCH   3   7
BRANCH   6  23
ATOM     22  O   UNL     1      32.273 -22.134 -18.292  0.00  0.00    -0.244 OA
ATOM     23  C   UNL     1      33.308 -22.298 -18.963  0.00  0.00    +0.347 C 
BRANCH  23  24
ATOM     24  O   UNL     1      33.866 -23.548 -19.057  0.00  0.00    -0.477 OA
ATOM     25  H   UNL     1      34.728 -23.703 -18.722  0.00  0.00    +0.295 HD
ENDBRANCH  23  24
ENDBRANCH   6  23
BRANCH   5  26
ATOM     26  O   UNL     1      36.272 -21.884 -19.108  0.00  0.00    -0.463 OA
BRANCH  26  27
ATOM     27  C   UNL     1      36.732 -21.414 -17.838  0.00  0.00    +0.314 C 
BRANCH  27  29
ATOM     28  O   UNL     1      35.534 -23.035 -16.481  0.00  0.00    -0.246 OA
ATOM     29  C   UNL     1      36.583 -22.500 -16.809  0.00  0.00    +0.359 C 
BRANCH  29  30
ATOM     30  O   UNL     1      37.793 -22.814 -16.282  0.00  0.00    -0.478 OA
ATOM     31  H   UNL     1      37.868 -23.020 -15.372  0.00  0.00    +0.295 HD
ENDBRANCH  29  30
ENDBRANCH  27  29
ENDBRANCH  26  27
ENDBRANCH   5  26
TORSDOF 10
ENDMDL
MODEL 7
REMARK VINA RESULT:     -10.0      7.233     10.821
REMARK  Name = 17758920
REMARK  10 active torsions:
REMARK  status: ('A' for Active; 'I' for Inactive)
REMARK    1  A    between atoms: C_3  and  C_7
REMARK    2  A    between atoms: C_5  and  O_26
REMARK    3  A    between atoms: C_6  and  C_23
REMARK    4  A    between atoms: C_8  and  N_13
REMARK    5  A    between atoms: N_13  and  C_15
REMARK    6  A    between atoms: C_15  and  C_16
REMARK    7  A    between atoms: C_23  and  O_24
REMARK    8  A    between atoms: O_26  and  C_27
REMARK    9  A    between atoms: C_27  and  C_29
REMARK   10  A    between atoms: C_29  and  O_30
REMARK                            x       y       z     vdW  Elec       q    Type
REMARK                         _______ _______ _______ _____ _____    ______ ____
ROOT
ATOM      1 BR   UNL     1      34.997 -19.406 -24.219  0.00  0.00    -0.045 Br
ATOM      2  S   UNL     1      33.921 -16.779 -20.836  0.00  0.00    -0.077 S 
ATOM      3  C   UNL     1      34.258 -18.251 -21.645  0.00  0.00    +0.039 A 
ATOM      4  C   UNL     1      34.564 -18.052 -22.973  0.00  0.00    +0.075 A 
ATOM      5  C   UNL     1      34.522 -16.674 -23.332  0.00  0.00    +0.158 A 
ATOM      6  C   UNL     1      34.185 -15.871 -22.265  0.00  0.00    +0.139 A 
ENDROOT
BRANCH   3   7
ATOM      7  C   UNL     1      34.189 -19.474 -20.884  0.00  0.00    +0.008 C 
ATOM      8  C   UNL     1      35.270 -21.177 -19.554  0.00  0.00    +0.045 C 
ATOM      9  C   UNL     1      35.339 -19.994 -20.291  0.00  0.00    +0.015 C 
ATOM     10  C   UNL     1      32.969 -20.136 -20.740  0.00  0.00    +0.001 C 
ATOM     11  C   UNL     1      34.052 -21.839 -19.410  0.00  0.00    +0.014 C 
ATOM     12  C   UNL     1      32.901 -21.319 -20.002  0.00  0.00    +0.001 C 
BRANCH   8  13
ATOM     13  N   UNL     1      36.434 -21.703 -18.955  0.00  0.00    -0.329 N 
ATOM     14  H   UNL     1      36.939 -22.396 -19.437  0.00  0.00    +0.147 HD
BRANCH  13  15
ATOM     15  C   UNL     1      36.911 -21.274 -17.677  0.00  0.00    +0.114 C 
BRANCH  15  16
ATOM     16  C   UNL     1      36.719 -22.357 -16.652  0.00  0.00    -0.003 C 
ATOM     17  C   UNL     1      37.826 -22.917 -16.013  0.00  0.00    -0.003 C 
ATOM     18  C   UNL     1      35.435 -22.802 -16.339  0.00  0.00    -0.003 C 
ATOM     19  C   UNL     1      37.648 -23.921 -15.062  0.00  0.00    -0.000 C 
ATOM     20  C   UNL     1      35.257 -23.807 -15.387  0.00  0.00    -0.000 C 
ATOM     21  C   UNL     1      36.364 -24.366 -14.749  0.00  0.00    -0.000 C 
ENDBRANCH  15  16
ENDBRANCH  13  15
ENDBRANCH   8  13
ENDBRANCH   3   7
BRANCH   6  23
ATOM     22  O   UNL     1      33.320 -13.796 -21.436  0.00  0.00    -0.244 OA
ATOM     23  C   UNL     1      34.037 -14.452 -22.213  0.00  0.00    +0.347 C 
BRANCH  23  24
ATOM     24  O   UNL     1      34.799 -13.800 -23.149  0.00  0.00    -0.477 OA
ATOM     25  H   UNL     1      35.394 -14.283 -23.689  0.00  0.00    +0.295 HD
ENDBRANCH  23  24
ENDBRANCH   6  23
BRANCH   5  26
ATOM     26  O   UNL     1      34.775 -16.169 -24.555  0.00  0.00    -0.463 OA
BRANCH  26  27
ATOM     27  C   UNL     1      33.736 -16.285 -25.531  0.00  0.00    +0.314 C 
BRANCH  27  29
ATOM     28  O   UNL     1      32.673 -14.118 -25.258  0.00  0.00    -0.246 OA
ATOM     29  C   UNL     1      33.281 -14.916 -25.954  0.00  0.00    +0.359 C 
BRANCH  29  30
ATOM     30  O   UNL     1      33.644 -14.679 -27.241  0.00  0.00    -0.478 OA
ATOM     31  H   UNL     1      33.526 -15.343 -27.890  0.00  0.00    +0.295 HD
ENDBRANCH  29  30
ENDBRANCH  27  29
ENDBRANCH  26  27
ENDBRANCH   5  26
TORSDOF 10
ENDMDL
MODEL 8
REMARK VINA RESULT:      -9.9      4.432      6.379
REMARK  Name = 17758920
REMARK  10 active torsions:
REMARK  status: ('A' for Active; 'I' for Inactive)
REMARK    1  A    between atoms: C_3  and  C_7
REMARK    2  A    between atoms: C_5  and  O_26
REMARK    3  A    between atoms: C_6  and  C_23
REMARK    4  A    between atoms: C_8  and  N_13
REMARK    5  A    between atoms: N_13  and  C_15
REMARK    6  A    between atoms: C_15  and  C_16
REMARK    7  A    between atoms: C_23  and  O_24
REMARK    8  A    between atoms: O_26  and  C_27
REMARK    9  A    between atoms: C_27  and  C_29
REMARK   10  A    between atoms: C_29  and  O_30
REMARK                            x       y       z     vdW  Elec       q    Type
REMARK                         _______ _______ _______ _____ _____    ______ ____
ROOT
ATOM      1 BR   UNL     1      32.430 -22.425 -18.141  0.00  0.00    -0.045 Br
ATOM      2  S   UNL     1      33.153 -24.158 -14.145  0.00  0.00    -0.077 S 
ATOM      3  C   UNL     1      33.545 -23.400 -15.629  0.00  0.00    +0.039 A 
ATOM      4  C   UNL     1      32.437 -23.221 -16.427  0.00  0.00    +0.075 A 
ATOM      5  C   UNL     1      31.250 -23.714 -15.812  0.00  0.00    +0.158 A 
ATOM      6  C   UNL     1      31.495 -24.250 -14.568  0.00  0.00    +0.139 A 
ENDROOT
BRANCH   3   7
ATOM      7  C   UNL     1      34.924 -23.048 -15.867  0.00  0.00    +0.008 C 
ATOM      8  C   UNL     1      36.604 -21.966 -17.226  0.00  0.00    +0.045 C 
ATOM      9  C   UNL     1      35.270 -22.308 -16.997  0.00  0.00    +0.015 C 
ATOM     10  C   UNL     1      35.910 -23.447 -14.965  0.00  0.00    +0.001 C 
ATOM     11  C   UNL     1      37.589 -22.365 -16.325  0.00  0.00    +0.014 C 
ATOM     12  C   UNL     1      37.244 -23.105 -15.194  0.00  0.00    +0.001 C 
BRANCH   8  13
ATOM     13  N   UNL     1      36.954 -21.218 -18.369  0.00  0.00    -0.329 N 
ATOM     14  H   UNL     1      37.533 -20.431 -18.256  0.00  0.00    +0.147 HD
BRANCH  13  15
ATOM     15  C   UNL     1      36.504 -21.553 -19.685  0.00  0.00    +0.114 C 
BRANCH  15  16
ATOM     16  C   UNL     1      35.746 -20.404 -20.291  0.00  0.00    -0.003 C 
ATOM     17  C   UNL     1      34.355 -20.458 -20.388  0.00  0.00    -0.003 C 
ATOM     18  C   UNL     1      36.434 -19.283 -20.756  0.00  0.00    -0.003 C 
ATOM     19  C   UNL     1      33.654 -19.393 -20.950  0.00  0.00    -0.000 C 
ATOM     20  C   UNL     1      35.732 -18.217 -21.318  0.00  0.00    -0.000 C 
ATOM     21  C   UNL     1      34.341 -18.272 -21.415  0.00  0.00    -0.000 C 
ENDBRANCH  15  16
ENDBRANCH  13  15
ENDBRANCH   8  13
ENDBRANCH   3   7
BRANCH   6  23
ATOM     22  O   UNL     1      30.517 -24.641 -12.416  0.00  0.00    -0.244 OA
ATOM     23  C   UNL     1      30.582 -24.840 -13.642  0.00  0.00    +0.347 C 
BRANCH  23  24
ATOM     24  O   UNL     1      29.706 -25.713 -14.237  0.00  0.00    -0.477 OA
ATOM     25  H   UNL     1      29.479 -25.607 -15.140  0.00  0.00    +0.295 HD
ENDBRANCH  23  24
ENDBRANCH   6  23
BRANCH   5  26
ATOM     26  O   UNL     1      30.013 -23.679 -16.346  0.00  0.00    -0.463 OA
BRANCH  26  27
ATOM     27  C   UNL     1      29.224 -22.517 -16.077  0.00  0.00    +0.314 C 
BRANCH  27  29
ATOM     28  O   UNL     1      27.225 -21.592 -17.102  0.00  0.00    -0.246 OA
ATOM     29  C   UNL     1      27.995 -22.527 -16.944  0.00  0.00    +0.359 C 
BRANCH  29  30
ATOM     30  O   UNL     1      27.852 -23.738 -17.540  0.00  0.00    -0.478 OA
ATOM     31  H   UNL     1      27.007 -24.138 -17.590  0.00  0.00    +0.295 HD
ENDBRANCH  29  30
ENDBRANCH  27  29
ENDBRANCH  26  27
ENDBRANCH   5  26
TORSDOF 10
ENDMDL
MODEL 9
REMARK VINA RESULT:      -9.9      2.639      4.512
REMARK  Name = 17758920
REMARK  10 active torsions:
REMARK  status: ('A' for Active; 'I' for Inactive)
REMARK    1  A    between atoms: C_3  and  C_7
REMARK    2  A    between atoms: C_5  and  O_26
REMARK    3  A    between atoms: C_6  and  C_23
REMARK    4  A    between atoms: C_8  and  N_13
REMARK    5  A    between atoms: N_13  and  C_15
REMARK    6  A    between atoms: C_15  and  C_16
REMARK    7  A    between atoms: C_23  and  O_24
REMARK    8  A    between atoms: O_26  and  C_27
REMARK    9  A    between atoms: C_27  and  C_29
REMARK   10  A    between atoms: C_29  and  O_30
REMARK                            x       y       z     vdW  Elec       q    Type
REMARK                         _______ _______ _______ _____ _____    ______ ____
ROOT
ATOM      1 BR   UNL     1      32.677 -23.588 -16.772  0.00  0.00    -0.045 Br
ATOM      2  S   UNL     1      36.830 -22.146 -17.188  0.00  0.00    -0.077 S 
ATOM      3  C   UNL     1      35.171 -22.310 -17.580  0.00  0.00    +0.039 A 
ATOM      4  C   UNL     1      34.511 -23.140 -16.700  0.00  0.00    +0.075 A 
ATOM      5  C   UNL     1      35.380 -23.649 -15.692  0.00  0.00    +0.158 A 
ATOM      6  C   UNL     1      36.669 -23.189 -15.838  0.00  0.00    +0.139 A 
ENDROOT
BRANCH   3   7
ATOM      7  C   UNL     1      34.671 -21.595 -18.729  0.00  0.00    +0.008 C 
ATOM      8  C   UNL     1      35.068 -20.208 -20.667  0.00  0.00    +0.045 C 
ATOM      9  C   UNL     1      35.552 -20.898 -19.555  0.00  0.00    +0.015 C 
ATOM     10  C   UNL     1      33.306 -21.603 -19.014  0.00  0.00    +0.001 C 
ATOM     11  C   UNL     1      33.704 -20.216 -20.952  0.00  0.00    +0.014 C 
ATOM     12  C   UNL     1      32.822 -20.913 -20.127  0.00  0.00    +0.001 C 
BRANCH   8  13
ATOM     13  N   UNL     1      35.960 -19.503 -21.502  0.00  0.00    -0.329 N 
ATOM     14  H   UNL     1      36.586 -20.016 -22.061  0.00  0.00    +0.147 HD
BRANCH  13  15
ATOM     15  C   UNL     1      35.993 -18.074 -21.572  0.00  0.00    +0.114 C 
BRANCH  15  16
ATOM     16  C   UNL     1      35.354 -17.594 -22.845  0.00  0.00    -0.003 C 
ATOM     17  C   UNL     1      35.100 -18.494 -23.882  0.00  0.00    -0.003 C 
ATOM     18  C   UNL     1      35.013 -16.249 -22.992  0.00  0.00    -0.003 C 
ATOM     19  C   UNL     1      34.507 -18.048 -25.062  0.00  0.00    -0.000 C 
ATOM     20  C   UNL     1      34.420 -15.804 -24.173  0.00  0.00    -0.000 C 
ATOM     21  C   UNL     1      34.167 -16.703 -25.208  0.00  0.00    -0.000 C 
ENDBRANCH  15  16
ENDBRANCH  13  15
ENDBRANCH   8  13
ENDBRANCH   3   7
BRANCH   6  23
ATOM     22  O   UNL     1      37.931 -23.352 -13.808  0.00  0.00    -0.244 OA
ATOM     23  C   UNL     1      37.823 -23.463 -15.042  0.00  0.00    +0.347 C 
BRANCH  23  24
ATOM     24  O   UNL     1      38.894 -23.895 -15.783  0.00  0.00    -0.477 OA
ATOM     25  H   UNL     1      38.760 -24.469 -16.512  0.00  0.00    +0.295 HD
ENDBRANCH  23  24
ENDBRANCH   6  23
BRANCH   5  26
ATOM     26  O   UNL     1      35.026 -24.482 -14.694  0.00  0.00    -0.463 OA
BRANCH  26  27
ATOM     27  C   UNL     1      34.536 -23.882 -13.492  0.00  0.00    +0.314 C 
BRANCH  27  29
ATOM     28  O   UNL     1      34.981 -24.241 -11.131  0.00  0.00    -0.246 OA
ATOM     29  C   UNL     1      35.175 -24.538 -12.300  0.00  0.00    +0.359 C 
BRANCH  29  30
ATOM     30  O   UNL     1      36.016 -25.524 -12.703  0.00  0.00    -0.478 OA
ATOM     31  H   UNL     1      36.925 -25.339 -12.836  0.00  0.00    +0.295 HD
ENDBRANCH  29  30
ENDBRANCH  27  29
ENDBRANCH  26  27
ENDBRANCH   5  26
TORSDOF 10
ENDMDL
