MODEL 1
REMARK VINA RESULT:     -11.0      0.000      0.000
REMARK  Name = 5328969
REMARK  5 active torsions:
REMARK  status: ('A' for Active; 'I' for Inactive)
REMARK    1  A    between atoms: N_1  and  C_14
REMARK    2  A    between atoms: C_7  and  N_21
REMARK    3  A    between atoms: C_22  and  C_25
REMARK    4  A    between atoms: C_24  and  C_26
REMARK    5  A    between atoms: C_26  and  N_27
REMARK                            x       y       z     vdW  Elec       q    Type
REMARK                         _______ _______ _______ _____ _____    ______ ____
ROOT
ATOM      1  N   UNL     1      32.751 -23.141 -15.016  0.00  0.00    -0.301 N 
ATOM      2  N   UNL     1      36.194 -24.424 -13.110  0.00  0.00    -0.248 NA
ATOM      3  N   UNL     1      33.793 -24.262 -13.229  0.00  0.00    -0.233 NA
ATOM      4  C   UNL     1      35.173 -23.273 -14.950  0.00  0.00    +0.117 C 
ATOM      5  C   UNL     1      36.305 -23.734 -14.260  0.00  0.00    +0.067 C 
ATOM      6  C   UNL     1      33.940 -23.573 -14.377  0.00  0.00    +0.115 C 
ATOM      7  C   UNL     1      36.563 -22.285 -16.670  0.00  0.00    +0.047 C 
ATOM      8  C   UNL     1      35.301 -22.552 -16.150  0.00  0.00    +0.001 C 
ATOM      9  C   UNL     1      37.557 -23.452 -14.802  0.00  0.00    +0.016 C 
ATOM     10  C   UNL     1      37.693 -22.736 -15.995  0.00  0.00    +0.016 C 
ATOM     11  C   UNL     1      34.944 -24.650 -12.658  0.00  0.00    +0.251 C 
ATOM     12  H   UNL     1      32.857 -22.308 -15.531  0.00  0.00    +0.153 HD
ENDROOT
BRANCH   1  14
ATOM     13 BR   UNL     1      27.723 -22.486 -16.490  0.00  0.00    -0.049 Br
ATOM     14  C   UNL     1      31.453 -23.671 -15.059  0.00  0.00    +0.050 C 
ATOM     15  C   UNL     1      30.413 -22.945 -15.649  0.00  0.00    +0.021 C 
ATOM     16  C   UNL     1      31.189 -24.931 -14.512  0.00  0.00    +0.015 C 
ATOM     17  C   UNL     1      29.123 -23.473 -15.692  0.00  0.00    +0.036 C 
ATOM     18  C   UNL     1      29.899 -25.459 -14.556  0.00  0.00    +0.002 C 
ATOM     19  C   UNL     1      28.866 -24.730 -15.144  0.00  0.00    +0.007 C 
ENDBRANCH   1  14
BRANCH   7  21
ATOM     20  O   UNL     1      35.088 -22.552 -19.272  0.00  0.00    -0.270 OA
ATOM     21  N   UNL     1      36.697 -21.572 -17.861  0.00  0.00    -0.281 N 
ATOM     22  C   UNL     1      35.978 -21.738 -19.053  0.00  0.00    +0.249 C 
ATOM     23  H   UNL     1      37.381 -20.863 -17.865  0.00  0.00    +0.155 HD
BRANCH  22  25
ATOM     24  C   UNL     1      35.559 -19.889 -20.624  0.00  0.00    -0.044 C 
ATOM     25  C   UNL     1      36.421 -20.773 -20.104  0.00  0.00    +0.051 C 
BRANCH  24  26
ATOM     26  C   UNL     1      35.941 -18.889 -21.674  0.00  0.00    -0.050 C 
BRANCH  26  27
ATOM     27  N   UNL     1      34.851 -17.959 -21.950  0.00  0.00    +0.387 N 
ATOM     28  C   UNL     1      34.913 -17.491 -23.335  0.00  0.00    -0.100 C 
ATOM     29  C   UNL     1      34.896 -16.824 -21.027  0.00  0.00    -0.100 C 
ATOM     30  H   UNL     1      33.967 -18.451 -21.813  0.00  0.00    -0.079 HD
ENDBRANCH  26  27
ENDBRANCH  24  26
ENDBRANCH  22  25
ENDBRANCH   7  21
TORSDOF 5
ENDMDL
MODEL 2
REMARK VINA RESULT:     -10.9      6.427     10.738
REMARK  Name = 5328969
REMARK  5 active torsions:
REMARK  status: ('A' for Active; 'I' for Inactive)
REMARK    1  A    between atoms: N_1  and  C_14
REMARK    2  A    between atoms: C_7  and  N_21
REMARK    3  A    between atoms: C_22  and  C_25
REMARK    4  A    between atoms: C_24  and  C_26
REMARK    5  A    between atoms: C_26  and  N_27
REMARK                            x       y       z     vdW  Elec       q    Type
REMARK                         _______ _______ _______ _____ _____    ______ ____
ROOT
ATOM      1  N   UNL     1      35.216 -17.407 -21.956  0.00  0.00    -0.301 N 
ATOM      2  N   UNL     1      34.161 -16.698 -25.896  0.00  0.00    -0.248 NA
ATOM      3  N   UNL     1      35.231 -18.057 -24.218  0.00  0.00    -0.233 NA
ATOM      4  C   UNL     1      34.122 -15.999 -23.602  0.00  0.00    +0.117 C 
ATOM      5  C   UNL     1      33.793 -15.812 -24.954  0.00  0.00    +0.067 C 
ATOM      6  C   UNL     1      34.846 -17.150 -23.300  0.00  0.00    +0.115 C 
ATOM      7  C   UNL     1      33.009 -13.935 -22.994  0.00  0.00    +0.047 C 
ATOM      8  C   UNL     1      33.732 -15.066 -22.626  0.00  0.00    +0.001 C 
ATOM      9  C   UNL     1      33.069 -14.671 -25.295  0.00  0.00    +0.016 C 
ATOM     10  C   UNL     1      32.677 -13.738 -24.330  0.00  0.00    +0.016 C 
ATOM     11  C   UNL     1      34.860 -17.772 -25.476  0.00  0.00    +0.251 C 
ATOM     12  H   UNL     1      35.351 -16.593 -21.419  0.00  0.00    +0.153 HD
ENDROOT
BRANCH   1  14
ATOM     13 BR   UNL     1      33.066 -21.567 -19.517  0.00  0.00    -0.049 Br
ATOM     14  C   UNL     1      35.424 -18.598 -21.244  0.00  0.00    +0.050 C 
ATOM     15  C   UNL     1      34.335 -19.359 -20.809  0.00  0.00    +0.021 C 
ATOM     16  C   UNL     1      36.724 -19.031 -20.964  0.00  0.00    +0.015 C 
ATOM     17  C   UNL     1      34.543 -20.543 -20.102  0.00  0.00    +0.036 C 
ATOM     18  C   UNL     1      36.932 -20.216 -20.256  0.00  0.00    +0.002 C 
ATOM     19  C   UNL     1      35.842 -20.971 -19.824  0.00  0.00    +0.007 C 
ENDBRANCH   1  14
BRANCH   7  21
ATOM     20  O   UNL     1      32.273 -14.320 -20.109  0.00  0.00    -0.270 OA
ATOM     21  N   UNL     1      32.617 -13.006 -22.031  0.00  0.00    -0.281 N 
ATOM     22  C   UNL     1      32.284 -13.240 -20.689  0.00  0.00    +0.249 C 
ATOM     23  H   UNL     1      32.570 -12.069 -22.329  0.00  0.00    +0.155 HD
BRANCH  22  25
ATOM     24  C   UNL     1      31.949 -10.803 -20.627  0.00  0.00    -0.044 C 
ATOM     25  C   UNL     1      31.916 -11.977 -19.983  0.00  0.00    +0.051 C 
BRANCH  24  26
ATOM     26  C   UNL     1      31.584  -9.500 -19.979  0.00  0.00    -0.050 C 
BRANCH  26  27
ATOM     27  N   UNL     1      31.838  -8.371 -20.867  0.00  0.00    +0.387 N 
ATOM     28  C   UNL     1      32.394  -8.832 -22.141  0.00  0.00    -0.100 C 
ATOM     29  C   UNL     1      32.743  -7.411 -20.235  0.00  0.00    -0.100 C 
ATOM     30  H   UNL     1      30.950  -7.903 -21.053  0.00  0.00    -0.079 HD
ENDBRANCH  26  27
ENDBRANCH  24  26
ENDBRANCH  22  25
ENDBRANCH   7  21
TORSDOF 5
ENDMDL
MODEL 3
REMARK VINA RESULT:     -10.8      4.909     11.339
REMARK  Name = 5328969
REMARK  5 active torsions:
REMARK  status: ('A' for Active; 'I' for Inactive)
REMARK    1  A    between atoms: N_1  and  C_14
REMARK    2  A    between atoms: C_7  and  N_21
REMARK    3  A    between atoms: C_22  and  C_25
REMARK    4  A    between atoms: C_24  and  C_26
REMARK    5  A    between atoms: C_26  and  N_27
REMARK                            x       y       z     vdW  Elec       q    Type
REMARK                         _______ _______ _______ _____ _____    ______ ____
ROOT
ATOM      1  N   UNL     1      32.460 -14.129 -22.371  0.00  0.00    -0.301 N 
ATOM      2  N   UNL     1      33.746 -15.276 -26.135  0.00  0.00    -0.248 NA
ATOM      3  N   UNL     1      32.551 -13.760 -24.693  0.00  0.00    -0.233 NA
ATOM      4  C   UNL     1      33.679 -15.689 -23.773  0.00  0.00    +0.117 C 
ATOM      5  C   UNL     1      34.087 -16.029 -25.073  0.00  0.00    +0.067 C 
ATOM      6  C   UNL     1      32.909 -14.535 -23.653  0.00  0.00    +0.115 C 
ATOM      7  C   UNL     1      34.813 -17.625 -22.860  0.00  0.00    +0.047 C 
ATOM      8  C   UNL     1      34.041 -16.483 -22.671  0.00  0.00    +0.001 C 
ATOM      9  C   UNL     1      34.859 -17.177 -25.234  0.00  0.00    +0.016 C 
ATOM     10  C   UNL     1      35.223 -17.973 -24.143  0.00  0.00    +0.016 C 
ATOM     11  C   UNL     1      32.997 -14.183 -25.887  0.00  0.00    +0.251 C 
ATOM     12  H   UNL     1      32.318 -14.875 -21.745  0.00  0.00    +0.153 HD
ENDROOT
BRANCH   1  14
ATOM     13 BR   UNL     1      31.868  -8.947 -23.198  0.00  0.00    -0.049 Br
ATOM     14  C   UNL     1      32.182 -12.868 -21.822  0.00  0.00    +0.050 C 
ATOM     15  C   UNL     1      32.166 -11.732 -22.638  0.00  0.00    +0.021 C 
ATOM     16  C   UNL     1      31.917 -12.739 -20.455  0.00  0.00    +0.015 C 
ATOM     17  C   UNL     1      31.887 -10.479 -22.091  0.00  0.00    +0.036 C 
ATOM     18  C   UNL     1      31.638 -11.486 -19.909  0.00  0.00    +0.002 C 
ATOM     19  C   UNL     1      31.625 -10.356 -20.726  0.00  0.00    +0.007 C 
ENDBRANCH   1  14
BRANCH   7  21
ATOM     20  O   UNL     1      37.512 -18.609 -21.986  0.00  0.00    -0.270 OA
ATOM     21  N   UNL     1      35.177 -18.417 -21.771  0.00  0.00    -0.281 N 
ATOM     22  C   UNL     1      36.460 -18.849 -21.406  0.00  0.00    +0.249 C 
ATOM     23  H   UNL     1      34.441 -18.708 -21.184  0.00  0.00    +0.155 HD
BRANCH  22  25
ATOM     24  C   UNL     1      35.836 -20.885 -20.171  0.00  0.00    -0.044 C 
ATOM     25  C   UNL     1      36.430 -19.684 -20.168  0.00  0.00    +0.051 C 
BRANCH  24  26
ATOM     26  C   UNL     1      35.778 -21.776 -18.966  0.00  0.00    -0.050 C 
BRANCH  26  27
ATOM     27  N   UNL     1      34.496 -22.465 -18.870  0.00  0.00    +0.387 N 
ATOM     28  C   UNL     1      33.417 -21.619 -19.382  0.00  0.00    -0.100 C 
ATOM     29  C   UNL     1      34.224 -22.856 -17.486  0.00  0.00    -0.100 C 
ATOM     30  H   UNL     1      34.543 -23.310 -19.440  0.00  0.00    -0.079 HD
ENDBRANCH  26  27
ENDBRANCH  24  26
ENDBRANCH  22  25
ENDBRANCH   7  21
TORSDOF 5
ENDMDL
MODEL 4
REMARK VINA RESULT:     -10.7      6.236     10.617
REMARK  Name = 5328969
REMARK  5 active torsions:
REMARK  status: ('A' for Active; 'I' for Inactive)
REMARK    1  A    between atoms: N_1  and  C_14
REMARK    2  A    between atoms: C_7  and  N_21
REMARK    3  A    between atoms: C_22  and  C_25
REMARK    4  A    between atoms: C_24  and  C_26
REMARK    5  A    between atoms: C_26  and  N_27
REMARK                            x       y       z     vdW  Elec       q    Type
REMARK                         _______ _______ _______ _____ _____    ______ ____
ROOT
ATOM      1  N   UNL     1      34.408 -17.784 -21.772  0.00  0.00    -0.301 N 
ATOM      2  N   UNL     1      34.330 -16.922 -25.820  0.00  0.00    -0.248 NA
ATOM      3  N   UNL     1      34.792 -18.433 -24.000  0.00  0.00    -0.233 NA
ATOM      4  C   UNL     1      33.924 -16.220 -23.563  0.00  0.00    +0.117 C 
ATOM      5  C   UNL     1      33.919 -15.985 -24.947  0.00  0.00    +0.067 C 
ATOM      6  C   UNL     1      34.374 -17.473 -23.154  0.00  0.00    +0.115 C 
ATOM      7  C   UNL     1      33.054 -14.001 -23.134  0.00  0.00    +0.047 C 
ATOM      8  C   UNL     1      33.493 -15.233 -22.660  0.00  0.00    +0.001 C 
ATOM      9  C   UNL     1      33.475 -14.742 -25.394  0.00  0.00    +0.016 C 
ATOM     10  C   UNL     1      33.045 -13.755 -24.502  0.00  0.00    +0.016 C 
ATOM     11  C   UNL     1      34.744 -18.095 -25.299  0.00  0.00    +0.251 C 
ATOM     12  H   UNL     1      34.557 -17.002 -21.193  0.00  0.00    +0.153 HD
ENDROOT
BRANCH   1  14
ATOM     13 BR   UNL     1      36.769 -21.666 -19.082  0.00  0.00    -0.049 Br
ATOM     14  C   UNL     1      34.268 -18.991 -21.070  0.00  0.00    +0.050 C 
ATOM     15  C   UNL     1      35.390 -19.621 -20.520  0.00  0.00    +0.021 C 
ATOM     16  C   UNL     1      33.006 -19.572 -20.914  0.00  0.00    +0.015 C 
ATOM     17  C   UNL     1      35.250 -20.820 -19.821  0.00  0.00    +0.036 C 
ATOM     18  C   UNL     1      32.866 -20.771 -20.215  0.00  0.00    +0.002 C 
ATOM     19  C   UNL     1      33.988 -21.395 -19.670  0.00  0.00    +0.007 C 
ENDBRANCH   1  14
BRANCH   7  21
ATOM     20  O   UNL     1      32.308 -14.198 -20.232  0.00  0.00    -0.270 OA
ATOM     21  N   UNL     1      32.624 -13.017 -22.243  0.00  0.00    -0.281 N 
ATOM     22  C   UNL     1      32.287 -13.164 -20.890  0.00  0.00    +0.249 C 
ATOM     23  H   UNL     1      32.547 -12.107 -22.610  0.00  0.00    +0.155 HD
BRANCH  22  25
ATOM     24  C   UNL     1      32.018 -10.718 -20.957  0.00  0.00    -0.044 C 
ATOM     25  C   UNL     1      31.872 -11.866 -20.280  0.00  0.00    +0.051 C 
BRANCH  24  26
ATOM     26  C   UNL     1      31.613  -9.383 -20.406  0.00  0.00    -0.050 C 
BRANCH  26  27
ATOM     27  N   UNL     1      32.340  -8.295 -21.052  0.00  0.00    +0.387 N 
ATOM     28  C   UNL     1      32.389  -7.121 -20.179  0.00  0.00    -0.100 C 
ATOM     29  C   UNL     1      31.722  -7.952 -22.333  0.00  0.00    -0.100 C 
ATOM     30  H   UNL     1      33.295  -8.608 -21.227  0.00  0.00    -0.079 HD
ENDBRANCH  26  27
ENDBRANCH  24  26
ENDBRANCH  22  25
ENDBRANCH   7  21
TORSDOF 5
ENDMDL
MODEL 5
REMARK VINA RESULT:     -10.0     10.533     15.703
REMARK  Name = 5328969
REMARK  5 active torsions:
REMARK  status: ('A' for Active; 'I' for Inactive)
REMARK    1  A    between atoms: N_1  and  C_14
REMARK    2  A    between atoms: C_7  and  N_21
REMARK    3  A    between atoms: C_22  and  C_25
REMARK    4  A    between atoms: C_24  and  C_26
REMARK    5  A    between atoms: C_26  and  N_27
REMARK                            x       y       z     vdW  Elec       q    Type
REMARK                         _______ _______ _______ _____ _____    ______ ____
ROOT
ATOM      1  N   UNL     1      32.901  -7.734 -23.341  0.00  0.00    -0.301 N 
ATOM      2  N   UNL     1      31.692  -8.476 -19.452  0.00  0.00    -0.248 NA
ATOM      3  N   UNL     1      32.337  -6.945 -21.198  0.00  0.00    -0.233 NA
ATOM      4  C   UNL     1      32.258  -9.323 -21.624  0.00  0.00    +0.117 C 
ATOM      5  C   UNL     1      31.849  -9.513 -20.294  0.00  0.00    +0.067 C 
ATOM      6  C   UNL     1      32.486  -8.006 -22.013  0.00  0.00    +0.115 C 
ATOM      7  C   UNL     1      32.176 -11.708 -22.041  0.00  0.00    +0.047 C 
ATOM      8  C   UNL     1      32.420 -10.415 -22.494  0.00  0.00    +0.001 C 
ATOM      9  C   UNL     1      31.612 -10.818 -19.867  0.00  0.00    +0.016 C 
ATOM     10  C   UNL     1      31.771 -11.909 -20.726  0.00  0.00    +0.016 C 
ATOM     11  C   UNL     1      31.944  -7.249 -19.950  0.00  0.00    +0.251 C 
ATOM     12  H   UNL     1      33.428  -8.459 -23.748  0.00  0.00    +0.153 HD
ENDROOT
BRANCH   1  14
ATOM     13 BR   UNL     1      34.798  -4.726 -27.244  0.00  0.00    -0.049 Br
ATOM     14  C   UNL     1      32.703  -6.633 -24.188  0.00  0.00    +0.050 C 
ATOM     15  C   UNL     1      33.676  -6.285 -25.130  0.00  0.00    +0.021 C 
ATOM     16  C   UNL     1      31.531  -5.876 -24.096  0.00  0.00    +0.015 C 
ATOM     17  C   UNL     1      33.479  -5.191 -25.973  0.00  0.00    +0.036 C 
ATOM     18  C   UNL     1      31.334  -4.782 -24.938  0.00  0.00    +0.002 C 
ATOM     19  C   UNL     1      32.308  -4.439 -25.876  0.00  0.00    +0.007 C 
ENDBRANCH   1  14
BRANCH   7  21
ATOM     20  O   UNL     1      33.986 -12.067 -24.410  0.00  0.00    -0.270 OA
ATOM     21  N   UNL     1      32.333 -12.795 -22.900  0.00  0.00    -0.281 N 
ATOM     22  C   UNL     1      33.199 -12.912 -23.997  0.00  0.00    +0.249 C 
ATOM     23  H   UNL     1      31.767 -13.579 -22.713  0.00  0.00    +0.155 HD
BRANCH  22  25
ATOM     24  C   UNL     1      34.004 -15.185 -24.490  0.00  0.00    -0.044 C 
ATOM     25  C   UNL     1      33.068 -14.242 -24.664  0.00  0.00    +0.051 C 
BRANCH  24  26
ATOM     26  C   UNL     1      33.929 -16.542 -25.123  0.00  0.00    -0.050 C 
BRANCH  26  27
ATOM     27  N   UNL     1      34.959 -17.434 -24.602  0.00  0.00    +0.387 N 
ATOM     28  C   UNL     1      34.552 -18.833 -24.751  0.00  0.00    -0.100 C 
ATOM     29  C   UNL     1      35.239 -17.132 -23.198  0.00  0.00    -0.100 C 
ATOM     30  H   UNL     1      35.813 -17.287 -25.140  0.00  0.00    -0.079 HD
ENDBRANCH  26  27
ENDBRANCH  24  26
ENDBRANCH  22  25
ENDBRANCH   7  21
TORSDOF 5
ENDMDL
MODEL 6
REMARK VINA RESULT:      -9.9      3.130      5.368
REMARK  Name = 5328969
REMARK  5 active torsions:
REMARK  status: ('A' for Active; 'I' for Inactive)
REMARK    1  A    between atoms: N_1  and  C_14
REMARK    2  A    between atoms: C_7  and  N_21
REMARK    3  A    between atoms: C_22  and  C_25
REMARK    4  A    between atoms: C_24  and  C_26
REMARK    5  A    between atoms: C_26  and  N_27
REMARK                            x       y       z     vdW  Elec       q    Type
REMARK                         _______ _______ _______ _____ _____    ______ ____
ROOT
ATOM      1  N   UNL     1      34.659 -24.407 -14.483  0.00  0.00    -0.301 N 
ATOM      2  N   UNL     1      30.582 -24.315 -13.768  0.00  0.00    -0.248 NA
ATOM      3  N   UNL     1      32.820 -24.915 -13.105  0.00  0.00    -0.233 NA
ATOM      4  C   UNL     1      32.428 -23.778 -15.202  0.00  0.00    +0.117 C 
ATOM      5  C   UNL     1      31.056 -23.776 -14.905  0.00  0.00    +0.067 C 
ATOM      6  C   UNL     1      33.261 -24.366 -14.253  0.00  0.00    +0.115 C 
ATOM      7  C   UNL     1      32.026 -22.638 -17.301  0.00  0.00    +0.047 C 
ATOM      8  C   UNL     1      32.912 -23.211 -16.394  0.00  0.00    +0.001 C 
ATOM      9  C   UNL     1      30.191 -23.195 -15.831  0.00  0.00    +0.016 C 
ATOM     10  C   UNL     1      30.664 -22.630 -17.019  0.00  0.00    +0.016 C 
ATOM     11  C   UNL     1      31.491 -24.856 -12.930  0.00  0.00    +0.251 C 
ATOM     12  H   UNL     1      34.903 -24.447 -15.436  0.00  0.00    +0.153 HD
ENDROOT
BRANCH   1  14
ATOM     13 BR   UNL     1      39.762 -25.551 -13.759  0.00  0.00    -0.049 Br
ATOM     14  C   UNL     1      35.761 -24.398 -13.615  0.00  0.00    +0.050 C 
ATOM     15  C   UNL     1      36.998 -24.892 -14.041  0.00  0.00    +0.021 C 
ATOM     16  C   UNL     1      35.630 -23.894 -12.317  0.00  0.00    +0.015 C 
ATOM     17  C   UNL     1      38.094 -24.882 -13.177  0.00  0.00    +0.036 C 
ATOM     18  C   UNL     1      36.726 -23.884 -11.454  0.00  0.00    +0.002 C 
ATOM     19  C   UNL     1      37.957 -24.379 -11.883  0.00  0.00    +0.007 C 
ENDBRANCH   1  14
BRANCH   7  21
ATOM     20  O   UNL     1      34.779 -22.658 -18.500  0.00  0.00    -0.270 OA
ATOM     21  N   UNL     1      32.499 -22.072 -18.485  0.00  0.00    -0.281 N 
ATOM     22  C   UNL     1      33.802 -22.113 -19.001  0.00  0.00    +0.249 C 
ATOM     23  H   UNL     1      31.836 -21.585 -19.026  0.00  0.00    +0.155 HD
BRANCH  22  25
ATOM     24  C   UNL     1      33.676 -20.065 -20.361  0.00  0.00    -0.044 C 
ATOM     25  C   UNL     1      33.904 -21.384 -20.301  0.00  0.00    +0.051 C 
BRANCH  24  26
ATOM     26  C   UNL     1      33.770 -19.272 -21.631  0.00  0.00    -0.050 C 
BRANCH  26  27
ATOM     27  N   UNL     1      35.119 -19.305 -22.185  0.00  0.00    +0.387 N 
ATOM     28  C   UNL     1      36.027 -18.490 -21.376  0.00  0.00    -0.100 C 
ATOM     29  C   UNL     1      35.117 -18.840 -23.572  0.00  0.00    -0.100 C 
ATOM     30  H   UNL     1      35.449 -20.270 -22.168  0.00  0.00    -0.079 HD
ENDBRANCH  26  27
ENDBRANCH  24  26
ENDBRANCH  22  25
ENDBRANCH   7  21
TORSDOF 5
ENDMDL
MODEL 7
REMARK VINA RESULT:      -9.7      3.304      5.465
REMARK  Name = 5328969
REMARK  5 active torsions:
REMARK  status: ('A' for Active; 'I' for Inactive)
REMARK    1  A    between atoms: N_1  and  C_14
REMARK    2  A    between atoms: C_7  and  N_21
REMARK    3  A    between atoms: C_22  and  C_25
REMARK    4  A    between atoms: C_24  and  C_26
REMARK    5  A    between atoms: C_26  and  N_27
REMARK                            x       y       z     vdW  Elec       q    Type
REMARK                         _______ _______ _______ _____ _____    ______ ____
ROOT
ATOM      1  N   UNL     1      35.773 -24.291 -15.310  0.00  0.00    -0.301 N 
ATOM      2  N   UNL     1      31.663 -23.975 -14.921  0.00  0.00    -0.248 NA
ATOM      3  N   UNL     1      33.800 -24.739 -14.109  0.00  0.00    -0.233 NA
ATOM      4  C   UNL     1      33.650 -23.496 -16.177  0.00  0.00    +0.117 C 
ATOM      5  C   UNL     1      32.260 -23.421 -15.991  0.00  0.00    +0.067 C 
ATOM      6  C   UNL     1      34.365 -24.173 -15.192  0.00  0.00    +0.115 C 
ATOM      7  C   UNL     1      33.490 -22.250 -18.248  0.00  0.00    +0.047 C 
ATOM      8  C   UNL     1      34.263 -22.914 -17.300  0.00  0.00    +0.001 C 
ATOM      9  C   UNL     1      31.511 -22.751 -16.956  0.00  0.00    +0.016 C 
ATOM     10  C   UNL     1      32.113 -22.169 -18.076  0.00  0.00    +0.016 C 
ATOM     11  C   UNL     1      32.466 -24.604 -14.039  0.00  0.00    +0.251 C 
ATOM     12  H   UNL     1      36.092 -24.309 -16.241  0.00  0.00    +0.153 HD
ENDROOT
BRANCH   1  14
ATOM     13 BR   UNL     1      40.610 -26.052 -14.139  0.00  0.00    -0.049 Br
ATOM     14  C   UNL     1      36.798 -24.385 -14.357  0.00  0.00    +0.050 C 
ATOM     15  C   UNL     1      37.987 -25.054 -14.665  0.00  0.00    +0.021 C 
ATOM     16  C   UNL     1      36.638 -23.810 -13.093  0.00  0.00    +0.015 C 
ATOM     17  C   UNL     1      39.006 -25.147 -13.717  0.00  0.00    +0.036 C 
ATOM     18  C   UNL     1      37.657 -23.903 -12.145  0.00  0.00    +0.002 C 
ATOM     19  C   UNL     1      38.841 -24.572 -12.456  0.00  0.00    +0.007 C 
ENDBRANCH   1  14
BRANCH   7  21
ATOM     20  O   UNL     1      32.533 -20.041 -20.042  0.00  0.00    -0.270 OA
ATOM     21  N   UNL     1      34.092 -21.668 -19.363  0.00  0.00    -0.281 N 
ATOM     22  C   UNL     1      33.599 -20.633 -20.170  0.00  0.00    +0.249 C 
ATOM     23  H   UNL     1      34.973 -22.029 -19.616  0.00  0.00    +0.155 HD
BRANCH  22  25
ATOM     24  C   UNL     1      34.449 -19.123 -21.918  0.00  0.00    -0.044 C 
ATOM     25  C   UNL     1      34.548 -20.292 -21.272  0.00  0.00    +0.051 C 
BRANCH  24  26
ATOM     26  C   UNL     1      35.374 -18.716 -23.026  0.00  0.00    -0.050 C 
BRANCH  26  27
ATOM     27  N   UNL     1      35.488 -17.265 -23.124  0.00  0.00    +0.387 N 
ATOM     28  C   UNL     1      34.997 -16.627 -21.900  0.00  0.00    -0.100 C 
ATOM     29  C   UNL     1      34.752 -16.767 -24.287  0.00  0.00    -0.100 C 
ATOM     30  H   UNL     1      36.473 -17.027 -23.239  0.00  0.00    -0.079 HD
ENDBRANCH  26  27
ENDBRANCH  24  26
ENDBRANCH  22  25
ENDBRANCH   7  21
TORSDOF 5
ENDMDL
MODEL 8
REMARK VINA RESULT:      -9.6      4.161      9.146
REMARK  Name = 5328969
REMARK  5 active torsions:
REMARK  status: ('A' for Active; 'I' for Inactive)
REMARK    1  A    between atoms: N_1  and  C_14
REMARK    2  A    between atoms: C_7  and  N_21
REMARK    3  A    between atoms: C_22  and  C_25
REMARK    4  A    between atoms: C_24  and  C_26
REMARK    5  A    between atoms: C_26  and  N_27
REMARK                            x       y       z     vdW  Elec       q    Type
REMARK                         _______ _______ _______ _____ _____    ______ ____
ROOT
ATOM      1  N   UNL     1      33.526 -17.679 -21.358  0.00  0.00    -0.301 N 
ATOM      2  N   UNL     1      37.131 -19.714 -21.322  0.00  0.00    -0.248 NA
ATOM      3  N   UNL     1      35.789 -17.826 -21.986  0.00  0.00    -0.233 NA
ATOM      4  C   UNL     1      34.828 -19.603 -20.659  0.00  0.00    +0.117 C 
ATOM      5  C   UNL     1      36.076 -20.247 -20.680  0.00  0.00    +0.067 C 
ATOM      6  C   UNL     1      34.753 -18.388 -21.335  0.00  0.00    +0.115 C 
ATOM      7  C   UNL     1      33.875 -21.388 -19.328  0.00  0.00    +0.047 C 
ATOM      8  C   UNL     1      33.733 -20.170 -19.986  0.00  0.00    +0.001 C 
ATOM      9  C   UNL     1      36.190 -21.466 -20.015  0.00  0.00    +0.016 C 
ATOM     10  C   UNL     1      35.105 -22.037 -19.343  0.00  0.00    +0.016 C 
ATOM     11  C   UNL     1      36.930 -18.532 -21.939  0.00  0.00    +0.251 C 
ATOM     12  H   UNL     1      32.732 -18.258 -21.311  0.00  0.00    +0.153 HD
ENDROOT
BRANCH   1  14
ATOM     13 BR   UNL     1      33.412 -13.302 -24.310  0.00  0.00    -0.049 Br
ATOM     14  C   UNL     1      33.226 -16.310 -21.432  0.00  0.00    +0.050 C 
ATOM     15  C   UNL     1      33.432 -15.607 -22.623  0.00  0.00    +0.021 C 
ATOM     16  C   UNL     1      32.717 -15.640 -20.315  0.00  0.00    +0.015 C 
ATOM     17  C   UNL     1      33.131 -14.246 -22.697  0.00  0.00    +0.036 C 
ATOM     18  C   UNL     1      32.417 -14.279 -20.389  0.00  0.00    +0.002 C 
ATOM     19  C   UNL     1      32.625 -13.583 -21.579  0.00  0.00    +0.007 C 
ENDBRANCH   1  14
BRANCH   7  21
ATOM     20  O   UNL     1      33.794 -23.082 -16.851  0.00  0.00    -0.270 OA
ATOM     21  N   UNL     1      32.792 -21.956 -18.658  0.00  0.00    -0.281 N 
ATOM     22  C   UNL     1      32.810 -22.743 -17.497  0.00  0.00    +0.249 C 
ATOM     23  H   UNL     1      31.904 -21.782 -19.047  0.00  0.00    +0.155 HD
BRANCH  22  25
ATOM     24  C   UNL     1      30.998 -22.943 -15.844  0.00  0.00    -0.044 C 
ATOM     25  C   UNL     1      31.434 -23.160 -17.091  0.00  0.00    +0.051 C 
BRANCH  24  26
ATOM     26  C   UNL     1      29.626 -23.328 -15.375  0.00  0.00    -0.050 C 
BRANCH  26  27
ATOM     27  N   UNL     1      28.617 -23.063 -16.394  0.00  0.00    +0.387 N 
ATOM     28  C   UNL     1      27.481 -22.340 -15.817  0.00  0.00    -0.100 C 
ATOM     29  C   UNL     1      28.166 -24.312 -17.009  0.00  0.00    -0.100 C 
ATOM     30  H   UNL     1      29.038 -22.480 -17.118  0.00  0.00    -0.079 HD
ENDBRANCH  26  27
ENDBRANCH  24  26
ENDBRANCH  22  25
ENDBRANCH   7  21
TORSDOF 5
ENDMDL
MODEL 9
REMARK VINA RESULT:      -9.3     11.024     15.267
REMARK  Name = 5328969
REMARK  5 active torsions:
REMARK  status: ('A' for Active; 'I' for Inactive)
REMARK    1  A    between atoms: N_1  and  C_14
REMARK    2  A    between atoms: C_7  and  N_21
REMARK    3  A    between atoms: C_22  and  C_25
REMARK    4  A    between atoms: C_24  and  C_26
REMARK    5  A    between atoms: C_26  and  N_27
REMARK                            x       y       z     vdW  Elec       q    Type
REMARK                         _______ _______ _______ _____ _____    ______ ____
ROOT
ATOM      1  N   UNL     1      32.414 -11.885 -22.916  0.00  0.00    -0.301 N 
ATOM      2  N   UNL     1      31.580  -9.964 -19.345  0.00  0.00    -0.248 NA
ATOM      3  N   UNL     1      31.787 -11.980 -20.650  0.00  0.00    -0.233 NA
ATOM      4  C   UNL     1      32.222  -9.823 -21.652  0.00  0.00    +0.117 C 
ATOM      5  C   UNL     1      31.929  -9.227 -20.415  0.00  0.00    +0.067 C 
ATOM      6  C   UNL     1      32.132 -11.212 -21.701  0.00  0.00    +0.115 C 
ATOM      7  C   UNL     1      32.656  -7.658 -22.648  0.00  0.00    +0.047 C 
ATOM      8  C   UNL     1      32.585  -9.043 -22.764  0.00  0.00    +0.001 C 
ATOM      9  C   UNL     1      32.008  -7.839 -20.327  0.00  0.00    +0.016 C 
ATOM     10  C   UNL     1      32.368  -7.055 -21.428  0.00  0.00    +0.016 C 
ATOM     11  C   UNL     1      31.529 -11.300 -19.522  0.00  0.00    +0.251 C 
ATOM     12  H   UNL     1      32.206 -11.357 -23.720  0.00  0.00    +0.153 HD
ENDROOT
BRANCH   1  14
ATOM     13 BR   UNL     1      34.681 -16.272 -21.045  0.00  0.00    -0.049 Br
ATOM     14  C   UNL     1      32.933 -13.159 -23.194  0.00  0.00    +0.050 C 
ATOM     15  C   UNL     1      33.458 -13.946 -22.164  0.00  0.00    +0.021 C 
ATOM     16  C   UNL     1      32.928 -13.650 -24.503  0.00  0.00    +0.015 C 
ATOM     17  C   UNL     1      33.972 -15.213 -22.441  0.00  0.00    +0.036 C 
ATOM     18  C   UNL     1      33.443 -14.917 -24.780  0.00  0.00    +0.002 C 
ATOM     19  C   UNL     1      33.966 -15.697 -23.750  0.00  0.00    +0.007 C 
ENDBRANCH   1  14
BRANCH   7  21
ATOM     20  O   UNL     1      30.980  -5.916 -24.428  0.00  0.00    -0.270 OA
ATOM     21  N   UNL     1      33.017  -6.878 -23.746  0.00  0.00    -0.281 N 
ATOM     22  C   UNL     1      32.189  -6.078 -24.547  0.00  0.00    +0.249 C 
ATOM     23  H   UNL     1      33.971  -6.890 -23.989  0.00  0.00    +0.155 HD
BRANCH  22  25
ATOM     24  C   UNL     1      32.484  -4.287 -26.210  0.00  0.00    -0.044 C 
ATOM     25  C   UNL     1      32.960  -5.397 -25.630  0.00  0.00    +0.051 C 
BRANCH  24  26
ATOM     26  C   UNL     1      33.211  -3.550 -27.295  0.00  0.00    -0.050 C 
BRANCH  26  27
ATOM     27  N   UNL     1      33.716  -4.461 -28.316  0.00  0.00    +0.387 N 
ATOM     28  C   UNL     1      35.063  -4.069 -28.735  0.00  0.00    -0.100 C 
ATOM     29  C   UNL     1      32.814  -4.495 -29.468  0.00  0.00    -0.100 C 
ATOM     30  H   UNL     1      33.762  -5.399 -27.915  0.00  0.00    -0.079 HD
ENDBRANCH  26  27
ENDBRANCH  24  26
ENDBRANCH  22  25
ENDBRANCH   7  21
TORSDOF 5
ENDMDL
