MODEL 1
REMARK VINA RESULT:     -11.0      0.000      0.000
REMARK  Name = 10286159
REMARK  3 active torsions:
REMARK  status: ('A' for Active; 'I' for Inactive)
REMARK    1  A    between atoms: C_7  and  C_14
REMARK    2  A    between atoms: C_12  and  O_22
REMARK    3  A    between atoms: C_19  and  O_20
REMARK                            x       y       z     vdW  Elec       q    Type
REMARK                         _______ _______ _______ _____ _____    ______ ____
ROOT
ATOM      1  O   UNL     1      33.606 -17.302 -21.174  0.00  0.00    -0.475 OA
ATOM      2  C   UNL     1      35.189 -18.073 -22.887  0.00  0.00    +0.049 C 
ATOM      3  C   UNL     1      35.348 -16.657 -23.460  0.00  0.00    +0.029 C 
ATOM      4  C   UNL     1      34.131 -18.744 -23.785  0.00  0.00    +0.004 C 
ATOM      5  C   UNL     1      35.205 -16.906 -24.964  0.00  0.00    +0.005 C 
ATOM      6  C   UNL     1      34.090 -17.936 -25.081  0.00  0.00    +0.000 C 
ATOM      7  C   UNL     1      34.837 -18.005 -21.397  0.00  0.00    +0.188 C 
ATOM      8  C   UNL     1      34.335 -15.702 -22.873  0.00  0.00    +0.015 C 
ATOM      9  C   UNL     1      33.537 -16.074 -21.780  0.00  0.00    +0.135 C 
ATOM     10  C   UNL     1      34.196 -14.406 -23.393  0.00  0.00    +0.035 C 
ATOM     11  C   UNL     1      32.581 -15.194 -21.265  0.00  0.00    +0.040 C 
ATOM     12  C   UNL     1      33.253 -13.523 -22.866  0.00  0.00    +0.134 C 
ATOM     13  C   UNL     1      32.441 -13.919 -21.807  0.00  0.00    +0.040 C 
ENDROOT
BRANCH   7  14
ATOM     14  C   UNL     1      34.778 -19.384 -20.763  0.00  0.00    +0.017 C 
ATOM     15  C   UNL     1      33.545 -19.952 -20.448  0.00  0.00    +0.002 C 
ATOM     16  C   UNL     1      35.957 -20.077 -20.497  0.00  0.00    +0.002 C 
ATOM     17  C   UNL     1      33.491 -21.218 -19.865  0.00  0.00    +0.036 C 
ATOM     18  C   UNL     1      35.903 -21.344 -19.914  0.00  0.00    +0.036 C 
ATOM     19  C   UNL     1      34.670 -21.914 -19.599  0.00  0.00    +0.134 C 
BRANCH  19  20
ATOM     20  O   UNL     1      34.617 -23.151 -19.031  0.00  0.00    -0.506 OA
ATOM     21  H   UNL     1      35.398 -23.661 -18.947  0.00  0.00    +0.292 HD
ENDBRANCH  19  20
ENDBRANCH   7  14
BRANCH  12  22
ATOM     22  O   UNL     1      33.126 -12.272 -23.390  0.00  0.00    -0.506 OA
ATOM     23  H   UNL     1      33.640 -12.021 -24.131  0.00  0.00    +0.292 HD
ENDBRANCH  12  22
TORSDOF 3
ENDMDL
MODEL 2
REMARK VINA RESULT:      -9.2      1.421      3.029
REMARK  Name = 10286159
REMARK  3 active torsions:
REMARK  status: ('A' for Active; 'I' for Inactive)
REMARK    1  A    between atoms: C_7  and  C_14
REMARK    2  A    between atoms: C_12  and  O_22
REMARK    3  A    between atoms: C_19  and  O_20
REMARK                            x       y       z     vdW  Elec       q    Type
REMARK                         _______ _______ _______ _____ _____    ______ ____
ROOT
ATOM      1  O   UNL     1      34.397 -17.733 -22.998  0.00  0.00    -0.475 OA
ATOM      2  C   UNL     1      33.494 -16.702 -20.959  0.00  0.00    +0.049 C 
ATOM      3  C   UNL     1      32.886 -15.533 -21.750  0.00  0.00    +0.029 C 
ATOM      4  C   UNL     1      34.845 -16.166 -20.445  0.00  0.00    +0.004 C 
ATOM      5  C   UNL     1      33.327 -14.325 -20.919  0.00  0.00    +0.005 C 
ATOM      6  C   UNL     1      34.757 -14.642 -20.504  0.00  0.00    +0.000 C 
ATOM      7  C   UNL     1      33.576 -17.952 -21.841  0.00  0.00    +0.188 C 
ATOM      8  C   UNL     1      33.359 -15.527 -23.185  0.00  0.00    +0.015 C 
ATOM      9  C   UNL     1      34.074 -16.611 -23.717  0.00  0.00    +0.135 C 
ATOM     10  C   UNL     1      33.062 -14.444 -24.026  0.00  0.00    +0.035 C 
ATOM     11  C   UNL     1      34.533 -16.582 -25.037  0.00  0.00    +0.040 C 
ATOM     12  C   UNL     1      33.506 -14.424 -25.349  0.00  0.00    +0.134 C 
ATOM     13  C   UNL     1      34.248 -15.489 -25.852  0.00  0.00    +0.040 C 
ENDROOT
BRANCH   7  14
ATOM     14  C   UNL     1      34.070 -19.162 -21.067  0.00  0.00    +0.017 C 
ATOM     15  C   UNL     1      35.436 -19.431 -20.994  0.00  0.00    +0.002 C 
ATOM     16  C   UNL     1      33.156 -20.001 -20.433  0.00  0.00    +0.002 C 
ATOM     17  C   UNL     1      35.889 -20.543 -20.284  0.00  0.00    +0.036 C 
ATOM     18  C   UNL     1      33.609 -21.114 -19.722  0.00  0.00    +0.036 C 
ATOM     19  C   UNL     1      34.976 -21.383 -19.648  0.00  0.00    +0.134 C 
BRANCH  19  20
ATOM     20  O   UNL     1      35.419 -22.468 -18.953  0.00  0.00    -0.506 OA
ATOM     21  H   UNL     1      34.849 -22.900 -18.348  0.00  0.00    +0.292 HD
ENDBRANCH  19  20
ENDBRANCH   7  14
BRANCH  12  22
ATOM     22  O   UNL     1      33.215 -13.359 -26.147  0.00  0.00    -0.506 OA
ATOM     23  H   UNL     1      32.366 -12.967 -26.112  0.00  0.00    +0.292 HD
ENDBRANCH  12  22
TORSDOF 3
ENDMDL
MODEL 3
REMARK VINA RESULT:      -9.1      3.915      6.786
REMARK  Name = 10286159
REMARK  3 active torsions:
REMARK  status: ('A' for Active; 'I' for Inactive)
REMARK    1  A    between atoms: C_7  and  C_14
REMARK    2  A    between atoms: C_12  and  O_22
REMARK    3  A    between atoms: C_19  and  O_20
REMARK                            x       y       z     vdW  Elec       q    Type
REMARK                         _______ _______ _______ _____ _____    ______ ____
ROOT
ATOM      1  O   UNL     1      33.829 -11.561 -23.588  0.00  0.00    -0.475 OA
ATOM      2  C   UNL     1      31.885 -12.572 -22.477  0.00  0.00    +0.049 C 
ATOM      3  C   UNL     1      31.167 -11.219 -22.375  0.00  0.00    +0.029 C 
ATOM      4  C   UNL     1      32.568 -12.759 -21.109  0.00  0.00    +0.004 C 
ATOM      5  C   UNL     1      30.692 -11.222 -20.919  0.00  0.00    +0.005 C 
ATOM      6  C   UNL     1      31.850 -11.825 -20.136  0.00  0.00    +0.000 C 
ATOM      7  C   UNL     1      32.826 -12.582 -23.687  0.00  0.00    +0.188 C 
ATOM      8  C   UNL     1      32.082 -10.074 -22.744  0.00  0.00    +0.015 C 
ATOM      9  C   UNL     1      33.339 -10.308 -23.322  0.00  0.00    +0.135 C 
ATOM     10  C   UNL     1      31.674  -8.746 -22.545  0.00  0.00    +0.035 C 
ATOM     11  C   UNL     1      34.189  -9.244 -23.632  0.00  0.00    +0.040 C 
ATOM     12  C   UNL     1      32.518  -7.683 -22.871  0.00  0.00    +0.134 C 
ATOM     13  C   UNL     1      33.777  -7.932 -23.407  0.00  0.00    +0.040 C 
ENDROOT
BRANCH   7  14
ATOM     14  C   UNL     1      33.475 -13.940 -23.892  0.00  0.00    +0.017 C 
ATOM     15  C   UNL     1      34.317 -14.462 -22.912  0.00  0.00    +0.002 C 
ATOM     16  C   UNL     1      33.228 -14.659 -25.060  0.00  0.00    +0.002 C 
ATOM     17  C   UNL     1      34.914 -15.709 -23.100  0.00  0.00    +0.036 C 
ATOM     18  C   UNL     1      33.825 -15.906 -25.248  0.00  0.00    +0.036 C 
ATOM     19  C   UNL     1      34.667 -16.431 -24.268  0.00  0.00    +0.134 C 
BRANCH  19  20
ATOM     20  O   UNL     1      35.249 -17.648 -24.451  0.00  0.00    -0.506 OA
ATOM     21  H   UNL     1      35.418 -17.961 -25.318  0.00  0.00    +0.292 HD
ENDBRANCH  19  20
ENDBRANCH   7  14
BRANCH  12  22
ATOM     22  O   UNL     1      32.107  -6.401 -22.662  0.00  0.00    -0.506 OA
ATOM     23  H   UNL     1      32.106  -6.046 -21.796  0.00  0.00    +0.292 HD
ENDBRANCH  12  22
TORSDOF 3
ENDMDL
MODEL 4
REMARK VINA RESULT:      -8.9      3.237      7.780
REMARK  Name = 10286159
REMARK  3 active torsions:
REMARK  status: ('A' for Active; 'I' for Inactive)
REMARK    1  A    between atoms: C_7  and  C_14
REMARK    2  A    between atoms: C_12  and  O_22
REMARK    3  A    between atoms: C_19  and  O_20
REMARK                            x       y       z     vdW  Elec       q    Type
REMARK                         _______ _______ _______ _____ _____    ______ ____
ROOT
ATOM      1  O   UNL     1      33.294 -14.081 -24.212  0.00  0.00    -0.475 OA
ATOM      2  C   UNL     1      33.818 -13.887 -21.820  0.00  0.00    +0.049 C 
ATOM      3  C   UNL     1      34.620 -15.198 -21.830  0.00  0.00    +0.029 C 
ATOM      4  C   UNL     1      32.417 -14.288 -21.321  0.00  0.00    +0.004 C 
ATOM      5  C   UNL     1      34.075 -15.912 -20.590  0.00  0.00    +0.005 C 
ATOM      6  C   UNL     1      32.579 -15.630 -20.607  0.00  0.00    +0.000 C 
ATOM      7  C   UNL     1      33.859 -13.231 -23.204  0.00  0.00    +0.188 C 
ATOM      8  C   UNL     1      34.440 -15.950 -23.129  0.00  0.00    +0.015 C 
ATOM      9  C   UNL     1      33.799 -15.356 -24.227  0.00  0.00    +0.135 C 
ATOM     10  C   UNL     1      34.943 -17.252 -23.271  0.00  0.00    +0.035 C 
ATOM     11  C   UNL     1      33.612 -16.071 -25.413  0.00  0.00    +0.040 C 
ATOM     12  C   UNL     1      34.770 -17.958 -24.462  0.00  0.00    +0.134 C 
ATOM     13  C   UNL     1      34.098 -17.371 -25.530  0.00  0.00    +0.040 C 
ENDROOT
BRANCH   7  14
ATOM     14  C   UNL     1      33.172 -11.877 -23.212  0.00  0.00    +0.017 C 
ATOM     15  C   UNL     1      33.679 -10.844 -23.997  0.00  0.00    +0.002 C 
ATOM     16  C   UNL     1      32.035 -11.671 -22.432  0.00  0.00    +0.002 C 
ATOM     17  C   UNL     1      33.047  -9.600 -24.003  0.00  0.00    +0.036 C 
ATOM     18  C   UNL     1      31.403 -10.427 -22.437  0.00  0.00    +0.036 C 
ATOM     19  C   UNL     1      31.909  -9.392 -23.223  0.00  0.00    +0.134 C 
BRANCH  19  20
ATOM     20  O   UNL     1      31.293  -8.178 -23.231  0.00  0.00    -0.506 OA
ATOM     21  H   UNL     1      31.226  -7.691 -24.029  0.00  0.00    +0.292 HD
ENDBRANCH  19  20
ENDBRANCH   7  14
BRANCH  12  22
ATOM     22  O   UNL     1      35.258 -19.225 -24.578  0.00  0.00    -0.506 OA
ATOM     23  H   UNL     1      35.462 -19.720 -23.810  0.00  0.00    +0.292 HD
ENDBRANCH  12  22
TORSDOF 3
ENDMDL
MODEL 5
REMARK VINA RESULT:      -8.9      2.250      3.946
REMARK  Name = 10286159
REMARK  3 active torsions:
REMARK  status: ('A' for Active; 'I' for Inactive)
REMARK    1  A    between atoms: C_7  and  C_14
REMARK    2  A    between atoms: C_12  and  O_22
REMARK    3  A    between atoms: C_19  and  O_20
REMARK                            x       y       z     vdW  Elec       q    Type
REMARK                         _______ _______ _______ _____ _____    ______ ____
ROOT
ATOM      1  O   UNL     1      32.896 -14.099 -21.934  0.00  0.00    -0.475 OA
ATOM      2  C   UNL     1      34.222 -14.110 -24.002  0.00  0.00    +0.049 C 
ATOM      3  C   UNL     1      34.057 -12.593 -24.184  0.00  0.00    +0.029 C 
ATOM      4  C   UNL     1      33.124 -14.733 -24.887  0.00  0.00    +0.004 C 
ATOM      5  C   UNL     1      33.669 -12.492 -25.662  0.00  0.00    +0.005 C 
ATOM      6  C   UNL     1      32.718 -13.657 -25.893  0.00  0.00    +0.000 C 
ATOM      7  C   UNL     1      34.152 -14.475 -22.515  0.00  0.00    +0.188 C 
ATOM      8  C   UNL     1      33.043 -12.024 -23.219  0.00  0.00    +0.015 C 
ATOM      9  C   UNL     1      32.531 -12.797 -22.166  0.00  0.00    +0.135 C 
ATOM     10  C   UNL     1      32.617 -10.692 -23.340  0.00  0.00    +0.035 C 
ATOM     11  C   UNL     1      31.571 -12.270 -21.298  0.00  0.00    +0.040 C 
ATOM     12  C   UNL     1      31.671 -10.162 -22.462  0.00  0.00    +0.134 C 
ATOM     13  C   UNL     1      31.143 -10.953 -21.446  0.00  0.00    +0.040 C 
ENDROOT
BRANCH   7  14
ATOM     14  C   UNL     1      34.420 -15.951 -22.280  0.00  0.00    +0.017 C 
ATOM     15  C   UNL     1      33.749 -16.626 -21.262  0.00  0.00    +0.002 C 
ATOM     16  C   UNL     1      35.338 -16.627 -23.082  0.00  0.00    +0.002 C 
ATOM     17  C   UNL     1      33.996 -17.982 -21.046  0.00  0.00    +0.036 C 
ATOM     18  C   UNL     1      35.585 -17.983 -22.865  0.00  0.00    +0.036 C 
ATOM     19  C   UNL     1      34.913 -18.660 -21.848  0.00  0.00    +0.134 C 
BRANCH  19  20
ATOM     20  O   UNL     1      35.153 -19.984 -21.637  0.00  0.00    -0.506 OA
ATOM     21  H   UNL     1      34.497 -20.520 -21.235  0.00  0.00    +0.292 HD
ENDBRANCH  19  20
ENDBRANCH   7  14
BRANCH  12  22
ATOM     22  O   UNL     1      31.263  -8.870 -22.601  0.00  0.00    -0.506 OA
ATOM     23  H   UNL     1      30.444  -8.596 -22.238  0.00  0.00    +0.292 HD
ENDBRANCH  12  22
TORSDOF 3
ENDMDL
MODEL 6
REMARK VINA RESULT:      -8.8      2.362      7.102
REMARK  Name = 10286159
REMARK  3 active torsions:
REMARK  status: ('A' for Active; 'I' for Inactive)
REMARK    1  A    between atoms: C_7  and  C_14
REMARK    2  A    between atoms: C_12  and  O_22
REMARK    3  A    between atoms: C_19  and  O_20
REMARK                            x       y       z     vdW  Elec       q    Type
REMARK                         _______ _______ _______ _____ _____    ______ ____
ROOT
ATOM      1  O   UNL     1      34.172 -16.775 -23.968  0.00  0.00    -0.475 OA
ATOM      2  C   UNL     1      34.160 -14.818 -22.483  0.00  0.00    +0.049 C 
ATOM      3  C   UNL     1      34.912 -15.579 -21.380  0.00  0.00    +0.029 C 
ATOM      4  C   UNL     1      32.674 -14.929 -22.092  0.00  0.00    +0.004 C 
ATOM      5  C   UNL     1      34.090 -15.229 -20.137  0.00  0.00    +0.005 C 
ATOM      6  C   UNL     1      32.642 -15.276 -20.604  0.00  0.00    +0.000 C 
ATOM      7  C   UNL     1      34.521 -15.388 -23.859  0.00  0.00    +0.188 C 
ATOM      8  C   UNL     1      35.005 -17.056 -21.687  0.00  0.00    +0.015 C 
ATOM      9  C   UNL     1      34.637 -17.559 -22.944  0.00  0.00    +0.135 C 
ATOM     10  C   UNL     1      35.496 -17.951 -20.725  0.00  0.00    +0.035 C 
ATOM     11  C   UNL     1      34.699 -18.930 -23.207  0.00  0.00    +0.040 C 
ATOM     12  C   UNL     1      35.573 -19.319 -20.995  0.00  0.00    +0.134 C 
ATOM     13  C   UNL     1      35.168 -19.809 -22.233  0.00  0.00    +0.040 C 
ENDROOT
BRANCH   7  14
ATOM     14  C   UNL     1      33.885 -14.594 -24.987  0.00  0.00    +0.017 C 
ATOM     15  C   UNL     1      33.238 -15.260 -26.027  0.00  0.00    +0.002 C 
ATOM     16  C   UNL     1      33.951 -13.202 -24.980  0.00  0.00    +0.002 C 
ATOM     17  C   UNL     1      32.655 -14.530 -27.063  0.00  0.00    +0.036 C 
ATOM     18  C   UNL     1      33.367 -12.472 -26.016  0.00  0.00    +0.036 C 
ATOM     19  C   UNL     1      32.719 -13.137 -27.057  0.00  0.00    +0.134 C 
BRANCH  19  20
ATOM     20  O   UNL     1      32.148 -12.426 -28.068  0.00  0.00    -0.506 OA
ATOM     21  H   UNL     1      31.943 -12.848 -28.879  0.00  0.00    +0.292 HD
ENDBRANCH  19  20
ENDBRANCH   7  14
BRANCH  12  22
ATOM     22  O   UNL     1      36.044 -20.174 -20.045  0.00  0.00    -0.506 OA
ATOM     23  H   UNL     1      36.709 -19.891 -19.450  0.00  0.00    +0.292 HD
ENDBRANCH  12  22
TORSDOF 3
ENDMDL
MODEL 7
REMARK VINA RESULT:      -8.8      4.425      9.424
REMARK  Name = 10286159
REMARK  3 active torsions:
REMARK  status: ('A' for Active; 'I' for Inactive)
REMARK    1  A    between atoms: C_7  and  C_14
REMARK    2  A    between atoms: C_12  and  O_22
REMARK    3  A    between atoms: C_19  and  O_20
REMARK                            x       y       z     vdW  Elec       q    Type
REMARK                         _______ _______ _______ _____ _____    ______ ____
ROOT
ATOM      1  O   UNL     1      32.542 -22.344 -16.954  0.00  0.00    -0.475 OA
ATOM      2  C   UNL     1      34.765 -23.378 -16.794  0.00  0.00    +0.049 C 
ATOM      3  C   UNL     1      34.281 -24.394 -15.748  0.00  0.00    +0.029 C 
ATOM      4  C   UNL     1      35.405 -22.243 -15.972  0.00  0.00    +0.004 C 
ATOM      5  C   UNL     1      35.387 -24.312 -14.692  0.00  0.00    +0.005 C 
ATOM      6  C   UNL     1      35.723 -22.830 -14.598  0.00  0.00    +0.000 C 
ATOM      7  C   UNL     1      33.603 -22.957 -17.700  0.00  0.00    +0.188 C 
ATOM      8  C   UNL     1      32.895 -24.059 -15.247  0.00  0.00    +0.015 C 
ATOM      9  C   UNL     1      32.118 -23.071 -15.870  0.00  0.00    +0.135 C 
ATOM     10  C   UNL     1      32.344 -24.758 -14.162  0.00  0.00    +0.035 C 
ATOM     11  C   UNL     1      30.850 -22.748 -15.380  0.00  0.00    +0.040 C 
ATOM     12  C   UNL     1      31.071 -24.446 -13.684  0.00  0.00    +0.134 C 
ATOM     13  C   UNL     1      30.327 -23.437 -14.288  0.00  0.00    +0.040 C 
ENDROOT
BRANCH   7  14
ATOM     14  C   UNL     1      34.059 -22.037 -18.819  0.00  0.00    +0.017 C 
ATOM     15  C   UNL     1      35.394 -22.038 -19.220  0.00  0.00    +0.002 C 
ATOM     16  C   UNL     1      33.142 -21.192 -19.441  0.00  0.00    +0.002 C 
ATOM     17  C   UNL     1      35.812 -21.191 -20.247  0.00  0.00    +0.036 C 
ATOM     18  C   UNL     1      33.560 -20.345 -20.468  0.00  0.00    +0.036 C 
ATOM     19  C   UNL     1      34.895 -20.346 -20.871  0.00  0.00    +0.134 C 
BRANCH  19  20
ATOM     20  O   UNL     1      35.305 -19.521 -21.874  0.00  0.00    -0.506 OA
ATOM     21  H   UNL     1      34.774 -19.417 -22.640  0.00  0.00    +0.292 HD
ENDBRANCH  19  20
ENDBRANCH   7  14
BRANCH  12  22
ATOM     22  O   UNL     1      30.557 -25.130 -12.624  0.00  0.00    -0.506 OA
ATOM     23  H   UNL     1      29.810 -25.682 -12.741  0.00  0.00    +0.292 HD
ENDBRANCH  12  22
TORSDOF 3
ENDMDL
MODEL 8
REMARK VINA RESULT:      -8.7      5.731     10.912
REMARK  Name = 10286159
REMARK  3 active torsions:
REMARK  status: ('A' for Active; 'I' for Inactive)
REMARK    1  A    between atoms: C_7  and  C_14
REMARK    2  A    between atoms: C_12  and  O_22
REMARK    3  A    between atoms: C_19  and  O_20
REMARK                            x       y       z     vdW  Elec       q    Type
REMARK                         _______ _______ _______ _____ _____    ______ ____
ROOT
ATOM      1  O   UNL     1      31.717  -9.272 -21.847  0.00  0.00    -0.475 OA
ATOM      2  C   UNL     1      32.663  -9.114 -24.109  0.00  0.00    +0.049 C 
ATOM      3  C   UNL     1      32.700 -10.642 -24.263  0.00  0.00    +0.029 C 
ATOM      4  C   UNL     1      34.084  -8.730 -23.656  0.00  0.00    +0.004 C 
ATOM      5  C   UNL     1      34.111 -10.870 -24.813  0.00  0.00    +0.005 C 
ATOM      6  C   UNL     1      34.990  -9.900 -24.037  0.00  0.00    +0.000 C 
ATOM      7  C   UNL     1      31.536  -8.706 -23.153  0.00  0.00    +0.188 C 
ATOM      8  C   UNL     1      32.406 -11.340 -22.955  0.00  0.00    +0.015 C 
ATOM      9  C   UNL     1      31.937 -10.626 -21.842  0.00  0.00    +0.135 C 
ATOM     10  C   UNL     1      32.565 -12.729 -22.841  0.00  0.00    +0.035 C 
ATOM     11  C   UNL     1      31.696 -11.276 -20.629  0.00  0.00    +0.040 C 
ATOM     12  C   UNL     1      32.308 -13.380 -21.633  0.00  0.00    +0.134 C 
ATOM     13  C   UNL     1      31.881 -12.653 -20.526  0.00  0.00    +0.040 C 
ENDROOT
BRANCH   7  14
ATOM     14  C   UNL     1      31.392  -7.197 -23.057  0.00  0.00    +0.017 C 
ATOM     15  C   UNL     1      31.184  -6.443 -24.210  0.00  0.00    +0.002 C 
ATOM     16  C   UNL     1      31.468  -6.570 -21.814  0.00  0.00    +0.002 C 
ATOM     17  C   UNL     1      31.052  -5.057 -24.121  0.00  0.00    +0.036 C 
ATOM     18  C   UNL     1      31.336  -5.183 -21.725  0.00  0.00    +0.036 C 
ATOM     19  C   UNL     1      31.128  -4.428 -22.879  0.00  0.00    +0.134 C 
BRANCH  19  20
ATOM     20  O   UNL     1      30.997  -3.075 -22.793  0.00  0.00    -0.506 OA
ATOM     21  H   UNL     1      31.679  -2.518 -23.112  0.00  0.00    +0.292 HD
ENDBRANCH  19  20
ENDBRANCH   7  14
BRANCH  12  22
ATOM     22  O   UNL     1      32.478 -14.728 -21.538  0.00  0.00    -0.506 OA
ATOM     23  H   UNL     1      33.131 -15.079 -20.967  0.00  0.00    +0.292 HD
ENDBRANCH  12  22
TORSDOF 3
ENDMDL
MODEL 9
REMARK VINA RESULT:      -8.5      3.600      7.481
REMARK  Name = 10286159
REMARK  3 active torsions:
REMARK  status: ('A' for Active; 'I' for Inactive)
REMARK    1  A    between atoms: C_7  and  C_14
REMARK    2  A    between atoms: C_12  and  O_22
REMARK    3  A    between atoms: C_19  and  O_20
REMARK                            x       y       z     vdW  Elec       q    Type
REMARK                         _______ _______ _______ _____ _____    ______ ____
ROOT
ATOM      1  O   UNL     1      33.445 -13.855 -22.375  0.00  0.00    -0.475 OA
ATOM      2  C   UNL     1      32.521 -12.514 -24.215  0.00  0.00    +0.049 C 
ATOM      3  C   UNL     1      32.631 -13.686 -25.201  0.00  0.00    +0.029 C 
ATOM      4  C   UNL     1      33.795 -11.680 -24.453  0.00  0.00    +0.004 C 
ATOM      5  C   UNL     1      33.275 -13.017 -26.418  0.00  0.00    +0.005 C 
ATOM      6  C   UNL     1      34.317 -12.073 -25.834  0.00  0.00    +0.000 C 
ATOM      7  C   UNL     1      32.339 -13.039 -22.786  0.00  0.00    +0.188 C 
ATOM      8  C   UNL     1      33.419 -14.835 -24.614  0.00  0.00    +0.015 C 
ATOM      9  C   UNL     1      33.772 -14.853 -23.257  0.00  0.00    +0.135 C 
ATOM     10  C   UNL     1      33.784 -15.928 -25.416  0.00  0.00    +0.035 C 
ATOM     11  C   UNL     1      34.527 -15.905 -22.731  0.00  0.00    +0.040 C 
ATOM     12  C   UNL     1      34.523 -16.987 -24.885  0.00  0.00    +0.134 C 
ATOM     13  C   UNL     1      34.900 -16.972 -23.546  0.00  0.00    +0.040 C 
ENDROOT
BRANCH   7  14
ATOM     14  C   UNL     1      32.116 -11.914 -21.791  0.00  0.00    +0.017 C 
ATOM     15  C   UNL     1      31.943 -12.205 -20.439  0.00  0.00    +0.002 C 
ATOM     16  C   UNL     1      32.084 -10.592 -22.233  0.00  0.00    +0.002 C 
ATOM     17  C   UNL     1      31.737 -11.171 -19.526  0.00  0.00    +0.036 C 
ATOM     18  C   UNL     1      31.878  -9.558 -21.319  0.00  0.00    +0.036 C 
ATOM     19  C   UNL     1      31.705  -9.848 -19.966  0.00  0.00    +0.134 C 
BRANCH  19  20
ATOM     20  O   UNL     1      31.506  -8.839 -19.073  0.00  0.00    -0.506 OA
ATOM     21  H   UNL     1      30.781  -8.255 -19.181  0.00  0.00    +0.292 HD
ENDBRANCH  19  20
ENDBRANCH   7  14
BRANCH  12  22
ATOM     22  O   UNL     1      34.876 -18.034 -25.681  0.00  0.00    -0.506 OA
ATOM     23  H   UNL     1      34.677 -18.910 -25.417  0.00  0.00    +0.292 HD
ENDBRANCH  12  22
TORSDOF 3
ENDMDL
