MODEL 1
REMARK VINA RESULT:      -9.9      0.000      0.000
REMARK  Name = 5280346
REMARK  7 active torsions:
REMARK  status: ('A' for Active; 'I' for Inactive)
REMARK    1  A    between atoms: C_3  and  C_14
REMARK    2  A    between atoms: C_7  and  O_10
REMARK    3  A    between atoms: C_8  and  O_12
REMARK    4  A    between atoms: C_14  and  C_16
REMARK    5  A    between atoms: C_15  and  C_18
REMARK    6  A    between atoms: C_18  and  C_19
REMARK    7  A    between atoms: C_19  and  C_20
REMARK                            x       y       z     vdW  Elec       q    Type
REMARK                         _______ _______ _______ _____ _____    ______ ____
ROOT
ATOM      1  O   UNL     1      35.221 -16.664 -20.341  0.00  0.00    -0.284 OA
ATOM      2  O   UNL     1      34.299 -16.829 -25.578  0.00  0.00    -0.284 OA
ATOM      3  C   UNL     1      35.153 -18.005 -22.306  0.00  0.00    +0.024 C 
ATOM      4  C   UNL     1      34.902 -18.051 -23.628  0.00  0.00    +0.020 C 
ATOM      5  C   UNL     1      35.019 -16.722 -21.551  0.00  0.00    +0.229 C 
ATOM      6  C   UNL     1      34.511 -16.812 -24.368  0.00  0.00    +0.228 C 
ATOM      7  C   UNL     1      34.626 -15.506 -22.297  0.00  0.00    +0.214 C 
ATOM      8  C   UNL     1      34.389 -15.548 -23.610  0.00  0.00    +0.214 C 
ATOM      9  C   UNL     1      34.961 -19.290 -24.479  0.00  0.00    +0.034 C 
ENDROOT
BRANCH   7  10
ATOM     10  O   UNL     1      34.509 -14.323 -21.593  0.00  0.00    -0.465 OA
ATOM     11  C   UNL     1      33.262 -14.256 -20.931  0.00  0.00    +0.253 C 
ENDBRANCH   7  10
BRANCH   8  12
ATOM     12  O   UNL     1      34.024 -14.431 -24.332  0.00  0.00    -0.465 OA
ATOM     13  C   UNL     1      32.615 -14.304 -24.381  0.00  0.00    +0.253 C 
ENDBRANCH   8  12
BRANCH   3  14
ATOM     14  C   UNL     1      35.591 -19.165 -21.473  0.00  0.00    +0.055 C 
BRANCH  14  16
ATOM     15  C   UNL     1      34.452 -20.906 -19.977  0.00  0.00    -0.048 C 
ATOM     16  C   UNL     1      34.427 -19.871 -20.840  0.00  0.00    -0.030 C 
ATOM     17  C   UNL     1      35.773 -21.488 -19.540  0.00  0.00    +0.026 C 
BRANCH  15  18
ATOM     18  C   UNL     1      33.230 -21.541 -19.347  0.00  0.00    +0.026 C 
BRANCH  18  19
ATOM     19  C   UNL     1      33.554 -22.662 -18.351  0.00  0.00    +0.030 C 
BRANCH  19  20
ATOM     20  C   UNL     1      32.466 -22.867 -17.334  0.00  0.00    -0.034 C 
ATOM     21  C   UNL     1      32.588 -23.259 -16.052  0.00  0.00    -0.048 C 
ATOM     22  C   UNL     1      31.370 -23.388 -15.176  0.00  0.00    +0.026 C 
ATOM     23  C   UNL     1      33.880 -23.609 -15.369  0.00  0.00    +0.026 C 
ENDBRANCH  19  20
ENDBRANCH  18  19
ENDBRANCH  15  18
ENDBRANCH  14  16
ENDBRANCH   3  14
TORSDOF 7
ENDMDL
MODEL 2
REMARK VINA RESULT:      -9.3      3.496      9.410
REMARK  Name = 5280346
REMARK  7 active torsions:
REMARK  status: ('A' for Active; 'I' for Inactive)
REMARK    1  A    between atoms: C_3  and  C_14
REMARK    2  A    between atoms: C_7  and  O_10
REMARK    3  A    between atoms: C_8  and  O_12
REMARK    4  A    between atoms: C_14  and  C_16
REMARK    5  A    between atoms: C_15  and  C_18
REMARK    6  A    between atoms: C_18  and  C_19
REMARK    7  A    between atoms: C_19  and  C_20
REMARK                            x       y       z     vdW  Elec       q    Type
REMARK                         _______ _______ _______ _____ _____    ______ ____
ROOT
ATOM      1  O   UNL     1      33.791 -15.771 -25.295  0.00  0.00    -0.284 OA
ATOM      2  O   UNL     1      34.915 -16.203 -20.113  0.00  0.00    -0.284 OA
ATOM      3  C   UNL     1      33.526 -14.844 -23.120  0.00  0.00    +0.024 C 
ATOM      4  C   UNL     1      33.795 -14.963 -21.806  0.00  0.00    +0.020 C 
ATOM      5  C   UNL     1      34.045 -15.849 -24.096  0.00  0.00    +0.229 C 
ATOM      6  C   UNL     1      34.640 -16.089 -21.306  0.00  0.00    +0.228 C 
ATOM      7  C   UNL     1      34.876 -16.961 -23.584  0.00  0.00    +0.214 C 
ATOM      8  C   UNL     1      35.154 -17.073 -22.284  0.00  0.00    +0.214 C 
ATOM      9  C   UNL     1      33.291 -14.041 -20.730  0.00  0.00    +0.034 C 
ENDROOT
BRANCH   7  10
ATOM     10  O   UNL     1      35.357 -17.883 -24.494  0.00  0.00    -0.465 OA
ATOM     11  C   UNL     1      34.387 -18.878 -24.756  0.00  0.00    +0.253 C 
ENDBRANCH   7  10
BRANCH   8  12
ATOM     12  O   UNL     1      35.928 -18.097 -21.778  0.00  0.00    -0.465 OA
ATOM     13  C   UNL     1      35.114 -19.128 -21.252  0.00  0.00    +0.253 C 
ENDBRANCH   8  12
BRANCH   3  14
ATOM     14  C   UNL     1      32.731 -13.740 -23.738  0.00  0.00    +0.055 C 
BRANCH  14  16
ATOM     15  C   UNL     1      33.913 -11.882 -25.049  0.00  0.00    -0.048 C 
ATOM     16  C   UNL     1      33.545 -12.489 -23.902  0.00  0.00    -0.030 C 
ATOM     17  C   UNL     1      33.498 -12.467 -26.375  0.00  0.00    +0.026 C 
BRANCH  15  18
ATOM     18  C   UNL     1      34.703 -10.593 -25.133  0.00  0.00    +0.026 C 
BRANCH  18  19
ATOM     19  C   UNL     1      34.528  -9.675 -23.916  0.00  0.00    +0.030 C 
BRANCH  19  20
ATOM     20  C   UNL     1      33.311  -8.798 -24.020  0.00  0.00    -0.034 C 
ATOM     21  C   UNL     1      32.182  -8.853 -23.289  0.00  0.00    -0.048 C 
ATOM     22  C   UNL     1      31.070  -7.865 -23.531  0.00  0.00    +0.026 C 
ATOM     23  C   UNL     1      31.894  -9.854 -22.207  0.00  0.00    +0.026 C 
ENDBRANCH  19  20
ENDBRANCH  18  19
ENDBRANCH  15  18
ENDBRANCH  14  16
ENDBRANCH   3  14
TORSDOF 7
ENDMDL
MODEL 3
REMARK VINA RESULT:      -9.2      4.514      8.011
REMARK  Name = 5280346
REMARK  7 active torsions:
REMARK  status: ('A' for Active; 'I' for Inactive)
REMARK    1  A    between atoms: C_3  and  C_14
REMARK    2  A    between atoms: C_7  and  O_10
REMARK    3  A    between atoms: C_8  and  O_12
REMARK    4  A    between atoms: C_14  and  C_16
REMARK    5  A    between atoms: C_15  and  C_18
REMARK    6  A    between atoms: C_18  and  C_19
REMARK    7  A    between atoms: C_19  and  C_20
REMARK                            x       y       z     vdW  Elec       q    Type
REMARK                         _______ _______ _______ _____ _____    ______ ____
ROOT
ATOM      1  O   UNL     1      32.539 -10.980 -23.606  0.00  0.00    -0.284 OA
ATOM      2  O   UNL     1      31.942  -8.008 -19.234  0.00  0.00    -0.284 OA
ATOM      3  C   UNL     1      31.853 -10.911 -21.328  0.00  0.00    +0.024 C 
ATOM      4  C   UNL     1      31.719 -10.163 -20.217  0.00  0.00    +0.020 C 
ATOM      5  C   UNL     1      32.387 -10.310 -22.588  0.00  0.00    +0.229 C 
ATOM      6  C   UNL     1      32.077  -8.713 -20.232  0.00  0.00    +0.228 C 
ATOM      7  C   UNL     1      32.742  -8.873 -22.585  0.00  0.00    +0.214 C 
ATOM      8  C   UNL     1      32.597  -8.129 -21.487  0.00  0.00    +0.214 C 
ATOM      9  C   UNL     1      31.237 -10.669 -18.884  0.00  0.00    +0.034 C 
ENDROOT
BRANCH   7  10
ATOM     10  O   UNL     1      33.230  -8.324 -23.756  0.00  0.00    -0.465 OA
ATOM     11  C   UNL     1      34.642  -8.380 -23.783  0.00  0.00    +0.253 C 
ENDBRANCH   7  10
BRANCH   8  12
ATOM     12  O   UNL     1      32.918  -6.787 -21.456  0.00  0.00    -0.465 OA
ATOM     13  C   UNL     1      31.832  -6.001 -21.908  0.00  0.00    +0.253 C 
ENDBRANCH   8  12
BRANCH   3  14
ATOM     14  C   UNL     1      31.488 -12.355 -21.442  0.00  0.00    +0.055 C 
BRANCH  14  16
ATOM     15  C   UNL     1      33.251 -14.214 -21.476  0.00  0.00    -0.048 C 
ATOM     16  C   UNL     1      32.544 -13.247 -20.857  0.00  0.00    -0.030 C 
ATOM     17  C   UNL     1      33.014 -14.501 -22.937  0.00  0.00    +0.026 C 
BRANCH  15  18
ATOM     18  C   UNL     1      34.334 -15.048 -20.825  0.00  0.00    +0.026 C 
BRANCH  18  19
ATOM     19  C   UNL     1      34.796 -16.242 -21.672  0.00  0.00    +0.030 C 
BRANCH  19  20
ATOM     20  C   UNL     1      34.468 -17.565 -21.038  0.00  0.00    -0.034 C 
ATOM     21  C   UNL     1      34.439 -18.780 -21.616  0.00  0.00    -0.048 C 
ATOM     22  C   UNL     1      34.104 -20.003 -20.802  0.00  0.00    +0.026 C 
ATOM     23  C   UNL     1      34.709 -19.059 -23.067  0.00  0.00    +0.026 C 
ENDBRANCH  19  20
ENDBRANCH  18  19
ENDBRANCH  15  18
ENDBRANCH  14  16
ENDBRANCH   3  14
TORSDOF 7
ENDMDL
MODEL 4
REMARK VINA RESULT:      -9.2      1.634      2.721
REMARK  Name = 5280346
REMARK  7 active torsions:
REMARK  status: ('A' for Active; 'I' for Inactive)
REMARK    1  A    between atoms: C_3  and  C_14
REMARK    2  A    between atoms: C_7  and  O_10
REMARK    3  A    between atoms: C_8  and  O_12
REMARK    4  A    between atoms: C_14  and  C_16
REMARK    5  A    between atoms: C_15  and  C_18
REMARK    6  A    between atoms: C_18  and  C_19
REMARK    7  A    between atoms: C_19  and  C_20
REMARK                            x       y       z     vdW  Elec       q    Type
REMARK                         _______ _______ _______ _____ _____    ______ ____
ROOT
ATOM      1  O   UNL     1      34.537 -14.391 -21.536  0.00  0.00    -0.284 OA
ATOM      2  O   UNL     1      33.405 -15.724 -26.560  0.00  0.00    -0.284 OA
ATOM      3  C   UNL     1      34.608 -16.084 -23.207  0.00  0.00    +0.024 C 
ATOM      4  C   UNL     1      34.305 -16.427 -24.473  0.00  0.00    +0.020 C 
ATOM      5  C   UNL     1      34.290 -14.716 -22.694  0.00  0.00    +0.229 C 
ATOM      6  C   UNL     1      33.669 -15.437 -25.395  0.00  0.00    +0.228 C 
ATOM      7  C   UNL     1      33.656 -13.749 -23.618  0.00  0.00    +0.214 C 
ATOM      8  C   UNL     1      33.367 -14.085 -24.877  0.00  0.00    +0.214 C 
ATOM      9  C   UNL     1      34.536 -17.782 -25.083  0.00  0.00    +0.034 C 
ENDROOT
BRANCH   7  10
ATOM     10  O   UNL     1      33.370 -12.486 -23.137  0.00  0.00    -0.465 OA
ATOM     11  C   UNL     1      32.107 -12.466 -22.502  0.00  0.00    +0.253 C 
ENDBRANCH   7  10
BRANCH   8  12
ATOM     12  O   UNL     1      32.778 -13.204 -25.761  0.00  0.00    -0.465 OA
ATOM     13  C   UNL     1      33.744 -12.337 -26.323  0.00  0.00    +0.253 C 
ENDBRANCH   8  12
BRANCH   3  14
ATOM     14  C   UNL     1      35.281 -16.972 -22.213  0.00  0.00    +0.055 C 
BRANCH  14  16
ATOM     15  C   UNL     1      34.087 -19.080 -21.378  0.00  0.00    -0.048 C 
ATOM     16  C   UNL     1      34.289 -17.747 -21.394  0.00  0.00    -0.030 C 
ATOM     17  C   UNL     1      34.917 -19.978 -22.260  0.00  0.00    +0.026 C 
BRANCH  15  18
ATOM     18  C   UNL     1      33.091 -19.795 -20.489  0.00  0.00    +0.026 C 
BRANCH  18  19
ATOM     19  C   UNL     1      33.490 -21.235 -20.139  0.00  0.00    +0.030 C 
BRANCH  19  20
ATOM     20  C   UNL     1      34.800 -21.313 -19.407  0.00  0.00    -0.034 C 
ATOM     21  C   UNL     1      35.096 -22.027 -18.305  0.00  0.00    -0.048 C 
ATOM     22  C   UNL     1      36.486 -21.991 -17.725  0.00  0.00    +0.026 C 
ATOM     23  C   UNL     1      34.134 -22.895 -17.547  0.00  0.00    +0.026 C 
ENDBRANCH  19  20
ENDBRANCH  18  19
ENDBRANCH  15  18
ENDBRANCH  14  16
ENDBRANCH   3  14
TORSDOF 7
ENDMDL
MODEL 5
REMARK VINA RESULT:      -9.1      3.228      6.158
REMARK  Name = 5280346
REMARK  7 active torsions:
REMARK  status: ('A' for Active; 'I' for Inactive)
REMARK    1  A    between atoms: C_3  and  C_14
REMARK    2  A    between atoms: C_7  and  O_10
REMARK    3  A    between atoms: C_8  and  O_12
REMARK    4  A    between atoms: C_14  and  C_16
REMARK    5  A    between atoms: C_15  and  C_18
REMARK    6  A    between atoms: C_18  and  C_19
REMARK    7  A    between atoms: C_19  and  C_20
REMARK                            x       y       z     vdW  Elec       q    Type
REMARK                         _______ _______ _______ _____ _____    ______ ____
ROOT
ATOM      1  O   UNL     1      31.880 -13.684 -22.148  0.00  0.00    -0.284 OA
ATOM      2  O   UNL     1      33.443  -8.893 -23.853  0.00  0.00    -0.284 OA
ATOM      3  C   UNL     1      33.246 -12.463 -23.666  0.00  0.00    +0.024 C 
ATOM      4  C   UNL     1      33.628 -11.251 -24.110  0.00  0.00    +0.020 C 
ATOM      5  C   UNL     1      32.259 -12.587 -22.551  0.00  0.00    +0.229 C 
ATOM      6  C   UNL     1      33.091 -10.009 -23.476  0.00  0.00    +0.228 C 
ATOM      7  C   UNL     1      31.732 -11.348 -21.938  0.00  0.00    +0.214 C 
ATOM      8  C   UNL     1      32.120 -10.146 -22.369  0.00  0.00    +0.214 C 
ATOM      9  C   UNL     1      34.577 -11.005 -25.251  0.00  0.00    +0.034 C 
ENDROOT
BRANCH   7  10
ATOM     10  O   UNL     1      30.824 -11.472 -20.904  0.00  0.00    -0.465 OA
ATOM     11  C   UNL     1      31.490 -11.531 -19.658  0.00  0.00    +0.253 C 
ENDBRANCH   7  10
BRANCH   8  12
ATOM     12  O   UNL     1      31.648  -8.974 -21.815  0.00  0.00    -0.465 OA
ATOM     13  C   UNL     1      32.557  -8.472 -20.854  0.00  0.00    +0.253 C 
ENDBRANCH   8  12
BRANCH   3  14
ATOM     14  C   UNL     1      33.747 -13.768 -24.192  0.00  0.00    +0.055 C 
BRANCH  14  16
ATOM     15  C   UNL     1      34.664 -15.934 -23.174  0.00  0.00    -0.048 C 
ATOM     16  C   UNL     1      34.293 -14.640 -23.098  0.00  0.00    -0.030 C 
ATOM     17  C   UNL     1      34.547 -16.674 -24.482  0.00  0.00    +0.026 C 
BRANCH  15  18
ATOM     18  C   UNL     1      35.247 -16.737 -22.030  0.00  0.00    +0.026 C 
BRANCH  18  19
ATOM     19  C   UNL     1      35.270 -18.251 -22.280  0.00  0.00    +0.030 C 
BRANCH  19  20
ATOM     20  C   UNL     1      34.193 -18.980 -21.527  0.00  0.00    -0.034 C 
ATOM     21  C   UNL     1      34.327 -20.012 -20.673  0.00  0.00    -0.048 C 
ATOM     22  C   UNL     1      33.119 -20.600 -19.993  0.00  0.00    +0.026 C 
ATOM     23  C   UNL     1      35.623 -20.681 -20.315  0.00  0.00    +0.026 C 
ENDBRANCH  19  20
ENDBRANCH  18  19
ENDBRANCH  15  18
ENDBRANCH  14  16
ENDBRANCH   3  14
TORSDOF 7
ENDMDL
MODEL 6
REMARK VINA RESULT:      -9.1      4.081      8.896
REMARK  Name = 5280346
REMARK  7 active torsions:
REMARK  status: ('A' for Active; 'I' for Inactive)
REMARK    1  A    between atoms: C_3  and  C_14
REMARK    2  A    between atoms: C_7  and  O_10
REMARK    3  A    between atoms: C_8  and  O_12
REMARK    4  A    between atoms: C_14  and  C_16
REMARK    5  A    between atoms: C_15  and  C_18
REMARK    6  A    between atoms: C_18  and  C_19
REMARK    7  A    between atoms: C_19  and  C_20
REMARK                            x       y       z     vdW  Elec       q    Type
REMARK                         _______ _______ _______ _____ _____    ______ ____
ROOT
ATOM      1  O   UNL     1      32.296 -22.946 -18.104  0.00  0.00    -0.284 OA
ATOM      2  O   UNL     1      37.370 -22.183 -16.700  0.00  0.00    -0.284 OA
ATOM      3  C   UNL     1      34.425 -22.089 -18.733  0.00  0.00    +0.024 C 
ATOM      4  C   UNL     1      35.704 -21.879 -18.371  0.00  0.00    +0.020 C 
ATOM      5  C   UNL     1      33.472 -22.766 -17.801  0.00  0.00    +0.229 C 
ATOM      6  C   UNL     1      36.200 -22.345 -17.040  0.00  0.00    +0.228 C 
ATOM      7  C   UNL     1      33.978 -23.217 -16.486  0.00  0.00    +0.214 C 
ATOM      8  C   UNL     1      35.249 -23.021 -16.131  0.00  0.00    +0.214 C 
ATOM      9  C   UNL     1      36.736 -21.171 -19.205  0.00  0.00    +0.034 C 
ENDROOT
BRANCH   7  10
ATOM     10  O   UNL     1      33.092 -23.847 -15.633  0.00  0.00    -0.465 OA
ATOM     11  C   UNL     1      32.423 -22.903 -14.821  0.00  0.00    +0.253 C 
ENDBRANCH   7  10
BRANCH   8  12
ATOM     12  O   UNL     1      35.749 -23.432 -14.912  0.00  0.00    -0.465 OA
ATOM     13  C   UNL     1      36.190 -24.775 -14.979  0.00  0.00    +0.253 C 
ENDBRANCH   8  12
BRANCH   3  14
ATOM     14  C   UNL     1      33.830 -21.707 -20.049  0.00  0.00    +0.055 C 
BRANCH  14  16
ATOM     15  C   UNL     1      33.992 -19.325 -20.982  0.00  0.00    -0.048 C 
ATOM     16  C   UNL     1      33.513 -20.240 -20.116  0.00  0.00    -0.030 C 
ATOM     17  C   UNL     1      34.973 -19.741 -22.048  0.00  0.00    +0.026 C 
BRANCH  15  18
ATOM     18  C   UNL     1      33.591 -17.865 -21.011  0.00  0.00    +0.026 C 
BRANCH  18  19
ATOM     19  C   UNL     1      34.777 -16.892 -20.997  0.00  0.00    +0.030 C 
BRANCH  19  20
ATOM     20  C   UNL     1      34.468 -15.589 -21.680  0.00  0.00    -0.034 C 
ATOM     21  C   UNL     1      34.467 -15.321 -22.999  0.00  0.00    -0.048 C 
ATOM     22  C   UNL     1      34.106 -13.946 -23.497  0.00  0.00    +0.026 C 
ATOM     23  C   UNL     1      34.817 -16.298 -24.085  0.00  0.00    +0.026 C 
ENDBRANCH  19  20
ENDBRANCH  18  19
ENDBRANCH  15  18
ENDBRANCH  14  16
ENDBRANCH   3  14
TORSDOF 7
ENDMDL
MODEL 7
REMARK VINA RESULT:      -8.9      4.008      6.793
REMARK  Name = 5280346
REMARK  7 active torsions:
REMARK  status: ('A' for Active; 'I' for Inactive)
REMARK    1  A    between atoms: C_3  and  C_14
REMARK    2  A    between atoms: C_7  and  O_10
REMARK    3  A    between atoms: C_8  and  O_12
REMARK    4  A    between atoms: C_14  and  C_16
REMARK    5  A    between atoms: C_15  and  C_18
REMARK    6  A    between atoms: C_18  and  C_19
REMARK    7  A    between atoms: C_19  and  C_20
REMARK                            x       y       z     vdW  Elec       q    Type
REMARK                         _______ _______ _______ _____ _____    ______ ____
ROOT
ATOM      1  O   UNL     1      30.990 -11.126 -21.320  0.00  0.00    -0.284 OA
ATOM      2  O   UNL     1      34.810  -9.392 -24.591  0.00  0.00    -0.284 OA
ATOM      3  C   UNL     1      32.554 -11.688 -23.023  0.00  0.00    +0.024 C 
ATOM      4  C   UNL     1      33.507 -11.245 -23.864  0.00  0.00    +0.020 C 
ATOM      5  C   UNL     1      31.878 -10.747 -22.078  0.00  0.00    +0.229 C 
ATOM      6  C   UNL     1      33.926  -9.811 -23.847  0.00  0.00    +0.228 C 
ATOM      7  C   UNL     1      32.300  -9.329 -22.077  0.00  0.00    +0.214 C 
ATOM      8  C   UNL     1      33.255  -8.892 -22.902  0.00  0.00    +0.214 C 
ATOM      9  C   UNL     1      34.221 -12.088 -24.885  0.00  0.00    +0.034 C 
ENDROOT
BRANCH   7  10
ATOM     10  O   UNL     1      31.675  -8.466 -21.197  0.00  0.00    -0.465 OA
ATOM     11  C   UNL     1      32.405  -8.368 -19.991  0.00  0.00    +0.253 C 
ENDBRANCH   7  10
BRANCH   8  12
ATOM     12  O   UNL     1      33.670  -7.577 -22.922  0.00  0.00    -0.465 OA
ATOM     13  C   UNL     1      32.843  -6.802 -23.769  0.00  0.00    +0.253 C 
ENDBRANCH   8  12
BRANCH   3  14
ATOM     14  C   UNL     1      32.086 -13.102 -22.921  0.00  0.00    +0.055 C 
BRANCH  14  16
ATOM     15  C   UNL     1      33.727 -14.931 -22.193  0.00  0.00    -0.048 C 
ATOM     16  C   UNL     1      32.905 -13.893 -21.941  0.00  0.00    -0.030 C 
ATOM     17  C   UNL     1      33.905 -15.424 -23.607  0.00  0.00    +0.026 C 
BRANCH  15  18
ATOM     18  C   UNL     1      34.555 -15.654 -21.152  0.00  0.00    +0.026 C 
BRANCH  18  19
ATOM     19  C   UNL     1      34.998 -17.061 -21.575  0.00  0.00    +0.030 C 
BRANCH  19  20
ATOM     20  C   UNL     1      33.997 -18.121 -21.205  0.00  0.00    -0.034 C 
ATOM     21  C   UNL     1      34.232 -19.394 -20.836  0.00  0.00    -0.048 C 
ATOM     22  C   UNL     1      33.087 -20.306 -20.480  0.00  0.00    +0.026 C 
ATOM     23  C   UNL     1      35.586 -20.038 -20.746  0.00  0.00    +0.026 C 
ENDBRANCH  19  20
ENDBRANCH  18  19
ENDBRANCH  15  18
ENDBRANCH  14  16
ENDBRANCH   3  14
TORSDOF 7
ENDMDL
MODEL 8
REMARK VINA RESULT:      -8.9      3.260      8.300
REMARK  Name = 5280346
REMARK  7 active torsions:
REMARK  status: ('A' for Active; 'I' for Inactive)
REMARK    1  A    between atoms: C_3  and  C_14
REMARK    2  A    between atoms: C_7  and  O_10
REMARK    3  A    between atoms: C_8  and  O_12
REMARK    4  A    between atoms: C_14  and  C_16
REMARK    5  A    between atoms: C_15  and  C_18
REMARK    6  A    between atoms: C_18  and  C_19
REMARK    7  A    between atoms: C_19  and  C_20
REMARK                            x       y       z     vdW  Elec       q    Type
REMARK                         _______ _______ _______ _____ _____    ______ ____
ROOT
ATOM      1  O   UNL     1      32.401 -21.400 -20.249  0.00  0.00    -0.284 OA
ATOM      2  O   UNL     1      37.157 -21.912 -17.921  0.00  0.00    -0.284 OA
ATOM      3  C   UNL     1      34.679 -20.712 -20.209  0.00  0.00    +0.024 C 
ATOM      4  C   UNL     1      35.878 -20.828 -19.609  0.00  0.00    +0.020 C 
ATOM      5  C   UNL     1      33.508 -21.508 -19.729  0.00  0.00    +0.229 C 
ATOM      6  C   UNL     1      36.065 -21.776 -18.468  0.00  0.00    +0.228 C 
ATOM      7  C   UNL     1      33.709 -22.438 -18.596  0.00  0.00    +0.214 C 
ATOM      8  C   UNL     1      34.901 -22.563 -18.008  0.00  0.00    +0.214 C 
ATOM      9  C   UNL     1      37.110 -20.047 -19.975  0.00  0.00    +0.034 C 
ENDROOT
BRANCH   7  10
ATOM     10  O   UNL     1      32.623 -23.175 -18.162  0.00  0.00    -0.465 OA
ATOM     11  C   UNL     1      32.018 -22.560 -17.042  0.00  0.00    +0.253 C 
ENDBRANCH   7  10
BRANCH   8  12
ATOM     12  O   UNL     1      35.118 -23.423 -16.951  0.00  0.00    -0.465 OA
ATOM     13  C   UNL     1      35.313 -22.702 -15.750  0.00  0.00    +0.253 C 
ENDBRANCH   8  12
BRANCH   3  14
ATOM     14  C   UNL     1      34.385 -19.833 -21.381  0.00  0.00    +0.055 C 
BRANCH  14  16
ATOM     15  C   UNL     1      34.617 -17.284 -21.505  0.00  0.00    -0.048 C 
ATOM     16  C   UNL     1      34.122 -18.415 -20.964  0.00  0.00    -0.030 C 
ATOM     17  C   UNL     1      35.561 -17.363 -22.679  0.00  0.00    +0.026 C 
BRANCH  15  18
ATOM     18  C   UNL     1      34.270 -15.881 -21.053  0.00  0.00    +0.026 C 
BRANCH  18  19
ATOM     19  C   UNL     1      32.767 -15.642 -20.862  0.00  0.00    +0.030 C 
BRANCH  19  20
ATOM     20  C   UNL     1      32.404 -14.183 -20.878  0.00  0.00    -0.034 C 
ATOM     21  C   UNL     1      32.285 -13.368 -21.943  0.00  0.00    -0.048 C 
ATOM     22  C   UNL     1      31.889 -11.926 -21.757  0.00  0.00    +0.026 C 
ATOM     23  C   UNL     1      32.529 -13.761 -23.372  0.00  0.00    +0.026 C 
ENDBRANCH  19  20
ENDBRANCH  18  19
ENDBRANCH  15  18
ENDBRANCH  14  16
ENDBRANCH   3  14
TORSDOF 7
ENDMDL
MODEL 9
REMARK VINA RESULT:      -8.7      3.924      9.257
REMARK  Name = 5280346
REMARK  7 active torsions:
REMARK  status: ('A' for Active; 'I' for Inactive)
REMARK    1  A    between atoms: C_3  and  C_14
REMARK    2  A    between atoms: C_7  and  O_10
REMARK    3  A    between atoms: C_8  and  O_12
REMARK    4  A    between atoms: C_14  and  C_16
REMARK    5  A    between atoms: C_15  and  C_18
REMARK    6  A    between atoms: C_18  and  C_19
REMARK    7  A    between atoms: C_19  and  C_20
REMARK                            x       y       z     vdW  Elec       q    Type
REMARK                         _______ _______ _______ _____ _____    ______ ____
ROOT
ATOM      1  O   UNL     1      33.914 -14.331 -21.581  0.00  0.00    -0.284 OA
ATOM      2  O   UNL     1      34.551 -17.178 -26.031  0.00  0.00    -0.284 OA
ATOM      3  C   UNL     1      33.476 -14.497 -23.915  0.00  0.00    +0.024 C 
ATOM      4  C   UNL     1      33.653 -15.208 -25.044  0.00  0.00    +0.020 C 
ATOM      5  C   UNL     1      34.045 -14.977 -22.618  0.00  0.00    +0.229 C 
ATOM      6  C   UNL     1      34.398 -16.504 -25.015  0.00  0.00    +0.228 C 
ATOM      7  C   UNL     1      34.784 -16.259 -22.607  0.00  0.00    +0.214 C 
ATOM      8  C   UNL     1      34.948 -16.971 -23.724  0.00  0.00    +0.214 C 
ATOM      9  C   UNL     1      33.167 -14.803 -26.409  0.00  0.00    +0.034 C 
ENDROOT
BRANCH   7  10
ATOM     10  O   UNL     1      35.301 -16.698 -21.403  0.00  0.00    -0.465 OA
ATOM     11  C   UNL     1      34.419 -17.613 -20.784  0.00  0.00    +0.253 C 
ENDBRANCH   7  10
BRANCH   8  12
ATOM     12  O   UNL     1      35.630 -18.170 -23.743  0.00  0.00    -0.465 OA
ATOM     13  C   UNL     1      34.728 -19.260 -23.761  0.00  0.00    +0.253 C 
ENDBRANCH   8  12
BRANCH   3  14
ATOM     14  C   UNL     1      32.716 -13.216 -23.815  0.00  0.00    +0.055 C 
BRANCH  14  16
ATOM     15  C   UNL     1      34.177 -11.267 -24.613  0.00  0.00    -0.048 C 
ATOM     16  C   UNL     1      33.628 -12.034 -23.650  0.00  0.00    -0.030 C 
ATOM     17  C   UNL     1      33.891 -11.563 -26.064  0.00  0.00    +0.026 C 
BRANCH  15  18
ATOM     18  C   UNL     1      35.059 -10.062 -24.365  0.00  0.00    +0.026 C 
BRANCH  18  19
ATOM     19  C   UNL     1      34.307  -8.724 -24.388  0.00  0.00    +0.030 C 
BRANCH  19  20
ATOM     20  C   UNL     1      33.996  -8.209 -23.010  0.00  0.00    -0.034 C 
ATOM     21  C   UNL     1      32.857  -8.349 -22.307  0.00  0.00    -0.048 C 
ATOM     22  C   UNL     1      32.744  -7.773 -20.919  0.00  0.00    +0.026 C 
ATOM     23  C   UNL     1      31.618  -9.047 -22.789  0.00  0.00    +0.026 C 
ENDBRANCH  19  20
ENDBRANCH  18  19
ENDBRANCH  15  18
ENDBRANCH  14  16
ENDBRANCH   3  14
TORSDOF 7
ENDMDL
