MODEL 1
REMARK VINA RESULT:      -9.1      0.000      0.000
REMARK  Name = 11281011
REMARK  12 active torsions:
REMARK  status: ('A' for Active; 'I' for Inactive)
REMARK    1  A    between atoms: N_2  and  C_16
REMARK    2  A    between atoms: C_3  and  O_5
REMARK    3  A    between atoms: O_5  and  C_6
REMARK    4  A    between atoms: C_6  and  C_7
REMARK    5  A    between atoms: C_6  and  O_10
REMARK    6  A    between atoms: O_10  and  C_12
REMARK    7  A    between atoms: C_12  and  C_13
REMARK    8  A    between atoms: C_16  and  C_17
REMARK    9  A    between atoms: C_17  and  C_19
REMARK   10  A    between atoms: C_17  and  C_25
REMARK   11  A    between atoms: C_25  and  C_27
REMARK   12  A    between atoms: C_27  and  O_28
REMARK                            x       y       z     vdW  Elec       q    Type
REMARK                         _______ _______ _______ _____ _____    ______ ____
ROOT
ATOM      1  O   UNL     1      34.968 -14.709 -20.262  0.00  0.00    -0.226 OA
ATOM      2  N   UNL     1      34.098 -16.576 -21.327  0.00  0.00    -0.270 N 
ATOM      3  C   UNL     1      34.039 -15.306 -20.795  0.00  0.00    +0.404 C 
ATOM      4  H   UNL     1      33.283 -16.951 -21.732  0.00  0.00    +0.153 HD
ENDROOT
BRANCH   3   5
ATOM      5  O   UNL     1      32.780 -14.801 -20.951  0.00  0.00    -0.399 OA
BRANCH   5   6
ATOM      6  C   UNL     1      32.515 -14.066 -22.168  0.00  0.00    +0.345 C 
BRANCH   6   7
ATOM      7  C   UNL     1      31.834 -12.729 -21.804  0.00  0.00    +0.085 C 
ATOM      8  C   UNL     1      31.944 -12.447 -20.304  0.00  0.00    +0.008 C 
ATOM      9  C   UNL     1      32.415 -11.553 -22.596  0.00  0.00    +0.008 C 
ENDBRANCH   6   7
BRANCH   6  10
ATOM     10  O   UNL     1      33.743 -13.806 -22.881  0.00  0.00    -0.414 OA
BRANCH  10  12
ATOM     11  O   UNL     1      34.769 -15.432 -24.156  0.00  0.00    -0.250 OA
ATOM     12  C   UNL     1      33.969 -14.515 -24.025  0.00  0.00    +0.319 C 
BRANCH  12  13
ATOM     13  C   UNL     1      33.058 -13.996 -25.125  0.00  0.00    +0.099 C 
ATOM     14  C   UNL     1      33.603 -12.698 -25.713  0.00  0.00    +0.012 C 
ATOM     15  C   UNL     1      32.901 -15.061 -26.205  0.00  0.00    +0.012 C 
ENDBRANCH  12  13
ENDBRANCH  10  12
ENDBRANCH   6  10
ENDBRANCH   5   6
ENDBRANCH   3   5
BRANCH   2  16
ATOM     16  C   UNL     1      35.294 -17.386 -21.322  0.00  0.00    +0.098 C 
BRANCH  16  17
ATOM     17  C   UNL     1      35.115 -18.730 -22.055  0.00  0.00    +0.053 C 
BRANCH  17  19
ATOM     18 CL   UNL     1      33.620 -22.996 -18.107  0.00  0.00    -0.082 Cl
ATOM     19  C   UNL     1      34.736 -19.812 -21.052  0.00  0.00    -0.020 C 
ATOM     20  C   UNL     1      35.739 -20.549 -20.458  0.00  0.00    -0.003 C 
ATOM     21  C   UNL     1      33.402 -20.021 -20.772  0.00  0.00    -0.003 C 
ATOM     22  C   UNL     1      35.391 -21.540 -19.540  0.00  0.00    +0.011 C 
ATOM     23  C   UNL     1      33.054 -21.013 -19.854  0.00  0.00    +0.011 C 
ATOM     24  C   UNL     1      34.049 -21.772 -19.238  0.00  0.00    +0.058 C 
ENDBRANCH  17  19
BRANCH  17  25
ATOM     25  C   UNL     1      34.063 -18.655 -23.184  0.00  0.00    +0.115 C 
BRANCH  25  27
ATOM     26  O   UNL     1      35.015 -20.146 -24.861  0.00  0.00    -0.250 OA
ATOM     27  C   UNL     1      34.603 -19.038 -24.547  0.00  0.00    +0.314 C 
BRANCH  27  28
ATOM     28  O   UNL     1      34.623 -17.976 -25.394  0.00  0.00    -0.480 OA
ATOM     29  H   UNL     1      35.273 -17.310 -25.295  0.00  0.00    +0.295 HD
ENDBRANCH  27  28
ENDBRANCH  25  27
ENDBRANCH  17  25
ENDBRANCH  16  17
ENDBRANCH   2  16
TORSDOF 12
ENDMDL
MODEL 2
REMARK VINA RESULT:      -9.0      3.480      7.695
REMARK  Name = 11281011
REMARK  12 active torsions:
REMARK  status: ('A' for Active; 'I' for Inactive)
REMARK    1  A    between atoms: N_2  and  C_16
REMARK    2  A    between atoms: C_3  and  O_5
REMARK    3  A    between atoms: O_5  and  C_6
REMARK    4  A    between atoms: C_6  and  C_7
REMARK    5  A    between atoms: C_6  and  O_10
REMARK    6  A    between atoms: O_10  and  C_12
REMARK    7  A    between atoms: C_12  and  C_13
REMARK    8  A    between atoms: C_16  and  C_17
REMARK    9  A    between atoms: C_17  and  C_19
REMARK   10  A    between atoms: C_17  and  C_25
REMARK   11  A    between atoms: C_25  and  C_27
REMARK   12  A    between atoms: C_27  and  O_28
REMARK                            x       y       z     vdW  Elec       q    Type
REMARK                         _______ _______ _______ _____ _____    ______ ____
ROOT
ATOM      1  O   UNL     1      34.940 -14.613 -20.219  0.00  0.00    -0.226 OA
ATOM      2  N   UNL     1      33.496 -15.889 -21.510  0.00  0.00    -0.270 N 
ATOM      3  C   UNL     1      34.607 -15.682 -20.720  0.00  0.00    +0.404 C 
ATOM      4  H   UNL     1      33.330 -16.796 -21.854  0.00  0.00    +0.153 HD
ENDROOT
BRANCH   3   5
ATOM      5  O   UNL     1      35.289 -16.855 -20.570  0.00  0.00    -0.399 OA
BRANCH   5   6
ATOM      6  C   UNL     1      34.790 -18.000 -21.299  0.00  0.00    +0.345 C 
BRANCH   6   7
ATOM      7  C   UNL     1      35.589 -18.142 -22.612  0.00  0.00    +0.085 C 
ATOM      8  C   UNL     1      37.006 -18.650 -22.341  0.00  0.00    +0.008 C 
ATOM      9  C   UNL     1      34.890 -19.066 -23.615  0.00  0.00    +0.008 C 
ENDBRANCH   6   7
BRANCH   6  10
ATOM     10  O   UNL     1      34.933 -19.203 -20.513  0.00  0.00    -0.414 OA
BRANCH  10  12
ATOM     11  O   UNL     1      32.709 -19.771 -20.748  0.00  0.00    -0.250 OA
ATOM     12  C   UNL     1      33.865 -20.052 -20.460  0.00  0.00    +0.319 C 
BRANCH  12  13
ATOM     13  C   UNL     1      34.334 -21.421 -19.997  0.00  0.00    +0.099 C 
ATOM     14  C   UNL     1      35.762 -21.353 -19.466  0.00  0.00    +0.012 C 
ATOM     15  C   UNL     1      33.381 -21.958 -18.935  0.00  0.00    +0.012 C 
ENDBRANCH  12  13
ENDBRANCH  10  12
ENDBRANCH   6  10
ENDBRANCH   5   6
ENDBRANCH   3   5
BRANCH   2  16
ATOM     16  C   UNL     1      32.562 -14.844 -21.858  0.00  0.00    +0.098 C 
BRANCH  16  17
ATOM     17  C   UNL     1      32.739 -14.334 -23.302  0.00  0.00    +0.053 C 
BRANCH  17  19
ATOM     18 CL   UNL     1      33.130  -8.345 -23.292  0.00  0.00    -0.082 Cl
ATOM     19  C   UNL     1      32.839 -12.814 -23.299  0.00  0.00    -0.020 C 
ATOM     20  C   UNL     1      32.018 -12.095 -22.455  0.00  0.00    -0.003 C 
ATOM     21  C   UNL     1      33.746 -12.205 -24.140  0.00  0.00    -0.003 C 
ATOM     22  C   UNL     1      32.110 -10.704 -22.453  0.00  0.00    +0.011 C 
ATOM     23  C   UNL     1      33.837 -10.813 -24.139  0.00  0.00    +0.011 C 
ATOM     24  C   UNL     1      33.019 -10.063 -23.295  0.00  0.00    +0.058 C 
ENDBRANCH  17  19
BRANCH  17  25
ATOM     25  C   UNL     1      33.972 -14.949 -24.002  0.00  0.00    +0.115 C 
BRANCH  25  27
ATOM     26  O   UNL     1      34.299 -16.463 -25.884  0.00  0.00    -0.250 OA
ATOM     27  C   UNL     1      33.664 -15.564 -25.352  0.00  0.00    +0.314 C 
BRANCH  27  28
ATOM     28  O   UNL     1      32.601 -14.960 -25.946  0.00  0.00    -0.480 OA
ATOM     29  H   UNL     1      31.860 -14.706 -25.433  0.00  0.00    +0.295 HD
ENDBRANCH  27  28
ENDBRANCH  25  27
ENDBRANCH  17  25
ENDBRANCH  16  17
ENDBRANCH   2  16
TORSDOF 12
ENDMDL
MODEL 3
REMARK VINA RESULT:      -9.0      1.081      2.896
REMARK  Name = 11281011
REMARK  12 active torsions:
REMARK  status: ('A' for Active; 'I' for Inactive)
REMARK    1  A    between atoms: N_2  and  C_16
REMARK    2  A    between atoms: C_3  and  O_5
REMARK    3  A    between atoms: O_5  and  C_6
REMARK    4  A    between atoms: C_6  and  C_7
REMARK    5  A    between atoms: C_6  and  O_10
REMARK    6  A    between atoms: O_10  and  C_12
REMARK    7  A    between atoms: C_12  and  C_13
REMARK    8  A    between atoms: C_16  and  C_17
REMARK    9  A    between atoms: C_17  and  C_19
REMARK   10  A    between atoms: C_17  and  C_25
REMARK   11  A    between atoms: C_25  and  C_27
REMARK   12  A    between atoms: C_27  and  O_28
REMARK                            x       y       z     vdW  Elec       q    Type
REMARK                         _______ _______ _______ _____ _____    ______ ____
ROOT
ATOM      1  O   UNL     1      34.887 -14.974 -20.599  0.00  0.00    -0.226 OA
ATOM      2  N   UNL     1      34.318 -16.888 -21.778  0.00  0.00    -0.270 N 
ATOM      3  C   UNL     1      34.214 -15.555 -21.445  0.00  0.00    +0.404 C 
ATOM      4  H   UNL     1      33.722 -17.243 -22.478  0.00  0.00    +0.153 HD
ENDROOT
BRANCH   3   5
ATOM      5  O   UNL     1      33.244 -14.966 -22.204  0.00  0.00    -0.399 OA
BRANCH   5   6
ATOM      6  C   UNL     1      33.400 -13.557 -22.489  0.00  0.00    +0.345 C 
BRANCH   6   7
ATOM      7  C   UNL     1      33.839 -13.392 -23.961  0.00  0.00    +0.085 C 
ATOM      8  C   UNL     1      32.966 -14.234 -24.892  0.00  0.00    +0.008 C 
ATOM      9  C   UNL     1      33.813 -11.927 -24.409  0.00  0.00    +0.008 C 
ENDBRANCH   6   7
BRANCH   6  10
ATOM     10  O   UNL     1      32.157 -12.855 -22.274  0.00  0.00    -0.414 OA
BRANCH  10  12
ATOM     11  O   UNL     1      32.256 -13.033 -19.976  0.00  0.00    -0.250 OA
ATOM     12  C   UNL     1      31.855 -12.486 -20.994  0.00  0.00    +0.319 C 
BRANCH  12  13
ATOM     13  C   UNL     1      30.946 -11.270 -21.024  0.00  0.00    +0.099 C 
ATOM     14  C   UNL     1      30.975 -10.539 -19.685  0.00  0.00    +0.012 C 
ATOM     15  C   UNL     1      31.363 -10.344 -22.160  0.00  0.00    +0.012 C 
ENDBRANCH  12  13
ENDBRANCH  10  12
ENDBRANCH   6  10
ENDBRANCH   5   6
ENDBRANCH   3   5
BRANCH   2  16
ATOM     16  C   UNL     1      35.255 -17.793 -21.155  0.00  0.00    +0.098 C 
BRANCH  16  17
ATOM     17  C   UNL     1      35.217 -19.211 -21.759  0.00  0.00    +0.053 C 
BRANCH  17  19
ATOM     18 CL   UNL     1      33.873 -23.193 -17.475  0.00  0.00    -0.082 Cl
ATOM     19  C   UNL     1      34.876 -20.221 -20.671  0.00  0.00    -0.020 C 
ATOM     20  C   UNL     1      35.904 -20.881 -20.030  0.00  0.00    -0.003 C 
ATOM     21  C   UNL     1      33.550 -20.444 -20.362  0.00  0.00    -0.003 C 
ATOM     22  C   UNL     1      35.590 -21.806 -19.035  0.00  0.00    +0.011 C 
ATOM     23  C   UNL     1      33.237 -21.370 -19.366  0.00  0.00    +0.011 C 
ATOM     24  C   UNL     1      34.258 -22.050 -18.703  0.00  0.00    +0.058 C 
ENDBRANCH  17  19
BRANCH  17  25
ATOM     25  C   UNL     1      34.217 -19.331 -22.931  0.00  0.00    +0.115 C 
BRANCH  25  27
ATOM     26  O   UNL     1      35.048 -17.880 -24.705  0.00  0.00    -0.250 OA
ATOM     27  C   UNL     1      34.820 -19.005 -24.282  0.00  0.00    +0.314 C 
BRANCH  27  28
ATOM     28  O   UNL     1      35.044 -20.128 -25.015  0.00  0.00    -0.480 OA
ATOM     29  H   UNL     1      34.802 -20.966 -24.673  0.00  0.00    +0.295 HD
ENDBRANCH  27  28
ENDBRANCH  25  27
ENDBRANCH  17  25
ENDBRANCH  16  17
ENDBRANCH   2  16
TORSDOF 12
ENDMDL
MODEL 4
REMARK VINA RESULT:      -9.0      1.600      3.293
REMARK  Name = 11281011
REMARK  12 active torsions:
REMARK  status: ('A' for Active; 'I' for Inactive)
REMARK    1  A    between atoms: N_2  and  C_16
REMARK    2  A    between atoms: C_3  and  O_5
REMARK    3  A    between atoms: O_5  and  C_6
REMARK    4  A    between atoms: C_6  and  C_7
REMARK    5  A    between atoms: C_6  and  O_10
REMARK    6  A    between atoms: O_10  and  C_12
REMARK    7  A    between atoms: C_12  and  C_13
REMARK    8  A    between atoms: C_16  and  C_17
REMARK    9  A    between atoms: C_17  and  C_19
REMARK   10  A    between atoms: C_17  and  C_25
REMARK   11  A    between atoms: C_25  and  C_27
REMARK   12  A    between atoms: C_27  and  O_28
REMARK                            x       y       z     vdW  Elec       q    Type
REMARK                         _______ _______ _______ _____ _____    ______ ____
ROOT
ATOM      1  O   UNL     1      32.779 -14.667 -20.106  0.00  0.00    -0.226 OA
ATOM      2  N   UNL     1      33.711 -15.821 -21.889  0.00  0.00    -0.270 N 
ATOM      3  C   UNL     1      32.906 -14.863 -21.310  0.00  0.00    +0.404 C 
ATOM      4  H   UNL     1      33.732 -15.882 -22.871  0.00  0.00    +0.153 HD
ENDROOT
BRANCH   3   5
ATOM      5  O   UNL     1      32.266 -14.152 -22.284  0.00  0.00    -0.399 OA
BRANCH   5   6
ATOM      6  C   UNL     1      32.814 -12.856 -22.617  0.00  0.00    +0.345 C 
BRANCH   6   7
ATOM      7  C   UNL     1      33.656 -12.987 -23.904  0.00  0.00    +0.085 C 
ATOM      8  C   UNL     1      33.011 -13.967 -24.885  0.00  0.00    +0.008 C 
ATOM      9  C   UNL     1      33.873 -11.634 -24.590  0.00  0.00    +0.008 C 
ENDBRANCH   6   7
BRANCH   6  10
ATOM     10  O   UNL     1      31.755 -11.896 -22.827  0.00  0.00    -0.414 OA
BRANCH  10  12
ATOM     11  O   UNL     1      30.624 -11.438 -20.868  0.00  0.00    -0.250 OA
ATOM     12  C   UNL     1      31.392 -11.117 -21.766  0.00  0.00    +0.319 C 
BRANCH  12  13
ATOM     13  C   UNL     1      32.102  -9.778 -21.861  0.00  0.00    +0.099 C 
ATOM     14  C   UNL     1      31.494  -8.919 -22.966  0.00  0.00    +0.012 C 
ATOM     15  C   UNL     1      32.033  -9.064 -20.515  0.00  0.00    +0.012 C 
ENDBRANCH  12  13
ENDBRANCH  10  12
ENDBRANCH   6  10
ENDBRANCH   5   6
ENDBRANCH   3   5
BRANCH   2  16
ATOM     16  C   UNL     1      34.525 -16.741 -21.129  0.00  0.00    +0.098 C 
BRANCH  16  17
ATOM     17  C   UNL     1      34.931 -17.991 -21.933  0.00  0.00    +0.053 C 
BRANCH  17  19
ATOM     18 CL   UNL     1      33.879 -22.913 -18.663  0.00  0.00    -0.082 Cl
ATOM     19  C   UNL     1      34.664 -19.241 -21.104  0.00  0.00    -0.020 C 
ATOM     20  C   UNL     1      33.358 -19.594 -20.835  0.00  0.00    -0.003 C 
ATOM     21  C   UNL     1      35.736 -19.979 -20.648  0.00  0.00    -0.003 C 
ATOM     22  C   UNL     1      33.114 -20.738 -20.075  0.00  0.00    +0.011 C 
ATOM     23  C   UNL     1      35.492 -21.123 -19.888  0.00  0.00    +0.011 C 
ATOM     24  C   UNL     1      34.181 -21.503 -19.602  0.00  0.00    +0.058 C 
ENDBRANCH  17  19
BRANCH  17  25
ATOM     25  C   UNL     1      34.203 -18.087 -23.293  0.00  0.00    +0.115 C 
BRANCH  25  27
ATOM     26  O   UNL     1      34.810 -17.608 -25.604  0.00  0.00    -0.250 OA
ATOM     27  C   UNL     1      34.903 -17.346 -24.413  0.00  0.00    +0.314 C 
BRANCH  27  28
ATOM     28  O   UNL     1      35.707 -16.359 -23.935  0.00  0.00    -0.480 OA
ATOM     29  H   UNL     1      35.605 -15.482 -24.245  0.00  0.00    +0.295 HD
ENDBRANCH  27  28
ENDBRANCH  25  27
ENDBRANCH  17  25
ENDBRANCH  16  17
ENDBRANCH   2  16
TORSDOF 12
ENDMDL
MODEL 5
REMARK VINA RESULT:      -8.9      1.141      1.648
REMARK  Name = 11281011
REMARK  12 active torsions:
REMARK  status: ('A' for Active; 'I' for Inactive)
REMARK    1  A    between atoms: N_2  and  C_16
REMARK    2  A    between atoms: C_3  and  O_5
REMARK    3  A    between atoms: O_5  and  C_6
REMARK    4  A    between atoms: C_6  and  C_7
REMARK    5  A    between atoms: C_6  and  O_10
REMARK    6  A    between atoms: O_10  and  C_12
REMARK    7  A    between atoms: C_12  and  C_13
REMARK    8  A    between atoms: C_16  and  C_17
REMARK    9  A    between atoms: C_17  and  C_19
REMARK   10  A    between atoms: C_17  and  C_25
REMARK   11  A    between atoms: C_25  and  C_27
REMARK   12  A    between atoms: C_27  and  O_28
REMARK                            x       y       z     vdW  Elec       q    Type
REMARK                         _______ _______ _______ _____ _____    ______ ____
ROOT
ATOM      1  O   UNL     1      31.972 -15.615 -20.359  0.00  0.00    -0.226 OA
ATOM      2  N   UNL     1      33.641 -15.884 -21.947  0.00  0.00    -0.270 N 
ATOM      3  C   UNL     1      32.822 -15.153 -21.113  0.00  0.00    +0.404 C 
ATOM      4  H   UNL     1      34.289 -15.400 -22.507  0.00  0.00    +0.153 HD
ENDROOT
BRANCH   3   5
ATOM      5  O   UNL     1      33.100 -13.823 -21.248  0.00  0.00    -0.399 OA
BRANCH   5   6
ATOM      6  C   UNL     1      32.408 -13.112 -22.299  0.00  0.00    +0.345 C 
BRANCH   6   7
ATOM      7  C   UNL     1      31.597 -11.958 -21.670  0.00  0.00    +0.085 C 
ATOM      8  C   UNL     1      31.793 -11.912 -20.154  0.00  0.00    +0.008 C 
ATOM      9  C   UNL     1      31.960 -10.600 -22.281  0.00  0.00    +0.008 C 
ENDBRANCH   6   7
BRANCH   6  10
ATOM     10  O   UNL     1      33.349 -12.578 -23.255  0.00  0.00    -0.414 OA
BRANCH  10  12
ATOM     11  O   UNL     1      33.577 -14.433 -24.608  0.00  0.00    -0.250 OA
ATOM     12  C   UNL     1      33.467 -13.224 -24.452  0.00  0.00    +0.319 C 
BRANCH  12  13
ATOM     13  C   UNL     1      33.427 -12.206 -25.578  0.00  0.00    +0.099 C 
ATOM     14  C   UNL     1      34.528 -11.164 -25.407  0.00  0.00    +0.012 C 
ATOM     15  C   UNL     1      33.554 -12.919 -26.919  0.00  0.00    +0.012 C 
ENDBRANCH  12  13
ENDBRANCH  10  12
ENDBRANCH   6  10
ENDBRANCH   5   6
ENDBRANCH   3   5
BRANCH   2  16
ATOM     16  C   UNL     1      33.598 -17.325 -22.041  0.00  0.00    +0.098 C 
BRANCH  16  17
ATOM     17  C   UNL     1      34.937 -17.993 -21.675  0.00  0.00    +0.053 C 
BRANCH  17  19
ATOM     18 CL   UNL     1      33.894 -23.075 -18.656  0.00  0.00    -0.082 Cl
ATOM     19  C   UNL     1      34.672 -19.283 -20.909  0.00  0.00    -0.020 C 
ATOM     20  C   UNL     1      33.367 -19.658 -20.668  0.00  0.00    -0.003 C 
ATOM     21  C   UNL     1      35.746 -20.035 -20.482  0.00  0.00    -0.003 C 
ATOM     22  C   UNL     1      33.126 -20.839 -19.966  0.00  0.00    +0.011 C 
ATOM     23  C   UNL     1      35.504 -21.217 -19.779  0.00  0.00    +0.011 C 
ATOM     24  C   UNL     1      34.194 -21.618 -19.523  0.00  0.00    +0.058 C 
ENDBRANCH  17  19
BRANCH  17  25
ATOM     25  C   UNL     1      35.817 -18.278 -22.913  0.00  0.00    +0.115 C 
BRANCH  25  27
ATOM     26  O   UNL     1      34.487 -18.896 -24.859  0.00  0.00    -0.250 OA
ATOM     27  C   UNL     1      35.108 -18.050 -24.231  0.00  0.00    +0.314 C 
BRANCH  27  28
ATOM     28  O   UNL     1      35.277 -16.777 -24.677  0.00  0.00    -0.480 OA
ATOM     29  H   UNL     1      36.138 -16.414 -24.740  0.00  0.00    +0.295 HD
ENDBRANCH  27  28
ENDBRANCH  25  27
ENDBRANCH  17  25
ENDBRANCH  16  17
ENDBRANCH   2  16
TORSDOF 12
ENDMDL
MODEL 6
REMARK VINA RESULT:      -8.8      3.684      8.097
REMARK  Name = 11281011
REMARK  12 active torsions:
REMARK  status: ('A' for Active; 'I' for Inactive)
REMARK    1  A    between atoms: N_2  and  C_16
REMARK    2  A    between atoms: C_3  and  O_5
REMARK    3  A    between atoms: O_5  and  C_6
REMARK    4  A    between atoms: C_6  and  C_7
REMARK    5  A    between atoms: C_6  and  O_10
REMARK    6  A    between atoms: O_10  and  C_12
REMARK    7  A    between atoms: C_12  and  C_13
REMARK    8  A    between atoms: C_16  and  C_17
REMARK    9  A    between atoms: C_17  and  C_19
REMARK   10  A    between atoms: C_17  and  C_25
REMARK   11  A    between atoms: C_25  and  C_27
REMARK   12  A    between atoms: C_27  and  O_28
REMARK                            x       y       z     vdW  Elec       q    Type
REMARK                         _______ _______ _______ _____ _____    ______ ____
ROOT
ATOM      1  O   UNL     1      37.321 -19.259 -20.669  0.00  0.00    -0.226 OA
ATOM      2  N   UNL     1      35.064 -18.787 -20.918  0.00  0.00    -0.270 N 
ATOM      3  C   UNL     1      36.148 -19.613 -20.707  0.00  0.00    +0.404 C 
ATOM      4  H   UNL     1      34.165 -19.189 -20.926  0.00  0.00    +0.153 HD
ENDROOT
BRANCH   3   5
ATOM      5  O   UNL     1      35.719 -20.899 -20.543  0.00  0.00    -0.399 OA
BRANCH   5   6
ATOM      6  C   UNL     1      35.133 -21.236 -19.265  0.00  0.00    +0.345 C 
BRANCH   6   7
ATOM      7  C   UNL     1      33.717 -21.805 -19.500  0.00  0.00    +0.085 C 
ATOM      8  C   UNL     1      33.254 -22.639 -18.304  0.00  0.00    +0.008 C 
ATOM      9  C   UNL     1      32.694 -20.701 -19.790  0.00  0.00    +0.008 C 
ENDBRANCH   6   7
BRANCH   6  10
ATOM     10  O   UNL     1      35.941 -22.217 -18.579  0.00  0.00    -0.414 OA
BRANCH  10  12
ATOM     11  O   UNL     1      37.219 -20.743 -17.347  0.00  0.00    -0.250 OA
ATOM     12  C   UNL     1      36.625 -21.806 -17.471  0.00  0.00    +0.319 C 
BRANCH  12  13
ATOM     13  C   UNL     1      36.527 -22.874 -16.396  0.00  0.00    +0.099 C 
ATOM     14  C   UNL     1      37.870 -23.065 -15.698  0.00  0.00    +0.012 C 
ATOM     15  C   UNL     1      35.441 -22.497 -15.395  0.00  0.00    +0.012 C 
ENDBRANCH  12  13
ENDBRANCH  10  12
ENDBRANCH   6  10
ENDBRANCH   5   6
ENDBRANCH   3   5
BRANCH   2  16
ATOM     16  C   UNL     1      35.179 -17.363 -21.128  0.00  0.00    +0.098 C 
BRANCH  16  17
ATOM     17  C   UNL     1      34.389 -16.869 -22.355  0.00  0.00    +0.053 C 
BRANCH  17  19
ATOM     18 CL   UNL     1      31.421 -11.845 -20.946  0.00  0.00    -0.082 Cl
ATOM     19  C   UNL     1      33.635 -15.594 -21.998  0.00  0.00    -0.020 C 
ATOM     20  C   UNL     1      33.248 -14.743 -23.012  0.00  0.00    -0.003 C 
ATOM     21  C   UNL     1      33.364 -15.331 -20.671  0.00  0.00    -0.003 C 
ATOM     22  C   UNL     1      32.558 -13.577 -22.684  0.00  0.00    +0.011 C 
ATOM     23  C   UNL     1      32.675 -14.163 -20.343  0.00  0.00    +0.011 C 
ATOM     24  C   UNL     1      32.271 -13.286 -21.350  0.00  0.00    +0.058 C 
ENDBRANCH  17  19
BRANCH  17  25
ATOM     25  C   UNL     1      35.291 -16.628 -23.586  0.00  0.00    +0.115 C 
BRANCH  25  27
ATOM     26  O   UNL     1      34.653 -16.844 -25.928  0.00  0.00    -0.250 OA
ATOM     27  C   UNL     1      34.831 -17.356 -24.832  0.00  0.00    +0.314 C 
BRANCH  27  28
ATOM     28  O   UNL     1      34.586 -18.669 -24.583  0.00  0.00    -0.480 OA
ATOM     29  H   UNL     1      34.220 -19.213 -25.252  0.00  0.00    +0.295 HD
ENDBRANCH  27  28
ENDBRANCH  25  27
ENDBRANCH  17  25
ENDBRANCH  16  17
ENDBRANCH   2  16
TORSDOF 12
ENDMDL
MODEL 7
REMARK VINA RESULT:      -8.8      5.590     10.101
REMARK  Name = 11281011
REMARK  12 active torsions:
REMARK  status: ('A' for Active; 'I' for Inactive)
REMARK    1  A    between atoms: N_2  and  C_16
REMARK    2  A    between atoms: C_3  and  O_5
REMARK    3  A    between atoms: O_5  and  C_6
REMARK    4  A    between atoms: C_6  and  C_7
REMARK    5  A    between atoms: C_6  and  O_10
REMARK    6  A    between atoms: O_10  and  C_12
REMARK    7  A    between atoms: C_12  and  C_13
REMARK    8  A    between atoms: C_16  and  C_17
REMARK    9  A    between atoms: C_17  and  C_19
REMARK   10  A    between atoms: C_17  and  C_25
REMARK   11  A    between atoms: C_25  and  C_27
REMARK   12  A    between atoms: C_27  and  O_28
REMARK                            x       y       z     vdW  Elec       q    Type
REMARK                         _______ _______ _______ _____ _____    ______ ____
ROOT
ATOM      1  O   UNL     1      30.363 -11.220 -22.013  0.00  0.00    -0.226 OA
ATOM      2  N   UNL     1      32.635 -10.907 -22.359  0.00  0.00    -0.270 N 
ATOM      3  C   UNL     1      31.533 -11.528 -21.811  0.00  0.00    +0.404 C 
ATOM      4  H   UNL     1      33.529 -11.247 -22.123  0.00  0.00    +0.153 HD
ENDROOT
BRANCH   3   5
ATOM      5  O   UNL     1      31.938 -12.552 -21.003  0.00  0.00    -0.399 OA
BRANCH   5   6
ATOM      6  C   UNL     1      32.925 -13.461 -21.541  0.00  0.00    +0.345 C 
BRANCH   6   7
ATOM      7  C   UNL     1      33.145 -14.611 -20.534  0.00  0.00    +0.085 C 
ATOM      8  C   UNL     1      32.217 -15.790 -20.836  0.00  0.00    +0.008 C 
ATOM      9  C   UNL     1      34.601 -15.088 -20.515  0.00  0.00    +0.008 C 
ENDBRANCH   6   7
BRANCH   6  10
ATOM     10  O   UNL     1      32.481 -14.002 -22.804  0.00  0.00    -0.414 OA
BRANCH  10  12
ATOM     11  O   UNL     1      33.974 -12.957 -24.219  0.00  0.00    -0.250 OA
ATOM     12  C   UNL     1      33.351 -13.945 -23.854  0.00  0.00    +0.319 C 
BRANCH  12  13
ATOM     13  C   UNL     1      33.443 -15.315 -24.504  0.00  0.00    +0.099 C 
ATOM     14  C   UNL     1      33.322 -15.205 -26.020  0.00  0.00    +0.012 C 
ATOM     15  C   UNL     1      34.755 -15.984 -24.108  0.00  0.00    +0.012 C 
ENDBRANCH  12  13
ENDBRANCH  10  12
ENDBRANCH   6  10
ENDBRANCH   5   6
ENDBRANCH   3   5
BRANCH   2  16
ATOM     16  C   UNL     1      32.547  -9.784 -23.262  0.00  0.00    +0.098 C 
BRANCH  16  17
ATOM     17  C   UNL     1      32.973  -8.453 -22.612  0.00  0.00    +0.053 C 
BRANCH  17  19
ATOM     18 CL   UNL     1      33.604  -4.250 -26.850  0.00  0.00    -0.082 Cl
ATOM     19  C   UNL     1      33.133  -7.387 -23.688  0.00  0.00    -0.020 C 
ATOM     20  C   UNL     1      34.356  -7.247 -24.310  0.00  0.00    -0.003 C 
ATOM     21  C   UNL     1      32.050  -6.594 -24.006  0.00  0.00    -0.003 C 
ATOM     22  C   UNL     1      34.502  -6.271 -25.295  0.00  0.00    +0.011 C 
ATOM     23  C   UNL     1      32.196  -5.617 -24.991  0.00  0.00    +0.011 C 
ATOM     24  C   UNL     1      33.422  -5.456 -25.636  0.00  0.00    +0.058 C 
ENDBRANCH  17  19
BRANCH  17  25
ATOM     25  C   UNL     1      31.978  -7.975 -21.531  0.00  0.00    +0.115 C 
BRANCH  25  27
ATOM     26  O   UNL     1      32.979  -6.896 -19.587  0.00  0.00    -0.250 OA
ATOM     27  C   UNL     1      32.573  -7.910 -20.140  0.00  0.00    +0.314 C 
BRANCH  27  28
ATOM     28  O   UNL     1      32.653  -9.142 -19.571  0.00  0.00    -0.480 OA
ATOM     29  H   UNL     1      33.357  -9.716 -19.796  0.00  0.00    +0.295 HD
ENDBRANCH  27  28
ENDBRANCH  25  27
ENDBRANCH  17  25
ENDBRANCH  16  17
ENDBRANCH   2  16
TORSDOF 12
ENDMDL
MODEL 8
REMARK VINA RESULT:      -8.8      1.344      3.239
REMARK  Name = 11281011
REMARK  12 active torsions:
REMARK  status: ('A' for Active; 'I' for Inactive)
REMARK    1  A    between atoms: N_2  and  C_16
REMARK    2  A    between atoms: C_3  and  O_5
REMARK    3  A    between atoms: O_5  and  C_6
REMARK    4  A    between atoms: C_6  and  C_7
REMARK    5  A    between atoms: C_6  and  O_10
REMARK    6  A    between atoms: O_10  and  C_12
REMARK    7  A    between atoms: C_12  and  C_13
REMARK    8  A    between atoms: C_16  and  C_17
REMARK    9  A    between atoms: C_17  and  C_19
REMARK   10  A    between atoms: C_17  and  C_25
REMARK   11  A    between atoms: C_25  and  C_27
REMARK   12  A    between atoms: C_27  and  O_28
REMARK                            x       y       z     vdW  Elec       q    Type
REMARK                         _______ _______ _______ _____ _____    ______ ____
ROOT
ATOM      1  O   UNL     1      33.301 -15.324 -24.689  0.00  0.00    -0.226 OA
ATOM      2  N   UNL     1      34.355 -15.385 -22.624  0.00  0.00    -0.270 N 
ATOM      3  C   UNL     1      33.982 -14.798 -23.815  0.00  0.00    +0.404 C 
ATOM      4  H   UNL     1      34.904 -14.861 -21.997  0.00  0.00    +0.153 HD
ENDROOT
BRANCH   3   5
ATOM      5  O   UNL     1      34.483 -13.530 -23.878  0.00  0.00    -0.399 OA
BRANCH   5   6
ATOM      6  C   UNL     1      33.686 -12.480 -23.285  0.00  0.00    +0.345 C 
BRANCH   6   7
ATOM      7  C   UNL     1      33.433 -11.387 -24.346  0.00  0.00    +0.085 C 
ATOM      8  C   UNL     1      34.163 -10.092 -23.986  0.00  0.00    +0.008 C 
ATOM      9  C   UNL     1      33.845 -11.841 -25.750  0.00  0.00    +0.008 C 
ENDBRANCH   6   7
BRANCH   6  10
ATOM     10  O   UNL     1      32.424 -13.003 -22.818  0.00  0.00    -0.414 OA
BRANCH  10  12
ATOM     11  O   UNL     1      32.213 -13.897 -20.701  0.00  0.00    -0.250 OA
ATOM     12  C   UNL     1      32.178 -12.950 -21.476  0.00  0.00    +0.319 C 
BRANCH  12  13
ATOM     13  C   UNL     1      31.862 -11.518 -21.080  0.00  0.00    +0.099 C 
ATOM     14  C   UNL     1      30.679 -10.982 -21.881  0.00  0.00    +0.012 C 
ATOM     15  C   UNL     1      31.582 -11.450 -19.583  0.00  0.00    +0.012 C 
ENDBRANCH  12  13
ENDBRANCH  10  12
ENDBRANCH   6  10
ENDBRANCH   5   6
ENDBRANCH   3   5
BRANCH   2  16
ATOM     16  C   UNL     1      33.984 -16.729 -22.249  0.00  0.00    +0.098 C 
BRANCH  16  17
ATOM     17  C   UNL     1      35.196 -17.666 -22.085  0.00  0.00    +0.053 C 
BRANCH  17  19
ATOM     18 CL   UNL     1      33.586 -22.504 -18.919  0.00  0.00    -0.082 Cl
ATOM     19  C   UNL     1      34.787 -18.894 -21.282  0.00  0.00    -0.020 C 
ATOM     20  C   UNL     1      33.447 -19.124 -21.053  0.00  0.00    -0.003 C 
ATOM     21  C   UNL     1      35.771 -19.738 -20.809  0.00  0.00    -0.003 C 
ATOM     22  C   UNL     1      33.074 -20.248 -20.317  0.00  0.00    +0.011 C 
ATOM     23  C   UNL     1      35.397 -20.862 -20.073  0.00  0.00    +0.011 C 
ATOM     24  C   UNL     1      34.049 -21.118 -19.827  0.00  0.00    +0.058 C 
ENDBRANCH  17  19
BRANCH  17  25
ATOM     25  C   UNL     1      35.806 -18.092 -23.439  0.00  0.00    +0.115 C 
BRANCH  25  27
ATOM     26  O   UNL     1      34.063 -19.480 -24.428  0.00  0.00    -0.250 OA
ATOM     27  C   UNL     1      34.775 -18.486 -24.476  0.00  0.00    +0.314 C 
BRANCH  27  28
ATOM     28  O   UNL     1      34.756 -17.615 -25.519  0.00  0.00    -0.480 OA
ATOM     29  H   UNL     1      34.138 -17.730 -26.214  0.00  0.00    +0.295 HD
ENDBRANCH  27  28
ENDBRANCH  25  27
ENDBRANCH  17  25
ENDBRANCH  16  17
ENDBRANCH   2  16
TORSDOF 12
ENDMDL
MODEL 9
REMARK VINA RESULT:      -8.6      5.630     10.207
REMARK  Name = 11281011
REMARK  12 active torsions:
REMARK  status: ('A' for Active; 'I' for Inactive)
REMARK    1  A    between atoms: N_2  and  C_16
REMARK    2  A    between atoms: C_3  and  O_5
REMARK    3  A    between atoms: O_5  and  C_6
REMARK    4  A    between atoms: C_6  and  C_7
REMARK    5  A    between atoms: C_6  and  O_10
REMARK    6  A    between atoms: O_10  and  C_12
REMARK    7  A    between atoms: C_12  and  C_13
REMARK    8  A    between atoms: C_16  and  C_17
REMARK    9  A    between atoms: C_17  and  C_19
REMARK   10  A    between atoms: C_17  and  C_25
REMARK   11  A    between atoms: C_25  and  C_27
REMARK   12  A    between atoms: C_27  and  O_28
REMARK                            x       y       z     vdW  Elec       q    Type
REMARK                         _______ _______ _______ _____ _____    ______ ____
ROOT
ATOM      1  O   UNL     1      34.241 -11.890 -24.686  0.00  0.00    -0.226 OA
ATOM      2  N   UNL     1      32.996 -10.572 -23.241  0.00  0.00    -0.270 N 
ATOM      3  C   UNL     1      33.343 -11.752 -23.863  0.00  0.00    +0.404 C 
ATOM      4  H   UNL     1      32.255 -10.585 -22.593  0.00  0.00    +0.153 HD
ENDROOT
BRANCH   3   5
ATOM      5  O   UNL     1      32.533 -12.759 -23.420  0.00  0.00    -0.399 OA
BRANCH   5   6
ATOM      6  C   UNL     1      33.165 -13.838 -22.696  0.00  0.00    +0.345 C 
BRANCH   6   7
ATOM      7  C   UNL     1      32.389 -14.080 -21.384  0.00  0.00    +0.085 C 
ATOM      8  C   UNL     1      33.163 -15.013 -20.451  0.00  0.00    +0.008 C 
ATOM      9  C   UNL     1      32.066 -12.770 -20.656  0.00  0.00    +0.008 C 
ENDBRANCH   6   7
BRANCH   6  10
ATOM     10  O   UNL     1      33.167 -15.046 -23.487  0.00  0.00    -0.414 OA
BRANCH  10  12
ATOM     11  O   UNL     1      35.342 -15.682 -23.052  0.00  0.00    -0.250 OA
ATOM     12  C   UNL     1      34.379 -15.592 -23.801  0.00  0.00    +0.319 C 
BRANCH  12  13
ATOM     13  C   UNL     1      34.349 -16.088 -25.237  0.00  0.00    +0.099 C 
ATOM     14  C   UNL     1      34.290 -17.611 -25.282  0.00  0.00    +0.012 C 
ATOM     15  C   UNL     1      33.160 -15.474 -25.967  0.00  0.00    +0.012 C 
ENDBRANCH  12  13
ENDBRANCH  10  12
ENDBRANCH   6  10
ENDBRANCH   5   6
ENDBRANCH   3   5
BRANCH   2  16
ATOM     16  C   UNL     1      33.663  -9.315 -23.490  0.00  0.00    +0.098 C 
BRANCH  16  17
ATOM     17  C   UNL     1      33.191  -8.185 -22.554  0.00  0.00    +0.053 C 
BRANCH  17  19
ATOM     18 CL   UNL     1      31.456  -3.460 -25.823  0.00  0.00    -0.082 Cl
ATOM     19  C   UNL     1      32.751  -6.986 -23.383  0.00  0.00    -0.020 C 
ATOM     20  C   UNL     1      31.636  -6.277 -22.988  0.00  0.00    -0.003 C 
ATOM     21  C   UNL     1      33.482  -6.647 -24.503  0.00  0.00    -0.003 C 
ATOM     22  C   UNL     1      31.233  -5.179 -23.748  0.00  0.00    +0.011 C 
ATOM     23  C   UNL     1      33.078  -5.549 -25.264  0.00  0.00    +0.011 C 
ATOM     24  C   UNL     1      31.955  -4.815 -24.885  0.00  0.00    +0.058 C 
ENDBRANCH  17  19
BRANCH  17  25
ATOM     25  C   UNL     1      32.050  -8.632 -21.612  0.00  0.00    +0.115 C 
BRANCH  25  27
ATOM     26  O   UNL     1      32.075  -9.430 -19.310  0.00  0.00    -0.250 OA
ATOM     27  C   UNL     1      32.426  -8.608 -20.145  0.00  0.00    +0.314 C 
BRANCH  27  28
ATOM     28  O   UNL     1      33.180  -7.520 -19.839  0.00  0.00    -0.480 OA
ATOM     29  H   UNL     1      32.765  -6.717 -19.592  0.00  0.00    +0.295 HD
ENDBRANCH  27  28
ENDBRANCH  25  27
ENDBRANCH  17  25
ENDBRANCH  16  17
ENDBRANCH   2  16
TORSDOF 12
ENDMDL
