MODEL 1
REMARK VINA RESULT:      -9.7      0.000      0.000
REMARK  Name = 49866943
REMARK  11 active torsions:
REMARK  status: ('A' for Active; 'I' for Inactive)
REMARK    1  A    between atoms: C_2  and  O_18
REMARK    2  A    between atoms: C_3  and  O_16
REMARK    3  A    between atoms: C_4  and  N_8
REMARK    4  A    between atoms: C_5  and  C_26
REMARK    5  A    between atoms: O_18  and  C_19
REMARK    6  A    between atoms: C_19  and  C_20
REMARK    7  A    between atoms: C_20  and  N_21
REMARK    8  A    between atoms: C_26  and  O_27
REMARK    9  A    between atoms: O_27  and  P_28
REMARK   10  A    between atoms: P_28  and  O_30
REMARK   11  A    between atoms: P_28  and  O_32
REMARK                            x       y       z     vdW  Elec       q    Type
REMARK                         _______ _______ _______ _____ _____    ______ ____
ROOT
ATOM      1  O   UNL     1      37.343 -23.542 -14.318  0.00  0.00    -0.333 OA
ATOM      2  C   UNL     1      35.068 -24.206 -14.303  0.00  0.00    +0.191 C 
ATOM      3  C   UNL     1      35.798 -24.954 -13.207  0.00  0.00    +0.171 C 
ATOM      4  C   UNL     1      36.018 -23.054 -14.586  0.00  0.00    +0.230 C 
ATOM      5  C   UNL     1      37.251 -24.815 -13.640  0.00  0.00    +0.176 C 
ENDROOT
BRANCH   4   8
ATOM      6  O   UNL     1      38.055 -21.596 -15.947  0.00  0.00    -0.252 OA
ATOM      7  O   UNL     1      35.589 -21.428 -19.824  0.00  0.00    -0.270 OA
ATOM      8  N   UNL     1      35.952 -22.611 -15.949  0.00  0.00    -0.217 N 
ATOM      9  N   UNL     1      36.815 -21.520 -17.874  0.00  0.00    -0.236 N 
ATOM     10  C   UNL     1      34.811 -22.902 -16.690  0.00  0.00    +0.071 C 
ATOM     11  C   UNL     1      37.015 -21.890 -16.540  0.00  0.00    +0.315 C 
ATOM     12  C   UNL     1      34.622 -22.546 -17.966  0.00  0.00    +0.047 C 
ATOM     13  C   UNL     1      35.699 -21.785 -18.654  0.00  0.00    +0.250 C 
ATOM     14  C   UNL     1      33.387 -22.873 -18.742  0.00  0.00    +0.037 C 
ATOM     15  H   UNL     1      37.543 -21.018 -18.305  0.00  0.00    +0.159 HD
ENDBRANCH   4   8
BRANCH   3  16
ATOM     16  O   UNL     1      35.644 -24.277 -11.960  0.00  0.00    -0.379 OA
ATOM     17  H   UNL     1      34.806 -24.543 -11.549  0.00  0.00    +0.211 HD
ENDBRANCH   3  16
BRANCH   2  18
ATOM     18  O   UNL     1      33.790 -23.766 -13.892  0.00  0.00    -0.348 OA
BRANCH  18  19
ATOM     19  C   UNL     1      32.784 -24.739 -14.161  0.00  0.00    +0.164 C 
BRANCH  19  20
ATOM     20  C   UNL     1      31.421 -24.198 -13.741  0.00  0.00    +0.129 C 
BRANCH  20  21
ATOM     21  N   UNL     1      30.569 -23.810 -14.925  0.00  0.00    -0.265 N 
ATOM     22  N   UNL     1      29.955 -22.805 -16.808  0.00  0.00    -0.225 NA
ATOM     23  C   UNL     1      29.311 -24.268 -15.201  0.00  0.00    +0.088 C 
ATOM     24  C   UNL     1      30.912 -22.934 -15.916  0.00  0.00    +0.168 C 
ATOM     25  C   UNL     1      28.954 -23.634 -16.368  0.00  0.00    +0.117 C 
ENDBRANCH  20  21
ENDBRANCH  19  20
ENDBRANCH  18  19
ENDBRANCH   2  18
BRANCH   5  26
ATOM     26  C   UNL     1      37.698 -25.901 -14.608  0.00  0.00    +0.186 C 
BRANCH  26  27
ATOM     27  O   UNL     1      38.869 -26.513 -14.097  0.00  0.00    -0.271 OA
BRANCH  27  28
ATOM     28  P   UNL     1      40.306 -25.886 -14.498  0.00  0.00    +0.473 P 
ATOM     29  O   UNL     1      40.616 -24.559 -13.867  0.00  0.00    -0.227 OA
BRANCH  28  30
ATOM     30  O   UNL     1      40.292 -25.896 -16.114  0.00  0.00    -0.303 OA
ATOM     31  H   UNL     1      39.787 -25.133 -16.437  0.00  0.00    +0.222 HD
ENDBRANCH  28  30
BRANCH  28  32
ATOM     32  O   UNL     1      41.337 -27.075 -14.127  0.00  0.00    -0.303 OA
ATOM     33  H   UNL     1      41.336 -27.737 -14.837  0.00  0.00    +0.222 HD
ENDBRANCH  28  32
ENDBRANCH  27  28
ENDBRANCH  26  27
ENDBRANCH   5  26
TORSDOF 11
ENDMDL
MODEL 2
REMARK VINA RESULT:      -9.6      2.548      5.470
REMARK  Name = 49866943
REMARK  11 active torsions:
REMARK  status: ('A' for Active; 'I' for Inactive)
REMARK    1  A    between atoms: C_2  and  O_18
REMARK    2  A    between atoms: C_3  and  O_16
REMARK    3  A    between atoms: C_4  and  N_8
REMARK    4  A    between atoms: C_5  and  C_26
REMARK    5  A    between atoms: O_18  and  C_19
REMARK    6  A    between atoms: C_19  and  C_20
REMARK    7  A    between atoms: C_20  and  N_21
REMARK    8  A    between atoms: C_26  and  O_27
REMARK    9  A    between atoms: O_27  and  P_28
REMARK   10  A    between atoms: P_28  and  O_30
REMARK   11  A    between atoms: P_28  and  O_32
REMARK                            x       y       z     vdW  Elec       q    Type
REMARK                         _______ _______ _______ _____ _____    ______ ____
ROOT
ATOM      1  O   UNL     1      35.632 -24.486 -14.820  0.00  0.00    -0.333 OA
ATOM      2  C   UNL     1      36.407 -22.713 -16.189  0.00  0.00    +0.191 C 
ATOM      3  C   UNL     1      37.519 -23.117 -15.244  0.00  0.00    +0.171 C 
ATOM      4  C   UNL     1      35.492 -23.925 -16.136  0.00  0.00    +0.230 C 
ATOM      5  C   UNL     1      36.759 -23.868 -14.159  0.00  0.00    +0.176 C 
ENDROOT
BRANCH   4   8
ATOM      6  O   UNL     1      34.244 -23.639 -18.683  0.00  0.00    -0.252 OA
ATOM      7  O   UNL     1      30.191 -22.599 -16.777  0.00  0.00    -0.270 OA
ATOM      8  N   UNL     1      34.116 -23.582 -16.353  0.00  0.00    -0.217 N 
ATOM      9  N   UNL     1      32.229 -23.122 -17.719  0.00  0.00    -0.236 N 
ATOM     10  C   UNL     1      33.300 -23.366 -15.246  0.00  0.00    +0.071 C 
ATOM     11  C   UNL     1      33.584 -23.463 -17.658  0.00  0.00    +0.315 C 
ATOM     12  C   UNL     1      32.004 -23.040 -15.309  0.00  0.00    +0.047 C 
ATOM     13  C   UNL     1      31.376 -22.896 -16.650  0.00  0.00    +0.250 C 
ATOM     14  C   UNL     1      31.149 -22.814 -14.104  0.00  0.00    +0.037 C 
ATOM     15  H   UNL     1      31.838 -23.034 -18.619  0.00  0.00    +0.159 HD
ENDBRANCH   4   8
BRANCH   3  16
ATOM     16  O   UNL     1      38.400 -24.041 -15.884  0.00  0.00    -0.379 OA
ATOM     17  H   UNL     1      38.673 -23.685 -16.743  0.00  0.00    +0.211 HD
ENDBRANCH   3  16
BRANCH   2  18
ATOM     18  O   UNL     1      36.881 -22.448 -17.493  0.00  0.00    -0.348 OA
BRANCH  18  19
ATOM     19  C   UNL     1      36.330 -21.245 -18.021  0.00  0.00    +0.164 C 
BRANCH  19  20
ATOM     20  C   UNL     1      36.478 -21.235 -19.539  0.00  0.00    +0.129 C 
BRANCH  20  21
ATOM     21  N   UNL     1      35.435 -20.376 -20.212  0.00  0.00    -0.265 N 
ATOM     22  N   UNL     1      34.553 -18.724 -21.406  0.00  0.00    -0.225 NA
ATOM     23  C   UNL     1      34.083 -20.577 -20.188  0.00  0.00    +0.088 C 
ATOM     24  C   UNL     1      35.669 -19.251 -20.953  0.00  0.00    +0.168 C 
ATOM     25  C   UNL     1      33.561 -19.545 -20.933  0.00  0.00    +0.117 C 
ENDBRANCH  20  21
ENDBRANCH  19  20
ENDBRANCH  18  19
ENDBRANCH   2  18
BRANCH   5  26
ATOM     26  C   UNL     1      36.224 -22.961 -13.060  0.00  0.00    +0.186 C 
BRANCH  26  27
ATOM     27  O   UNL     1      36.606 -23.494 -11.804  0.00  0.00    -0.271 OA
BRANCH  27  28
ATOM     28  P   UNL     1      35.716 -24.688 -11.170  0.00  0.00    +0.473 P 
ATOM     29  O   UNL     1      35.442 -24.562  -9.699  0.00  0.00    -0.227 OA
BRANCH  28  30
ATOM     30  O   UNL     1      36.502 -26.030 -11.613  0.00  0.00    -0.303 OA
ATOM     31  H   UNL     1      36.101 -26.798 -11.176  0.00  0.00    +0.222 HD
ENDBRANCH  28  30
BRANCH  28  32
ATOM     32  O   UNL     1      34.401 -24.700 -12.110  0.00  0.00    -0.303 OA
ATOM     33  H   UNL     1      34.667 -24.628 -13.040  0.00  0.00    +0.222 HD
ENDBRANCH  28  32
ENDBRANCH  27  28
ENDBRANCH  26  27
ENDBRANCH   5  26
TORSDOF 11
ENDMDL
MODEL 3
REMARK VINA RESULT:      -9.1      3.879      7.111
REMARK  Name = 49866943
REMARK  11 active torsions:
REMARK  status: ('A' for Active; 'I' for Inactive)
REMARK    1  A    between atoms: C_2  and  O_18
REMARK    2  A    between atoms: C_3  and  O_16
REMARK    3  A    between atoms: C_4  and  N_8
REMARK    4  A    between atoms: C_5  and  C_26
REMARK    5  A    between atoms: O_18  and  C_19
REMARK    6  A    between atoms: C_19  and  C_20
REMARK    7  A    between atoms: C_20  and  N_21
REMARK    8  A    between atoms: C_26  and  O_27
REMARK    9  A    between atoms: O_27  and  P_28
REMARK   10  A    between atoms: P_28  and  O_30
REMARK   11  A    between atoms: P_28  and  O_32
REMARK                            x       y       z     vdW  Elec       q    Type
REMARK                         _______ _______ _______ _____ _____    ______ ____
ROOT
ATOM      1  O   UNL     1      31.902 -24.043 -16.820  0.00  0.00    -0.333 OA
ATOM      2  C   UNL     1      33.312 -23.542 -14.982  0.00  0.00    +0.191 C 
ATOM      3  C   UNL     1      32.007 -24.100 -14.454  0.00  0.00    +0.171 C 
ATOM      4  C   UNL     1      33.286 -23.995 -16.432  0.00  0.00    +0.230 C 
ATOM      5  C   UNL     1      31.075 -23.911 -15.643  0.00  0.00    +0.176 C 
ENDROOT
BRANCH   4   8
ATOM      6  O   UNL     1      36.074 -23.414 -16.313  0.00  0.00    -0.252 OA
ATOM      7  O   UNL     1      35.795 -20.496 -19.856  0.00  0.00    -0.270 OA
ATOM      8  N   UNL     1      33.983 -23.093 -17.302  0.00  0.00    -0.217 N 
ATOM      9  N   UNL     1      35.920 -21.962 -18.081  0.00  0.00    -0.236 N 
ATOM     10  C   UNL     1      33.264 -22.434 -18.294  0.00  0.00    +0.071 C 
ATOM     11  C   UNL     1      35.372 -22.867 -17.166  0.00  0.00    +0.315 C 
ATOM     12  C   UNL     1      33.791 -21.568 -19.167  0.00  0.00    +0.047 C 
ATOM     13  C   UNL     1      35.249 -21.280 -19.085  0.00  0.00    +0.250 C 
ATOM     14  C   UNL     1      32.997 -20.873 -20.226  0.00  0.00    +0.037 C 
ATOM     15  H   UNL     1      36.887 -21.790 -18.004  0.00  0.00    +0.159 HD
ENDBRANCH   4   8
BRANCH   3  16
ATOM     16  O   UNL     1      32.131 -25.501 -14.210  0.00  0.00    -0.379 OA
ATOM     17  H   UNL     1      32.467 -25.644 -13.312  0.00  0.00    +0.211 HD
ENDBRANCH   3  16
BRANCH   2  18
ATOM     18  O   UNL     1      34.432 -24.038 -14.279  0.00  0.00    -0.348 OA
BRANCH  18  19
ATOM     19  C   UNL     1      34.464 -23.566 -12.935  0.00  0.00    +0.164 C 
BRANCH  19  20
ATOM     20  C   UNL     1      35.203 -24.569 -12.055  0.00  0.00    +0.129 C 
BRANCH  20  21
ATOM     21  N   UNL     1      36.629 -24.782 -12.501  0.00  0.00    -0.265 N 
ATOM     22  N   UNL     1      38.720 -24.311 -13.082  0.00  0.00    -0.225 NA
ATOM     23  C   UNL     1      37.216 -25.982 -12.789  0.00  0.00    +0.088 C 
ATOM     24  C   UNL     1      37.570 -23.809 -12.692  0.00  0.00    +0.168 C 
ATOM     25  C   UNL     1      38.507 -25.665 -13.145  0.00  0.00    +0.117 C 
ENDBRANCH  20  21
ENDBRANCH  19  20
ENDBRANCH  18  19
ENDBRANCH   2  18
BRANCH   5  26
ATOM     26  C   UNL     1      30.415 -22.540 -15.679  0.00  0.00    +0.186 C 
BRANCH  26  27
ATOM     27  O   UNL     1      29.656 -22.432 -16.871  0.00  0.00    -0.271 OA
BRANCH  27  28
ATOM     28  P   UNL     1      28.097 -22.865 -16.836  0.00  0.00    +0.473 P 
ATOM     29  O   UNL     1      27.770 -24.117 -17.596  0.00  0.00    -0.227 OA
BRANCH  28  30
ATOM     30  O   UNL     1      27.318 -21.536 -17.327  0.00  0.00    -0.303 OA
ATOM     31  H   UNL     1      27.312 -21.505 -18.297  0.00  0.00    +0.222 HD
ENDBRANCH  28  30
BRANCH  28  32
ATOM     32  O   UNL     1      27.772 -22.923 -15.253  0.00  0.00    -0.303 OA
ATOM     33  H   UNL     1      26.814 -22.989 -15.121  0.00  0.00    +0.222 HD
ENDBRANCH  28  32
ENDBRANCH  27  28
ENDBRANCH  26  27
ENDBRANCH   5  26
TORSDOF 11
ENDMDL
MODEL 4
REMARK VINA RESULT:      -9.0      3.855      7.181
REMARK  Name = 49866943
REMARK  11 active torsions:
REMARK  status: ('A' for Active; 'I' for Inactive)
REMARK    1  A    between atoms: C_2  and  O_18
REMARK    2  A    between atoms: C_3  and  O_16
REMARK    3  A    between atoms: C_4  and  N_8
REMARK    4  A    between atoms: C_5  and  C_26
REMARK    5  A    between atoms: O_18  and  C_19
REMARK    6  A    between atoms: C_19  and  C_20
REMARK    7  A    between atoms: C_20  and  N_21
REMARK    8  A    between atoms: C_26  and  O_27
REMARK    9  A    between atoms: O_27  and  P_28
REMARK   10  A    between atoms: P_28  and  O_30
REMARK   11  A    between atoms: P_28  and  O_32
REMARK                            x       y       z     vdW  Elec       q    Type
REMARK                         _______ _______ _______ _____ _____    ______ ____
ROOT
ATOM      1  O   UNL     1      32.273 -24.059 -16.752  0.00  0.00    -0.333 OA
ATOM      2  C   UNL     1      33.552 -23.067 -15.021  0.00  0.00    +0.191 C 
ATOM      3  C   UNL     1      32.338 -23.732 -14.407  0.00  0.00    +0.171 C 
ATOM      4  C   UNL     1      33.625 -23.738 -16.382  0.00  0.00    +0.230 C 
ATOM      5  C   UNL     1      31.412 -23.876 -15.607  0.00  0.00    +0.176 C 
ENDROOT
BRANCH   4   8
ATOM      6  O   UNL     1      36.390 -23.087 -16.620  0.00  0.00    -0.252 OA
ATOM      7  O   UNL     1      35.627 -20.433 -20.298  0.00  0.00    -0.270 OA
ATOM      8  N   UNL     1      34.192 -22.884 -17.384  0.00  0.00    -0.217 N 
ATOM      9  N   UNL     1      35.995 -21.767 -18.453  0.00  0.00    -0.236 N 
ATOM     10  C   UNL     1      33.347 -22.312 -18.330  0.00  0.00    +0.071 C 
ATOM     11  C   UNL     1      35.581 -22.618 -17.423  0.00  0.00    +0.315 C 
ATOM     12  C   UNL     1      33.747 -21.498 -19.314  0.00  0.00    +0.047 C 
ATOM     13  C   UNL     1      35.195 -21.173 -19.418  0.00  0.00    +0.250 C 
ATOM     14  C   UNL     1      32.818 -20.898 -20.320  0.00  0.00    +0.037 C 
ATOM     15  H   UNL     1      36.958 -21.569 -18.499  0.00  0.00    +0.159 HD
ENDBRANCH   4   8
BRANCH   3  16
ATOM     16  O   UNL     1      32.671 -25.042 -13.948  0.00  0.00    -0.379 OA
ATOM     17  H   UNL     1      32.634 -25.665 -14.691  0.00  0.00    +0.211 HD
ENDBRANCH   3  16
BRANCH   2  18
ATOM     18  O   UNL     1      34.720 -23.269 -14.252  0.00  0.00    -0.348 OA
BRANCH  18  19
ATOM     19  C   UNL     1      35.178 -24.616 -14.332  0.00  0.00    +0.164 C 
BRANCH  19  20
ATOM     20  C   UNL     1      36.121 -24.907 -13.169  0.00  0.00    +0.129 C 
BRANCH  20  21
ATOM     21  N   UNL     1      37.467 -25.408 -13.633  0.00  0.00    -0.265 N 
ATOM     22  N   UNL     1      38.974 -26.591 -14.757  0.00  0.00    -0.225 NA
ATOM     23  C   UNL     1      38.687 -24.975 -13.193  0.00  0.00    +0.088 C 
ATOM     24  C   UNL     1      37.690 -26.378 -14.570  0.00  0.00    +0.168 C 
ATOM     25  C   UNL     1      39.601 -25.720 -13.902  0.00  0.00    +0.117 C 
ENDBRANCH  20  21
ENDBRANCH  19  20
ENDBRANCH  18  19
ENDBRANCH   2  18
BRANCH   5  26
ATOM     26  C   UNL     1      30.549 -22.646 -15.854  0.00  0.00    +0.186 C 
BRANCH  26  27
ATOM     27  O   UNL     1      29.730 -22.885 -16.984  0.00  0.00    -0.271 OA
BRANCH  27  28
ATOM     28  P   UNL     1      28.123 -22.883 -16.788  0.00  0.00    +0.473 P 
ATOM     29  O   UNL     1      27.445 -21.587 -17.126  0.00  0.00    -0.227 OA
BRANCH  28  30
ATOM     30  O   UNL     1      27.921 -23.390 -15.266  0.00  0.00    -0.303 OA
ATOM     31  H   UNL     1      27.911 -22.625 -14.669  0.00  0.00    +0.222 HD
ENDBRANCH  28  30
BRANCH  28  32
ATOM     32  O   UNL     1      27.648 -24.152 -17.669  0.00  0.00    -0.303 OA
ATOM     33  H   UNL     1      26.724 -24.032 -17.938  0.00  0.00    +0.222 HD
ENDBRANCH  28  32
ENDBRANCH  27  28
ENDBRANCH  26  27
ENDBRANCH   5  26
TORSDOF 11
ENDMDL
MODEL 5
REMARK VINA RESULT:      -8.8      3.672      7.038
REMARK  Name = 49866943
REMARK  11 active torsions:
REMARK  status: ('A' for Active; 'I' for Inactive)
REMARK    1  A    between atoms: C_2  and  O_18
REMARK    2  A    between atoms: C_3  and  O_16
REMARK    3  A    between atoms: C_4  and  N_8
REMARK    4  A    between atoms: C_5  and  C_26
REMARK    5  A    between atoms: O_18  and  C_19
REMARK    6  A    between atoms: C_19  and  C_20
REMARK    7  A    between atoms: C_20  and  N_21
REMARK    8  A    between atoms: C_26  and  O_27
REMARK    9  A    between atoms: O_27  and  P_28
REMARK   10  A    between atoms: P_28  and  O_30
REMARK   11  A    between atoms: P_28  and  O_32
REMARK                            x       y       z     vdW  Elec       q    Type
REMARK                         _______ _______ _______ _____ _____    ______ ____
ROOT
ATOM      1  O   UNL     1      32.058 -24.056 -15.935  0.00  0.00    -0.333 OA
ATOM      2  C   UNL     1      33.654 -23.784 -14.205  0.00  0.00    +0.191 C 
ATOM      3  C   UNL     1      32.336 -24.199 -13.587  0.00  0.00    +0.171 C 
ATOM      4  C   UNL     1      33.463 -24.186 -15.658  0.00  0.00    +0.230 C 
ATOM      5  C   UNL     1      31.345 -23.864 -14.693  0.00  0.00    +0.176 C 
ENDROOT
BRANCH   4   8
ATOM      6  O   UNL     1      32.541 -23.305 -18.207  0.00  0.00    -0.252 OA
ATOM      7  O   UNL     1      36.419 -20.962 -18.995  0.00  0.00    -0.270 OA
ATOM      8  N   UNL     1      34.196 -23.346 -16.560  0.00  0.00    -0.217 N 
ATOM      9  N   UNL     1      34.480 -22.141 -18.587  0.00  0.00    -0.236 N 
ATOM     10  C   UNL     1      35.463 -22.911 -16.186  0.00  0.00    +0.071 C 
ATOM     11  C   UNL     1      33.655 -22.959 -17.808  0.00  0.00    +0.315 C 
ATOM     12  C   UNL     1      36.250 -22.128 -16.934  0.00  0.00    +0.047 C 
ATOM     13  C   UNL     1      35.747 -21.682 -18.260  0.00  0.00    +0.250 C 
ATOM     14  C   UNL     1      37.609 -21.673 -16.508  0.00  0.00    +0.037 C 
ATOM     15  H   UNL     1      34.122 -21.860 -19.460  0.00  0.00    +0.159 HD
ENDBRANCH   4   8
BRANCH   3  16
ATOM     16  O   UNL     1      32.308 -25.612 -13.385  0.00  0.00    -0.379 OA
ATOM     17  H   UNL     1      33.145 -25.999 -13.684  0.00  0.00    +0.211 HD
ENDBRANCH   3  16
BRANCH   2  18
ATOM     18  O   UNL     1      34.756 -24.432 -13.604  0.00  0.00    -0.348 OA
BRANCH  18  19
ATOM     19  C   UNL     1      35.271 -23.689 -12.503  0.00  0.00    +0.164 C 
BRANCH  19  20
ATOM     20  C   UNL     1      36.755 -23.412 -12.719  0.00  0.00    +0.129 C 
BRANCH  20  21
ATOM     21  N   UNL     1      37.475 -24.588 -13.332  0.00  0.00    -0.265 N 
ATOM     22  N   UNL     1      38.211 -26.666 -13.606  0.00  0.00    -0.225 NA
ATOM     23  C   UNL     1      38.228 -24.571 -14.473  0.00  0.00    +0.088 C 
ATOM     24  C   UNL     1      37.495 -25.867 -12.847  0.00  0.00    +0.168 C 
ATOM     25  C   UNL     1      38.671 -25.865 -14.621  0.00  0.00    +0.117 C 
ENDBRANCH  20  21
ENDBRANCH  19  20
ENDBRANCH  18  19
ENDBRANCH   2  18
BRANCH   5  26
ATOM     26  C   UNL     1      30.855 -22.423 -14.647  0.00  0.00    +0.186 C 
BRANCH  26  27
ATOM     27  O   UNL     1      29.448 -22.416 -14.816  0.00  0.00    -0.271 OA
BRANCH  27  28
ATOM     28  P   UNL     1      28.844 -22.772 -16.275  0.00  0.00    +0.473 P 
ATOM     29  O   UNL     1      28.369 -24.187 -16.436  0.00  0.00    -0.227 OA
BRANCH  28  30
ATOM     30  O   UNL     1      30.012 -22.315 -17.296  0.00  0.00    -0.303 OA
ATOM     31  H   UNL     1      29.910 -21.373 -17.502  0.00  0.00    +0.222 HD
ENDBRANCH  28  30
BRANCH  28  32
ATOM     32  O   UNL     1      27.707 -21.642 -16.482  0.00  0.00    -0.303 OA
ATOM     33  H   UNL     1      27.145 -21.600 -15.692  0.00  0.00    +0.222 HD
ENDBRANCH  28  32
ENDBRANCH  27  28
ENDBRANCH  26  27
ENDBRANCH   5  26
TORSDOF 11
ENDMDL
MODEL 6
REMARK VINA RESULT:      -8.6      3.235      6.802
REMARK  Name = 49866943
REMARK  11 active torsions:
REMARK  status: ('A' for Active; 'I' for Inactive)
REMARK    1  A    between atoms: C_2  and  O_18
REMARK    2  A    between atoms: C_3  and  O_16
REMARK    3  A    between atoms: C_4  and  N_8
REMARK    4  A    between atoms: C_5  and  C_26
REMARK    5  A    between atoms: O_18  and  C_19
REMARK    6  A    between atoms: C_19  and  C_20
REMARK    7  A    between atoms: C_20  and  N_21
REMARK    8  A    between atoms: C_26  and  O_27
REMARK    9  A    between atoms: O_27  and  P_28
REMARK   10  A    between atoms: P_28  and  O_30
REMARK   11  A    between atoms: P_28  and  O_32
REMARK                            x       y       z     vdW  Elec       q    Type
REMARK                         _______ _______ _______ _____ _____    ______ ____
ROOT
ATOM      1  O   UNL     1      33.877 -22.781 -14.958  0.00  0.00    -0.333 OA
ATOM      2  C   UNL     1      33.871 -23.843 -17.077  0.00  0.00    +0.191 C 
ATOM      3  C   UNL     1      32.439 -23.587 -16.659  0.00  0.00    +0.171 C 
ATOM      4  C   UNL     1      34.638 -22.893 -16.173  0.00  0.00    +0.230 C 
ATOM      5  C   UNL     1      32.576 -23.378 -15.157  0.00  0.00    +0.176 C 
ENDROOT
BRANCH   4   8
ATOM      6  O   UNL     1      37.074 -21.501 -16.677  0.00  0.00    -0.252 OA
ATOM      7  O   UNL     1      39.595 -24.908 -14.894  0.00  0.00    -0.270 OA
ATOM      8  N   UNL     1      35.951 -23.377 -15.857  0.00  0.00    -0.217 N 
ATOM      9  N   UNL     1      38.319 -23.208 -15.785  0.00  0.00    -0.236 N 
ATOM     10  C   UNL     1      36.075 -24.625 -15.255  0.00  0.00    +0.071 C 
ATOM     11  C   UNL     1      37.105 -22.613 -16.146  0.00  0.00    +0.315 C 
ATOM     12  C   UNL     1      37.238 -25.191 -14.911  0.00  0.00    +0.047 C 
ATOM     13  C   UNL     1      38.495 -24.445 -15.184  0.00  0.00    +0.250 C 
ATOM     14  C   UNL     1      37.344 -26.534 -14.263  0.00  0.00    +0.037 C 
ATOM     15  H   UNL     1      39.136 -22.692 -15.977  0.00  0.00    +0.159 HD
ENDBRANCH   4   8
BRANCH   3  16
ATOM     16  O   UNL     1      31.967 -22.368 -17.232  0.00  0.00    -0.379 OA
ATOM     17  H   UNL     1      31.825 -21.714 -16.530  0.00  0.00    +0.211 HD
ENDBRANCH   3  16
BRANCH   2  18
ATOM     18  O   UNL     1      34.086 -23.579 -18.448  0.00  0.00    -0.348 OA
BRANCH  18  19
ATOM     19  C   UNL     1      34.640 -22.283 -18.657  0.00  0.00    +0.164 C 
BRANCH  19  20
ATOM     20  C   UNL     1      33.891 -21.580 -19.784  0.00  0.00    +0.129 C 
BRANCH  20  21
ATOM     21  N   UNL     1      34.656 -20.398 -20.330  0.00  0.00    -0.265 N 
ATOM     22  N   UNL     1      36.371 -19.075 -20.821  0.00  0.00    -0.225 NA
ATOM     23  C   UNL     1      34.125 -19.328 -20.994  0.00  0.00    +0.088 C 
ATOM     24  C   UNL     1      36.006 -20.201 -20.250  0.00  0.00    +0.168 C 
ATOM     25  C   UNL     1      35.202 -18.526 -21.287  0.00  0.00    +0.117 C 
ENDBRANCH  20  21
ENDBRANCH  19  20
ENDBRANCH  18  19
ENDBRANCH   2  18
BRANCH   5  26
ATOM     26  C   UNL     1      32.523 -24.675 -14.361  0.00  0.00    +0.186 C 
BRANCH  26  27
ATOM     27  O   UNL     1      31.303 -25.334 -14.648  0.00  0.00    -0.271 OA
BRANCH  27  28
ATOM     28  P   UNL     1      29.925 -24.680 -14.107  0.00  0.00    +0.473 P 
ATOM     29  O   UNL     1      29.577 -23.348 -14.706  0.00  0.00    -0.227 OA
BRANCH  28  30
ATOM     30  O   UNL     1      30.101 -24.689 -12.499  0.00  0.00    -0.303 OA
ATOM     31  H   UNL     1      31.013 -24.448 -12.273  0.00  0.00    +0.222 HD
ENDBRANCH  28  30
BRANCH  28  32
ATOM     32  O   UNL     1      28.840 -25.850 -14.369  0.00  0.00    -0.303 OA
ATOM     33  H   UNL     1      28.229 -25.575 -15.069  0.00  0.00    +0.222 HD
ENDBRANCH  28  32
ENDBRANCH  27  28
ENDBRANCH  26  27
ENDBRANCH   5  26
TORSDOF 11
ENDMDL
MODEL 7
REMARK VINA RESULT:      -8.3      1.525      2.307
REMARK  Name = 49866943
REMARK  11 active torsions:
REMARK  status: ('A' for Active; 'I' for Inactive)
REMARK    1  A    between atoms: C_2  and  O_18
REMARK    2  A    between atoms: C_3  and  O_16
REMARK    3  A    between atoms: C_4  and  N_8
REMARK    4  A    between atoms: C_5  and  C_26
REMARK    5  A    between atoms: O_18  and  C_19
REMARK    6  A    between atoms: C_19  and  C_20
REMARK    7  A    between atoms: C_20  and  N_21
REMARK    8  A    between atoms: C_26  and  O_27
REMARK    9  A    between atoms: O_27  and  P_28
REMARK   10  A    between atoms: P_28  and  O_30
REMARK   11  A    between atoms: P_28  and  O_32
REMARK                            x       y       z     vdW  Elec       q    Type
REMARK                         _______ _______ _______ _____ _____    ______ ____
ROOT
ATOM      1  O   UNL     1      36.189 -22.535 -14.999  0.00  0.00    -0.333 OA
ATOM      2  C   UNL     1      34.998 -24.576 -15.175  0.00  0.00    +0.191 C 
ATOM      3  C   UNL     1      35.995 -24.693 -14.042  0.00  0.00    +0.171 C 
ATOM      4  C   UNL     1      34.905 -23.071 -15.360  0.00  0.00    +0.230 C 
ATOM      5  C   UNL     1      36.970 -23.567 -14.357  0.00  0.00    +0.176 C 
ENDROOT
BRANCH   4   8
ATOM      6  O   UNL     1      32.350 -23.283 -16.607  0.00  0.00    -0.252 OA
ATOM      7  O   UNL     1      33.955 -21.607 -20.577  0.00  0.00    -0.270 OA
ATOM      8  N   UNL     1      34.609 -22.702 -16.714  0.00  0.00    -0.217 N 
ATOM      9  N   UNL     1      33.164 -22.446 -18.581  0.00  0.00    -0.236 N 
ATOM     10  C   UNL     1      35.635 -22.197 -17.507  0.00  0.00    +0.071 C 
ATOM     11  C   UNL     1      33.307 -22.843 -17.247  0.00  0.00    +0.315 C 
ATOM     12  C   UNL     1      35.495 -21.817 -18.782  0.00  0.00    +0.047 C 
ATOM     13  C   UNL     1      34.152 -21.938 -19.411  0.00  0.00    +0.250 C 
ATOM     14  C   UNL     1      36.613 -21.276 -19.612  0.00  0.00    +0.037 C 
ATOM     15  H   UNL     1      32.265 -22.536 -18.972  0.00  0.00    +0.159 HD
ENDBRANCH   4   8
BRANCH   3  16
ATOM     16  O   UNL     1      35.365 -24.394 -12.796  0.00  0.00    -0.379 OA
ATOM     17  H   UNL     1      34.696 -25.069 -12.602  0.00  0.00    +0.211 HD
ENDBRANCH   3  16
BRANCH   2  18
ATOM     18  O   UNL     1      33.753 -25.162 -14.857  0.00  0.00    -0.348 OA
BRANCH  18  19
ATOM     19  C   UNL     1      33.031 -24.386 -13.905  0.00  0.00    +0.164 C 
BRANCH  19  20
ATOM     20  C   UNL     1      31.727 -25.092 -13.548  0.00  0.00    +0.129 C 
BRANCH  20  21
ATOM     21  N   UNL     1      30.569 -24.616 -14.391  0.00  0.00    -0.265 N 
ATOM     22  N   UNL     1      28.909 -24.665 -15.866  0.00  0.00    -0.225 NA
ATOM     23  C   UNL     1      30.038 -23.357 -14.399  0.00  0.00    +0.088 C 
ATOM     24  C   UNL     1      29.859 -25.366 -15.288  0.00  0.00    +0.168 C 
ATOM     25  C   UNL     1      29.015 -23.412 -15.317  0.00  0.00    +0.117 C 
ENDBRANCH  20  21
ENDBRANCH  19  20
ENDBRANCH  18  19
ENDBRANCH   2  18
BRANCH   5  26
ATOM     26  C   UNL     1      38.083 -23.982 -15.309  0.00  0.00    +0.186 C 
BRANCH  26  27
ATOM     27  O   UNL     1      39.198 -24.409 -14.548  0.00  0.00    -0.271 OA
BRANCH  27  28
ATOM     28  P   UNL     1      39.746 -25.917 -14.759  0.00  0.00    +0.473 P 
ATOM     29  O   UNL     1      38.729 -26.998 -14.535  0.00  0.00    -0.227 OA
BRANCH  28  30
ATOM     30  O   UNL     1      41.051 -25.989 -13.807  0.00  0.00    -0.303 OA
ATOM     31  H   UNL     1      41.281 -26.917 -13.644  0.00  0.00    +0.222 HD
ENDBRANCH  28  30
BRANCH  28  32
ATOM     32  O   UNL     1      40.373 -25.869 -16.248  0.00  0.00    -0.303 OA
ATOM     33  H   UNL     1      40.120 -26.670 -16.733  0.00  0.00    +0.222 HD
ENDBRANCH  28  32
ENDBRANCH  27  28
ENDBRANCH  26  27
ENDBRANCH   5  26
TORSDOF 11
ENDMDL
MODEL 8
REMARK VINA RESULT:      -8.3      3.765      6.894
REMARK  Name = 49866943
REMARK  11 active torsions:
REMARK  status: ('A' for Active; 'I' for Inactive)
REMARK    1  A    between atoms: C_2  and  O_18
REMARK    2  A    between atoms: C_3  and  O_16
REMARK    3  A    between atoms: C_4  and  N_8
REMARK    4  A    between atoms: C_5  and  C_26
REMARK    5  A    between atoms: O_18  and  C_19
REMARK    6  A    between atoms: C_19  and  C_20
REMARK    7  A    between atoms: C_20  and  N_21
REMARK    8  A    between atoms: C_26  and  O_27
REMARK    9  A    between atoms: O_27  and  P_28
REMARK   10  A    between atoms: P_28  and  O_30
REMARK   11  A    between atoms: P_28  and  O_32
REMARK                            x       y       z     vdW  Elec       q    Type
REMARK                         _______ _______ _______ _____ _____    ______ ____
ROOT
ATOM      1  O   UNL     1      33.068 -23.562 -17.486  0.00  0.00    -0.333 OA
ATOM      2  C   UNL     1      35.107 -22.844 -16.514  0.00  0.00    +0.191 C 
ATOM      3  C   UNL     1      34.392 -23.746 -15.530  0.00  0.00    +0.171 C 
ATOM      4  C   UNL     1      34.417 -23.193 -17.822  0.00  0.00    +0.230 C 
ATOM      5  C   UNL     1      32.963 -23.720 -16.054  0.00  0.00    +0.176 C 
ENDROOT
BRANCH   4   8
ATOM      6  O   UNL     1      32.055 -21.949 -18.822  0.00  0.00    -0.252 OA
ATOM      7  O   UNL     1      34.484 -18.961 -21.336  0.00  0.00    -0.270 OA
ATOM      8  N   UNL     1      34.385 -22.089 -18.737  0.00  0.00    -0.217 N 
ATOM      9  N   UNL     1      33.279 -20.465 -20.071  0.00  0.00    -0.236 N 
ATOM     10  C   UNL     1      35.590 -21.563 -19.190  0.00  0.00    +0.071 C 
ATOM     11  C   UNL     1      33.160 -21.537 -19.179  0.00  0.00    +0.315 C 
ATOM     12  C   UNL     1      35.700 -20.538 -20.043  0.00  0.00    +0.047 C 
ATOM     13  C   UNL     1      34.453 -19.905 -20.551  0.00  0.00    +0.250 C 
ATOM     14  C   UNL     1      37.008 -19.990 -20.513  0.00  0.00    +0.037 C 
ATOM     15  H   UNL     1      32.438 -20.065 -20.391  0.00  0.00    +0.159 HD
ENDBRANCH   4   8
BRANCH   3  16
ATOM     16  O   UNL     1      34.878 -25.084 -15.643  0.00  0.00    -0.379 OA
ATOM     17  H   UNL     1      35.012 -25.455 -14.757  0.00  0.00    +0.211 HD
ENDBRANCH   3  16
BRANCH   2  18
ATOM     18  O   UNL     1      36.498 -23.089 -16.553  0.00  0.00    -0.348 OA
BRANCH  18  19
ATOM     19  C   UNL     1      37.153 -22.603 -15.384  0.00  0.00    +0.164 C 
BRANCH  19  20
ATOM     20  C   UNL     1      37.903 -23.744 -14.704  0.00  0.00    +0.129 C 
BRANCH  20  21
ATOM     21  N   UNL     1      37.533 -23.885 -13.247  0.00  0.00    -0.265 N 
ATOM     22  N   UNL     1      37.625 -24.554 -11.132  0.00  0.00    -0.225 NA
ATOM     23  C   UNL     1      36.477 -23.286 -12.619  0.00  0.00    +0.088 C 
ATOM     24  C   UNL     1      38.192 -24.637 -12.315  0.00  0.00    +0.168 C 
ATOM     25  C   UNL     1      36.555 -23.714 -11.315  0.00  0.00    +0.117 C 
ENDBRANCH  20  21
ENDBRANCH  19  20
ENDBRANCH  18  19
ENDBRANCH   2  18
BRANCH   5  26
ATOM     26  C   UNL     1      32.142 -22.560 -15.508  0.00  0.00    +0.186 C 
BRANCH  26  27
ATOM     27  O   UNL     1      30.972 -23.077 -14.900  0.00  0.00    -0.271 OA
BRANCH  27  28
ATOM     28  P   UNL     1      29.554 -22.869 -15.651  0.00  0.00    +0.473 P 
ATOM     29  O   UNL     1      28.631 -21.879 -15.002  0.00  0.00    -0.227 OA
BRANCH  28  30
ATOM     30  O   UNL     1      28.969 -24.370 -15.789  0.00  0.00    -0.303 OA
ATOM     31  H   UNL     1      28.000 -24.344 -15.750  0.00  0.00    +0.222 HD
ENDBRANCH  28  30
BRANCH  28  32
ATOM     32  O   UNL     1      29.995 -22.501 -17.162  0.00  0.00    -0.303 OA
ATOM     33  H   UNL     1      30.290 -21.578 -17.198  0.00  0.00    +0.222 HD
ENDBRANCH  28  32
ENDBRANCH  27  28
ENDBRANCH  26  27
ENDBRANCH   5  26
TORSDOF 11
ENDMDL
MODEL 9
REMARK VINA RESULT:      -8.3      9.924     12.810
REMARK  Name = 49866943
REMARK  11 active torsions:
REMARK  status: ('A' for Active; 'I' for Inactive)
REMARK    1  A    between atoms: C_2  and  O_18
REMARK    2  A    between atoms: C_3  and  O_16
REMARK    3  A    between atoms: C_4  and  N_8
REMARK    4  A    between atoms: C_5  and  C_26
REMARK    5  A    between atoms: O_18  and  C_19
REMARK    6  A    between atoms: C_19  and  C_20
REMARK    7  A    between atoms: C_20  and  N_21
REMARK    8  A    between atoms: C_26  and  O_27
REMARK    9  A    between atoms: O_27  and  P_28
REMARK   10  A    between atoms: P_28  and  O_30
REMARK   11  A    between atoms: P_28  and  O_32
REMARK                            x       y       z     vdW  Elec       q    Type
REMARK                         _______ _______ _______ _____ _____    ______ ____
ROOT
ATOM      1  O   UNL     1      35.225 -15.218 -22.765  0.00  0.00    -0.333 OA
ATOM      2  C   UNL     1      33.304 -14.277 -21.745  0.00  0.00    +0.191 C 
ATOM      3  C   UNL     1      33.968 -15.213 -20.757  0.00  0.00    +0.171 C 
ATOM      4  C   UNL     1      34.422 -14.026 -22.742  0.00  0.00    +0.230 C 
ATOM      5  C   UNL     1      34.838 -16.072 -21.665  0.00  0.00    +0.176 C 
ENDROOT
BRANCH   4   8
ATOM      6  O   UNL     1      34.320 -11.470 -23.999  0.00  0.00    -0.252 OA
ATOM      7  O   UNL     1      32.493 -13.234 -27.833  0.00  0.00    -0.270 OA
ATOM      8  N   UNL     1      33.930 -13.771 -24.065  0.00  0.00    -0.217 N 
ATOM      9  N   UNL     1      33.409 -12.363 -25.905  0.00  0.00    -0.236 N 
ATOM     10  C   UNL     1      33.457 -14.841 -24.819  0.00  0.00    +0.071 C 
ATOM     11  C   UNL     1      33.918 -12.464 -24.606  0.00  0.00    +0.315 C 
ATOM     12  C   UNL     1      32.970 -14.740 -26.061  0.00  0.00    +0.047 C 
ATOM     13  C   UNL     1      32.927 -13.395 -26.696  0.00  0.00    +0.250 C 
ATOM     14  C   UNL     1      32.470 -15.906 -26.851  0.00  0.00    +0.037 C 
ATOM     15  H   UNL     1      33.392 -11.461 -26.301  0.00  0.00    +0.159 HD
ENDBRANCH   4   8
BRANCH   3  16
ATOM     16  O   UNL     1      34.830 -14.480 -19.886  0.00  0.00    -0.379 OA
ATOM     17  H   UNL     1      35.456 -15.089 -19.463  0.00  0.00    +0.211 HD
ENDBRANCH   3  16
BRANCH   2  18
ATOM     18  O   UNL     1      32.845 -13.089 -21.134  0.00  0.00    -0.348 OA
BRANCH  18  19
ATOM     19  C   UNL     1      31.748 -12.519 -21.842  0.00  0.00    +0.164 C 
BRANCH  19  20
ATOM     20  C   UNL     1      30.958 -11.602 -20.914  0.00  0.00    +0.129 C 
BRANCH  20  21
ATOM     21  N   UNL     1      31.602 -10.245 -20.765  0.00  0.00    -0.265 N 
ATOM     22  N   UNL     1      32.427  -8.428 -19.789  0.00  0.00    -0.225 NA
ATOM     23  C   UNL     1      32.035  -9.439 -21.780  0.00  0.00    +0.088 C 
ATOM     24  C   UNL     1      31.858  -9.596 -19.589  0.00  0.00    +0.168 C 
ATOM     25  C   UNL     1      32.540  -8.324 -21.153  0.00  0.00    +0.117 C 
ENDBRANCH  20  21
ENDBRANCH  19  20
ENDBRANCH  18  19
ENDBRANCH   2  18
BRANCH   5  26
ATOM     26  C   UNL     1      34.105 -17.278 -22.236  0.00  0.00    +0.186 C 
BRANCH  26  27
ATOM     27  O   UNL     1      33.738 -18.134 -21.168  0.00  0.00    -0.271 OA
BRANCH  27  28
ATOM     28  P   UNL     1      34.350 -19.632 -21.135  0.00  0.00    +0.473 P 
ATOM     29  O   UNL     1      33.411 -20.689 -20.631  0.00  0.00    -0.227 OA
BRANCH  28  30
ATOM     30  O   UNL     1      35.720 -19.468 -20.292  0.00  0.00    -0.303 OA
ATOM     31  H   UNL     1      35.776 -18.566 -19.938  0.00  0.00    +0.222 HD
ENDBRANCH  28  30
BRANCH  28  32
ATOM     32  O   UNL     1      34.868 -19.846 -22.651  0.00  0.00    -0.303 OA
ATOM     33  H   UNL     1      34.184 -19.551 -23.272  0.00  0.00    +0.222 HD
ENDBRANCH  28  32
ENDBRANCH  27  28
ENDBRANCH  26  27
ENDBRANCH   5  26
TORSDOF 11
ENDMDL
