MODEL 1
REMARK VINA RESULT:     -11.4      0.000      0.000
REMARK  Name = 446129
REMARK  7 active torsions:
REMARK  status: ('A' for Active; 'I' for Inactive)
REMARK    1  A    between atoms: C_1  and  O_2
REMARK    2  A    between atoms: C_1  and  C_4
REMARK    3  A    between atoms: C_1  and  C_18
REMARK    4  A    between atoms: C_4  and  N_5
REMARK    5  A    between atoms: C_18  and  O_19
REMARK    6  A    between atoms: O_19  and  C_23
REMARK    7  A    between atoms: C_20  and  C_26
REMARK                            x       y       z     vdW  Elec       q    Type
REMARK                         _______ _______ _______ _____ _____    ______ ____
ROOT
ATOM      1  C   UNL     1      34.242 -15.542 -23.107  0.00  0.00    +0.133 C 
ENDROOT
BRANCH   1   2
ATOM      2  O   UNL     1      33.895 -16.263 -24.292  0.00  0.00    -0.383 OA
ATOM      3  H   UNL     1      33.402 -15.682 -24.892  0.00  0.00    +0.210 HD
ENDBRANCH   1   2
BRANCH   1   4
ATOM      4  C   UNL     1      32.965 -14.918 -22.538  0.00  0.00    -0.043 C 
BRANCH   4   5
ATOM      5  N   UNL     1      32.710 -13.588 -23.088  0.00  0.00    +0.391 N 
ATOM      6  N   UNL     1      33.075 -10.769 -23.374  0.00  0.00    -0.298 N 
ATOM      7  C   UNL     1      33.916 -13.057 -23.735  0.00  0.00    -0.055 C 
ATOM      8  C   UNL     1      32.264 -12.671 -22.032  0.00  0.00    -0.055 C 
ATOM      9  C   UNL     1      33.645 -11.688 -24.365  0.00  0.00    +0.069 C 
ATOM     10  C   UNL     1      31.938 -11.289 -22.605  0.00  0.00    +0.069 C 
ATOM     11  H   UNL     1      31.970 -13.670 -23.787  0.00  0.00    -0.079 HD
ATOM     12  N   UNL     1      32.004  -8.645 -23.663  0.00  0.00    -0.229 NA
ATOM     13  C   UNL     1      33.150  -9.388 -23.585  0.00  0.00    +0.132 C 
ATOM     14  C   UNL     1      34.416  -8.798 -23.712  0.00  0.00    +0.034 C 
ATOM     15  C   UNL     1      34.506  -7.427 -23.922  0.00  0.00    +0.004 C 
ATOM     16  C   UNL     1      32.131  -7.314 -23.869  0.00  0.00    +0.100 C 
ATOM     17  C   UNL     1      33.347  -6.664 -24.003  0.00  0.00    +0.021 C 
ENDBRANCH   4   5
ENDBRANCH   1   4
BRANCH   1  18
ATOM     18  C   UNL     1      34.931 -16.499 -22.136  0.00  0.00    +0.232 C 
BRANCH  18  19
ATOM     19  O   UNL     1      34.832 -17.825 -22.647  0.00  0.00    -0.473 OA
BRANCH  19  23
ATOM     20  C   UNL     1      34.905 -20.908 -19.870  0.00  0.00    -0.022 C 
ATOM     21  C   UNL     1      33.690 -20.479 -20.403  0.00  0.00    -0.001 C 
ATOM     22  C   UNL     1      36.095 -20.301 -20.269  0.00  0.00    -0.001 C 
ATOM     23  C   UNL     1      34.855 -18.841 -21.731  0.00  0.00    +0.139 C 
ATOM     24  C   UNL     1      33.665 -19.443 -21.337  0.00  0.00    +0.037 C 
ATOM     25  C   UNL     1      36.070 -19.264 -21.202  0.00  0.00    +0.037 C 
BRANCH  20  26
ATOM     26  C   UNL     1      34.931 -22.035 -18.854  0.00  0.00    +0.022 C 
ATOM     27  C   UNL     1      35.881 -21.729 -17.682  0.00  0.00    +0.004 C 
ATOM     28  C   UNL     1      33.521 -22.378 -18.343  0.00  0.00    +0.004 C 
ATOM     29  C   UNL     1      35.907 -22.873 -16.670  0.00  0.00    +0.000 C 
ATOM     30  C   UNL     1      33.556 -23.520 -17.328  0.00  0.00    +0.000 C 
ATOM     31  C   UNL     1      34.506 -23.217 -16.173  0.00  0.00    +0.000 C 
ENDBRANCH  20  26
ENDBRANCH  19  23
ENDBRANCH  18  19
ENDBRANCH   1  18
TORSDOF 7
ENDMDL
MODEL 2
REMARK VINA RESULT:     -11.4      1.398      2.700
REMARK  Name = 446129
REMARK  7 active torsions:
REMARK  status: ('A' for Active; 'I' for Inactive)
REMARK    1  A    between atoms: C_1  and  O_2
REMARK    2  A    between atoms: C_1  and  C_4
REMARK    3  A    between atoms: C_1  and  C_18
REMARK    4  A    between atoms: C_4  and  N_5
REMARK    5  A    between atoms: C_18  and  O_19
REMARK    6  A    between atoms: O_19  and  C_23
REMARK    7  A    between atoms: C_20  and  C_26
REMARK                            x       y       z     vdW  Elec       q    Type
REMARK                         _______ _______ _______ _____ _____    ______ ____
ROOT
ATOM      1  C   UNL     1      33.447 -14.680 -25.194  0.00  0.00    +0.133 C 
ENDROOT
BRANCH   1   2
ATOM      2  O   UNL     1      32.256 -14.504 -25.965  0.00  0.00    -0.383 OA
ATOM      3  H   UNL     1      32.484 -14.453 -26.906  0.00  0.00    +0.210 HD
ENDBRANCH   1   2
BRANCH   1   4
ATOM      4  C   UNL     1      33.112 -14.398 -23.727  0.00  0.00    -0.043 C 
BRANCH   4   5
ATOM      5  N   UNL     1      33.278 -12.985 -23.386  0.00  0.00    +0.391 N 
ATOM      6  N   UNL     1      32.722 -10.187 -23.520  0.00  0.00    -0.298 N 
ATOM      7  C   UNL     1      32.043 -12.445 -22.807  0.00  0.00    -0.055 C 
ATOM      8  C   UNL     1      33.654 -12.210 -24.575  0.00  0.00    -0.055 C 
ATOM      9  C   UNL     1      32.222 -10.983 -22.394  0.00  0.00    +0.069 C 
ATOM     10  C   UNL     1      33.888 -10.739 -24.220  0.00  0.00    +0.069 C 
ATOM     11  H   UNL     1      34.026 -12.912 -22.695  0.00  0.00    -0.079 HD
ATOM     12  N   UNL     1      33.647  -7.976 -23.569  0.00  0.00    -0.229 NA
ATOM     13  C   UNL     1      32.554  -8.797 -23.518  0.00  0.00    +0.132 C 
ATOM     14  C   UNL     1      31.251  -8.282 -23.460  0.00  0.00    +0.034 C 
ATOM     15  C   UNL     1      31.068  -6.904 -23.456  0.00  0.00    +0.004 C 
ATOM     16  C   UNL     1      33.430  -6.641 -23.564  0.00  0.00    +0.100 C 
ATOM     17  C   UNL     1      32.173  -6.061 -23.509  0.00  0.00    +0.021 C 
ENDBRANCH   4   5
ENDBRANCH   1   4
BRANCH   1  18
ATOM     18  C   UNL     1      33.979 -16.092 -25.431  0.00  0.00    +0.232 C 
BRANCH  18  19
ATOM     19  O   UNL     1      35.134 -16.291 -24.621  0.00  0.00    -0.473 OA
BRANCH  19  23
ATOM     20  C   UNL     1      34.757 -18.959 -21.464  0.00  0.00    -0.022 C 
ATOM     21  C   UNL     1      34.955 -17.602 -21.210  0.00  0.00    -0.001 C 
ATOM     22  C   UNL     1      34.687 -19.419 -22.779  0.00  0.00    -0.001 C 
ATOM     23  C   UNL     1      35.010 -17.171 -23.579  0.00  0.00    +0.139 C 
ATOM     24  C   UNL     1      35.081 -16.705 -22.270  0.00  0.00    +0.037 C 
ATOM     25  C   UNL     1      34.815 -18.523 -23.839  0.00  0.00    +0.037 C 
BRANCH  20  26
ATOM     26  C   UNL     1      34.621 -19.934 -20.310  0.00  0.00    +0.022 C 
ATOM     27  C   UNL     1      33.269 -20.668 -20.334  0.00  0.00    +0.004 C 
ATOM     28  C   UNL     1      35.789 -20.935 -20.264  0.00  0.00    +0.004 C 
ATOM     29  C   UNL     1      33.138 -21.641 -19.163  0.00  0.00    +0.000 C 
ATOM     30  C   UNL     1      35.649 -21.906 -19.093  0.00  0.00    +0.000 C 
ATOM     31  C   UNL     1      34.304 -22.625 -19.117  0.00  0.00    +0.000 C 
ENDBRANCH  20  26
ENDBRANCH  19  23
ENDBRANCH  18  19
ENDBRANCH   1  18
TORSDOF 7
ENDMDL
MODEL 3
REMARK VINA RESULT:     -11.4      2.804     11.317
REMARK  Name = 446129
REMARK  7 active torsions:
REMARK  status: ('A' for Active; 'I' for Inactive)
REMARK    1  A    between atoms: C_1  and  O_2
REMARK    2  A    between atoms: C_1  and  C_4
REMARK    3  A    between atoms: C_1  and  C_18
REMARK    4  A    between atoms: C_4  and  N_5
REMARK    5  A    between atoms: C_18  and  O_19
REMARK    6  A    between atoms: O_19  and  C_23
REMARK    7  A    between atoms: C_20  and  C_26
REMARK                            x       y       z     vdW  Elec       q    Type
REMARK                         _______ _______ _______ _____ _____    ______ ____
ROOT
ATOM      1  C   UNL     1      33.806 -15.894 -24.840  0.00  0.00    +0.133 C 
ENDROOT
BRANCH   1   2
ATOM      2  O   UNL     1      33.972 -16.061 -26.250  0.00  0.00    -0.383 OA
ATOM      3  H   UNL     1      34.880 -15.826 -26.499  0.00  0.00    +0.210 HD
ENDBRANCH   1   2
BRANCH   1   4
ATOM      4  C   UNL     1      35.191 -15.932 -24.189  0.00  0.00    -0.043 C 
BRANCH   4   5
ATOM      5  N   UNL     1      35.417 -17.173 -23.448  0.00  0.00    +0.391 N 
ATOM      6  N   UNL     1      34.877 -19.168 -21.477  0.00  0.00    -0.298 N 
ATOM      7  C   UNL     1      34.276 -18.082 -23.605  0.00  0.00    -0.055 C 
ATOM      8  C   UNL     1      35.637 -16.889 -22.024  0.00  0.00    -0.055 C 
ATOM      9  C   UNL     1      34.524 -19.407 -22.880  0.00  0.00    +0.069 C 
ATOM     10  C   UNL     1      35.932 -18.174 -21.247  0.00  0.00    +0.069 C 
ATOM     11  H   UNL     1      36.251 -17.622 -23.827  0.00  0.00    -0.079 HD
ATOM     12  N   UNL     1      35.810 -20.647 -19.836  0.00  0.00    -0.229 NA
ATOM     13  C   UNL     1      34.725 -20.195 -20.538  0.00  0.00    +0.132 C 
ATOM     14  C   UNL     1      33.447 -20.739 -20.342  0.00  0.00    +0.034 C 
ATOM     15  C   UNL     1      33.281 -21.760 -19.414  0.00  0.00    +0.004 C 
ATOM     16  C   UNL     1      35.609 -21.641 -18.942  0.00  0.00    +0.100 C 
ATOM     17  C   UNL     1      34.377 -22.225 -18.696  0.00  0.00    +0.021 C 
ENDBRANCH   4   5
ENDBRANCH   1   4
BRANCH   1  18
ATOM     18  C   UNL     1      33.056 -14.587 -24.587  0.00  0.00    +0.232 C 
BRANCH  18  19
ATOM     19  O   UNL     1      33.865 -13.741 -23.776  0.00  0.00    -0.473 OA
BRANCH  19  23
ATOM     20  C   UNL     1      32.290 -10.025 -22.808  0.00  0.00    -0.022 C 
ATOM     21  C   UNL     1      33.331 -10.122 -23.731  0.00  0.00    -0.001 C 
ATOM     22  C   UNL     1      31.780 -11.177 -22.209  0.00  0.00    -0.001 C 
ATOM     23  C   UNL     1      33.347 -12.515 -23.456  0.00  0.00    +0.139 C 
ATOM     24  C   UNL     1      33.861 -11.371 -24.057  0.00  0.00    +0.037 C 
ATOM     25  C   UNL     1      32.310 -12.425 -22.534  0.00  0.00    +0.037 C 
BRANCH  20  26
ATOM     26  C   UNL     1      31.716  -8.666 -22.453  0.00  0.00    +0.022 C 
ATOM     27  C   UNL     1      32.598  -7.916 -21.440  0.00  0.00    +0.004 C 
ATOM     28  C   UNL     1      31.462  -7.808 -23.704  0.00  0.00    +0.004 C 
ATOM     29  C   UNL     1      32.006  -6.554 -21.083  0.00  0.00    +0.000 C 
ATOM     30  C   UNL     1      30.874  -6.446 -23.338  0.00  0.00    +0.000 C 
ATOM     31  C   UNL     1      31.748  -5.709 -22.327  0.00  0.00    +0.000 C 
ENDBRANCH  20  26
ENDBRANCH  19  23
ENDBRANCH  18  19
ENDBRANCH   1  18
TORSDOF 7
ENDMDL
MODEL 4
REMARK VINA RESULT:     -11.3      6.295     11.618
REMARK  Name = 446129
REMARK  7 active torsions:
REMARK  status: ('A' for Active; 'I' for Inactive)
REMARK    1  A    between atoms: C_1  and  O_2
REMARK    2  A    between atoms: C_1  and  C_4
REMARK    3  A    between atoms: C_1  and  C_18
REMARK    4  A    between atoms: C_4  and  N_5
REMARK    5  A    between atoms: C_18  and  O_19
REMARK    6  A    between atoms: O_19  and  C_23
REMARK    7  A    between atoms: C_20  and  C_26
REMARK                            x       y       z     vdW  Elec       q    Type
REMARK                         _______ _______ _______ _____ _____    ______ ____
ROOT
ATOM      1  C   UNL     1      37.244 -22.787 -15.976  0.00  0.00    +0.133 C 
ENDROOT
BRANCH   1   2
ATOM      2  O   UNL     1      37.553 -22.223 -14.699  0.00  0.00    -0.383 OA
ATOM      3  H   UNL     1      37.218 -22.803 -13.999  0.00  0.00    +0.210 HD
ENDBRANCH   1   2
BRANCH   1   4
ATOM      4  C   UNL     1      36.174 -23.862 -15.775  0.00  0.00    -0.043 C 
BRANCH   4   5
ATOM      5  N   UNL     1      34.820 -23.309 -15.830  0.00  0.00    +0.391 N 
ATOM      6  N   UNL     1      31.967 -23.401 -15.898  0.00  0.00    -0.298 N 
ATOM      7  C   UNL     1      34.061 -23.685 -14.632  0.00  0.00    -0.055 C 
ATOM      8  C   UNL     1      34.122 -23.778 -17.033  0.00  0.00    -0.055 C 
ATOM      9  C   UNL     1      32.661 -23.065 -14.651  0.00  0.00    +0.069 C 
ATOM     10  C   UNL     1      32.724 -23.161 -17.132  0.00  0.00    +0.069 C 
ATOM     11  H   UNL     1      34.895 -22.292 -15.869  0.00  0.00    -0.079 HD
ATOM     12  N   UNL     1      29.970 -22.485 -16.858  0.00  0.00    -0.229 NA
ATOM     13  C   UNL     1      30.570 -23.323 -15.958  0.00  0.00    +0.132 C 
ATOM     14  C   UNL     1      29.818 -24.116 -15.080  0.00  0.00    +0.034 C 
ATOM     15  C   UNL     1      28.430 -24.048 -15.127  0.00  0.00    +0.004 C 
ATOM     16  C   UNL     1      28.619 -22.446 -16.875  0.00  0.00    +0.100 C 
ATOM     17  C   UNL     1      27.811 -23.201 -16.039  0.00  0.00    +0.021 C 
ENDBRANCH   4   5
ENDBRANCH   1   4
BRANCH   1  18
ATOM     18  C   UNL     1      36.803 -21.664 -16.914  0.00  0.00    +0.232 C 
BRANCH  18  19
ATOM     19  O   UNL     1      36.534 -22.216 -18.198  0.00  0.00    -0.473 OA
BRANCH  19  23
ATOM     20  C   UNL     1      35.147 -19.597 -21.104  0.00  0.00    -0.022 C 
ATOM     21  C   UNL     1      36.498 -19.603 -20.759  0.00  0.00    -0.001 C 
ATOM     22  C   UNL     1      34.262 -20.469 -20.471  0.00  0.00    -0.001 C 
ATOM     23  C   UNL     1      36.077 -21.351 -19.156  0.00  0.00    +0.139 C 
ATOM     24  C   UNL     1      36.965 -20.484 -19.783  0.00  0.00    +0.037 C 
ATOM     25  C   UNL     1      34.728 -21.349 -19.494  0.00  0.00    +0.037 C 
BRANCH  20  26
ATOM     26  C   UNL     1      34.640 -18.638 -22.165  0.00  0.00    +0.022 C 
ATOM     27  C   UNL     1      35.152 -17.205 -21.936  0.00  0.00    +0.004 C 
ATOM     28  C   UNL     1      34.979 -19.124 -23.584  0.00  0.00    +0.004 C 
ATOM     29  C   UNL     1      34.628 -16.247 -23.005  0.00  0.00    +0.000 C 
ATOM     30  C   UNL     1      34.456 -18.158 -24.646  0.00  0.00    +0.000 C 
ATOM     31  C   UNL     1      34.959 -16.737 -24.412  0.00  0.00    +0.000 C 
ENDBRANCH  20  26
ENDBRANCH  19  23
ENDBRANCH  18  19
ENDBRANCH   1  18
TORSDOF 7
ENDMDL
MODEL 5
REMARK VINA RESULT:     -11.3      1.639      2.838
REMARK  Name = 446129
REMARK  7 active torsions:
REMARK  status: ('A' for Active; 'I' for Inactive)
REMARK    1  A    between atoms: C_1  and  O_2
REMARK    2  A    between atoms: C_1  and  C_4
REMARK    3  A    between atoms: C_1  and  C_18
REMARK    4  A    between atoms: C_4  and  N_5
REMARK    5  A    between atoms: C_18  and  O_19
REMARK    6  A    between atoms: O_19  and  C_23
REMARK    7  A    between atoms: C_20  and  C_26
REMARK                            x       y       z     vdW  Elec       q    Type
REMARK                         _______ _______ _______ _____ _____    ______ ____
ROOT
ATOM      1  C   UNL     1      35.299 -17.729 -22.604  0.00  0.00    +0.133 C 
ENDROOT
BRANCH   1   2
ATOM      2  O   UNL     1      36.644 -18.132 -22.872  0.00  0.00    -0.383 OA
ATOM      3  H   UNL     1      36.917 -18.800 -22.223  0.00  0.00    +0.210 HD
ENDBRANCH   1   2
BRANCH   1   4
ATOM      4  C   UNL     1      34.682 -17.224 -23.910  0.00  0.00    -0.043 C 
BRANCH   4   5
ATOM      5  N   UNL     1      33.823 -16.060 -23.700  0.00  0.00    +0.391 N 
ATOM      6  N   UNL     1      33.228 -13.294 -23.302  0.00  0.00    -0.298 N 
ATOM      7  C   UNL     1      33.971 -15.102 -24.802  0.00  0.00    -0.055 C 
ATOM      8  C   UNL     1      34.144 -15.408 -22.424  0.00  0.00    -0.055 C 
ATOM      9  C   UNL     1      33.035 -13.905 -24.621  0.00  0.00    +0.069 C 
ATOM     10  C   UNL     1      33.212 -14.221 -22.164  0.00  0.00    +0.069 C 
ATOM     11  H   UNL     1      32.854 -16.381 -23.670  0.00  0.00    -0.079 HD
ATOM     12  N   UNL     1      31.887 -11.699 -22.118  0.00  0.00    -0.229 NA
ATOM     13  C   UNL     1      32.819 -11.974 -23.082  0.00  0.00    +0.132 C 
ATOM     14  C   UNL     1      33.384 -10.959 -23.867  0.00  0.00    +0.034 C 
ATOM     15  C   UNL     1      32.986  -9.643 -23.660  0.00  0.00    +0.004 C 
ATOM     16  C   UNL     1      31.525 -10.408 -21.945  0.00  0.00    +0.100 C 
ATOM     17  C   UNL     1      32.041  -9.354 -22.683  0.00  0.00    +0.021 C 
ENDBRANCH   4   5
ENDBRANCH   1   4
BRANCH   1  18
ATOM     18  C   UNL     1      34.545 -18.913 -21.998  0.00  0.00    +0.232 C 
BRANCH  18  19
ATOM     19  O   UNL     1      35.484 -19.795 -21.391  0.00  0.00    -0.473 OA
BRANCH  19  23
ATOM     20  C   UNL     1      34.044 -22.268 -18.385  0.00  0.00    -0.022 C 
ATOM     21  C   UNL     1      35.418 -22.077 -18.533  0.00  0.00    -0.001 C 
ATOM     22  C   UNL     1      33.154 -21.628 -19.248  0.00  0.00    -0.001 C 
ATOM     23  C   UNL     1      35.009 -20.611 -20.400  0.00  0.00    +0.139 C 
ATOM     24  C   UNL     1      35.902 -21.246 -19.542  0.00  0.00    +0.037 C 
ATOM     25  C   UNL     1      33.639 -20.798 -20.259  0.00  0.00    +0.037 C 
BRANCH  20  26
ATOM     26  C   UNL     1      33.518 -23.173 -17.287  0.00  0.00    +0.022 C 
ATOM     27  C   UNL     1      34.408 -23.132 -16.033  0.00  0.00    +0.004 C 
ATOM     28  C   UNL     1      32.055 -22.854 -16.934  0.00  0.00    +0.004 C 
ATOM     29  C   UNL     1      33.875 -24.053 -14.937  0.00  0.00    +0.000 C 
ATOM     30  C   UNL     1      31.531 -23.777 -15.835  0.00  0.00    +0.000 C 
ATOM     31  C   UNL     1      32.421 -23.739 -14.596  0.00  0.00    +0.000 C 
ENDBRANCH  20  26
ENDBRANCH  19  23
ENDBRANCH  18  19
ENDBRANCH   1  18
TORSDOF 7
ENDMDL
MODEL 6
REMARK VINA RESULT:     -11.2      1.686      3.235
REMARK  Name = 446129
REMARK  7 active torsions:
REMARK  status: ('A' for Active; 'I' for Inactive)
REMARK    1  A    between atoms: C_1  and  O_2
REMARK    2  A    between atoms: C_1  and  C_4
REMARK    3  A    between atoms: C_1  and  C_18
REMARK    4  A    between atoms: C_4  and  N_5
REMARK    5  A    between atoms: C_18  and  O_19
REMARK    6  A    between atoms: O_19  and  C_23
REMARK    7  A    between atoms: C_20  and  C_26
REMARK                            x       y       z     vdW  Elec       q    Type
REMARK                         _______ _______ _______ _____ _____    ______ ____
ROOT
ATOM      1  C   UNL     1      35.384 -18.014 -22.449  0.00  0.00    +0.133 C 
ENDROOT
BRANCH   1   2
ATOM      2  O   UNL     1      36.746 -18.216 -22.836  0.00  0.00    -0.383 OA
ATOM      3  H   UNL     1      37.152 -18.878 -22.256  0.00  0.00    +0.210 HD
ENDBRANCH   1   2
BRANCH   1   4
ATOM      4  C   UNL     1      34.652 -17.340 -23.612  0.00  0.00    -0.043 C 
BRANCH   4   5
ATOM      5  N   UNL     1      34.551 -15.892 -23.433  0.00  0.00    +0.391 N 
ATOM      6  N   UNL     1      33.214 -13.406 -22.994  0.00  0.00    -0.298 N 
ATOM      7  C   UNL     1      33.987 -15.574 -22.116  0.00  0.00    -0.055 C 
ATOM      8  C   UNL     1      33.720 -15.300 -24.488  0.00  0.00    -0.055 C 
ATOM      9  C   UNL     1      33.928 -14.061 -21.893  0.00  0.00    +0.069 C 
ATOM     10  C   UNL     1      33.652 -13.777 -24.345  0.00  0.00    +0.069 C 
ATOM     11  H   UNL     1      35.490 -15.497 -23.493  0.00  0.00    -0.079 HD
ATOM     12  N   UNL     1      33.076 -11.089 -23.596  0.00  0.00    -0.229 NA
ATOM     13  C   UNL     1      32.668 -12.131 -22.808  0.00  0.00    +0.132 C 
ATOM     14  C   UNL     1      31.706 -11.956 -21.803  0.00  0.00    +0.034 C 
ATOM     15  C   UNL     1      31.155 -10.695 -21.604  0.00  0.00    +0.004 C 
ATOM     16  C   UNL     1      32.519  -9.878 -23.374  0.00  0.00    +0.100 C 
ATOM     17  C   UNL     1      31.563  -9.631 -22.401  0.00  0.00    +0.021 C 
ENDBRANCH   4   5
ENDBRANCH   1   4
BRANCH   1  18
ATOM     18  C   UNL     1      34.781 -19.363 -22.058  0.00  0.00    +0.232 C 
BRANCH  18  19
ATOM     19  O   UNL     1      35.668 -20.019 -21.156  0.00  0.00    -0.473 OA
BRANCH  19  23
ATOM     20  C   UNL     1      33.929 -22.371 -18.212  0.00  0.00    -0.022 C 
ATOM     21  C   UNL     1      35.318 -22.271 -18.295  0.00  0.00    -0.001 C 
ATOM     22  C   UNL     1      33.125 -21.681 -19.119  0.00  0.00    -0.001 C 
ATOM     23  C   UNL     1      35.095 -20.795 -20.186  0.00  0.00    +0.139 C 
ATOM     24  C   UNL     1      35.902 -21.481 -19.284  0.00  0.00    +0.037 C 
ATOM     25  C   UNL     1      33.710 -20.892 -20.109  0.00  0.00    +0.037 C 
BRANCH  20  26
ATOM     26  C   UNL     1      33.294 -23.232 -17.136  0.00  0.00    +0.022 C 
ATOM     27  C   UNL     1      34.106 -23.210 -15.829  0.00  0.00    +0.004 C 
ATOM     28  C   UNL     1      31.828 -22.840 -16.880  0.00  0.00    +0.004 C 
ATOM     29  C   UNL     1      33.462 -24.087 -14.756  0.00  0.00    +0.000 C 
ATOM     30  C   UNL     1      31.194 -23.718 -15.803  0.00  0.00    +0.000 C 
ATOM     31  C   UNL     1      32.006 -23.701 -14.512  0.00  0.00    +0.000 C 
ENDBRANCH  20  26
ENDBRANCH  19  23
ENDBRANCH  18  19
ENDBRANCH   1  18
TORSDOF 7
ENDMDL
MODEL 7
REMARK VINA RESULT:     -11.1      2.852     11.187
REMARK  Name = 446129
REMARK  7 active torsions:
REMARK  status: ('A' for Active; 'I' for Inactive)
REMARK    1  A    between atoms: C_1  and  O_2
REMARK    2  A    between atoms: C_1  and  C_4
REMARK    3  A    between atoms: C_1  and  C_18
REMARK    4  A    between atoms: C_4  and  N_5
REMARK    5  A    between atoms: C_18  and  O_19
REMARK    6  A    between atoms: O_19  and  C_23
REMARK    7  A    between atoms: C_20  and  C_26
REMARK                            x       y       z     vdW  Elec       q    Type
REMARK                         _______ _______ _______ _____ _____    ______ ____
ROOT
ATOM      1  C   UNL     1      33.781 -15.615 -25.031  0.00  0.00    +0.133 C 
ENDROOT
BRANCH   1   2
ATOM      2  O   UNL     1      33.765 -15.326 -26.431  0.00  0.00    -0.383 OA
ATOM      3  H   UNL     1      34.675 -15.221 -26.750  0.00  0.00    +0.210 HD
ENDBRANCH   1   2
BRANCH   1   4
ATOM      4  C   UNL     1      34.836 -16.695 -24.779  0.00  0.00    -0.043 C 
BRANCH   4   5
ATOM      5  N   UNL     1      34.592 -17.424 -23.535  0.00  0.00    +0.391 N 
ATOM      6  N   UNL     1      35.114 -19.361 -21.502  0.00  0.00    -0.298 N 
ATOM      7  C   UNL     1      35.708 -17.237 -22.600  0.00  0.00    -0.055 C 
ATOM      8  C   UNL     1      34.401 -18.854 -23.806  0.00  0.00    -0.055 C 
ATOM      9  C   UNL     1      35.438 -17.950 -21.272  0.00  0.00    +0.069 C 
ATOM     10  C   UNL     1      34.088 -19.621 -22.518  0.00  0.00    +0.069 C 
ATOM     11  H   UNL     1      33.741 -17.053 -23.111  0.00  0.00    -0.079 HD
ATOM     12  N   UNL     1      34.172 -20.998 -20.026  0.00  0.00    -0.229 NA
ATOM     13  C   UNL     1      35.255 -20.285 -20.460  0.00  0.00    +0.132 C 
ATOM     14  C   UNL     1      36.522 -20.452 -19.883  0.00  0.00    +0.034 C 
ATOM     15  C   UNL     1      36.678 -21.366 -18.845  0.00  0.00    +0.004 C 
ATOM     16  C   UNL     1      34.361 -21.877 -19.016  0.00  0.00    +0.100 C 
ATOM     17  C   UNL     1      35.583 -22.095 -18.399  0.00  0.00    +0.021 C 
ENDBRANCH   4   5
ENDBRANCH   1   4
BRANCH   1  18
ATOM     18  C   UNL     1      34.048 -14.320 -24.266  0.00  0.00    +0.232 C 
BRANCH  18  19
ATOM     19  O   UNL     1      33.031 -14.147 -23.284  0.00  0.00    -0.473 OA
BRANCH  19  23
ATOM     20  C   UNL     1      32.004 -10.241 -22.330  0.00  0.00    -0.022 C 
ATOM     21  C   UNL     1      31.494 -11.299 -21.579  0.00  0.00    -0.001 C 
ATOM     22  C   UNL     1      32.859 -10.495 -23.402  0.00  0.00    -0.001 C 
ATOM     23  C   UNL     1      32.692 -12.859 -22.969  0.00  0.00    +0.139 C 
ATOM     24  C   UNL     1      31.839 -12.612 -21.899  0.00  0.00    +0.037 C 
ATOM     25  C   UNL     1      33.203 -11.808 -23.723  0.00  0.00    +0.037 C 
BRANCH  20  26
ATOM     26  C   UNL     1      31.628  -8.813 -21.981  0.00  0.00    +0.022 C 
ATOM     27  C   UNL     1      32.603  -8.193 -20.965  0.00  0.00    +0.004 C 
ATOM     28  C   UNL     1      31.506  -7.931 -23.236  0.00  0.00    +0.004 C 
ATOM     29  C   UNL     1      32.210  -6.759 -20.615  0.00  0.00    +0.000 C 
ATOM     30  C   UNL     1      31.117  -6.498 -22.876  0.00  0.00    +0.000 C 
ATOM     31  C   UNL     1      32.081  -5.890 -21.863  0.00  0.00    +0.000 C 
ENDBRANCH  20  26
ENDBRANCH  19  23
ENDBRANCH  18  19
ENDBRANCH   1  18
TORSDOF 7
ENDMDL
MODEL 8
REMARK VINA RESULT:     -10.7      3.540      6.079
REMARK  Name = 446129
REMARK  7 active torsions:
REMARK  status: ('A' for Active; 'I' for Inactive)
REMARK    1  A    between atoms: C_1  and  O_2
REMARK    2  A    between atoms: C_1  and  C_4
REMARK    3  A    between atoms: C_1  and  C_18
REMARK    4  A    between atoms: C_4  and  N_5
REMARK    5  A    between atoms: C_18  and  O_19
REMARK    6  A    between atoms: O_19  and  C_23
REMARK    7  A    between atoms: C_20  and  C_26
REMARK                            x       y       z     vdW  Elec       q    Type
REMARK                         _______ _______ _______ _____ _____    ______ ____
ROOT
ATOM      1  C   UNL     1      31.159 -10.291 -20.216  0.00  0.00    +0.133 C 
ENDROOT
BRANCH   1   2
ATOM      2  O   UNL     1      31.611 -10.708 -18.925  0.00  0.00    -0.383 OA
ATOM      3  H   UNL     1      32.039  -9.963 -18.476  0.00  0.00    +0.210 HD
ENDBRANCH   1   2
BRANCH   1   4
ATOM      4  C   UNL     1      32.247  -9.415 -20.842  0.00  0.00    -0.043 C 
BRANCH   4   5
ATOM      5  N   UNL     1      31.687  -8.370 -21.699  0.00  0.00    +0.391 N 
ATOM      6  N   UNL     1      31.765  -6.177 -23.527  0.00  0.00    -0.298 N 
ATOM      7  C   UNL     1      32.084  -8.581 -23.096  0.00  0.00    -0.055 C 
ATOM      8  C   UNL     1      32.129  -7.045 -21.249  0.00  0.00    -0.055 C 
ATOM      9  C   UNL     1      31.459  -7.526 -24.011  0.00  0.00    +0.069 C 
ATOM     10  C   UNL     1      31.504  -5.938 -22.102  0.00  0.00    +0.069 C 
ATOM     11  H   UNL     1      30.670  -8.418 -21.634  0.00  0.00    -0.079 HD
ATOM     12  N   UNL     1      30.822  -4.058 -24.131  0.00  0.00    -0.229 NA
ATOM     13  C   UNL     1      31.680  -5.088 -24.402  0.00  0.00    +0.132 C 
ATOM     14  C   UNL     1      32.488  -5.087 -25.548  0.00  0.00    +0.034 C 
ATOM     15  C   UNL     1      32.413  -4.013 -26.428  0.00  0.00    +0.004 C 
ATOM     16  C   UNL     1      30.777  -3.031 -25.009  0.00  0.00    +0.100 C 
ATOM     17  C   UNL     1      31.545  -2.961 -26.161  0.00  0.00    +0.021 C 
ENDBRANCH   4   5
ENDBRANCH   1   4
BRANCH   1  18
ATOM     18  C   UNL     1      30.832 -11.532 -21.045  0.00  0.00    +0.232 C 
BRANCH  18  19
ATOM     19  O   UNL     1      31.786 -11.648 -22.096  0.00  0.00    -0.473 OA
BRANCH  19  23
ATOM     20  C   UNL     1      33.950 -15.186 -22.270  0.00  0.00    -0.022 C 
ATOM     21  C   UNL     1      33.149 -14.912 -21.161  0.00  0.00    -0.001 C 
ATOM     22  C   UNL     1      34.024 -14.270 -23.319  0.00  0.00    -0.001 C 
ATOM     23  C   UNL     1      32.500 -12.815 -22.153  0.00  0.00    +0.139 C 
ATOM     24  C   UNL     1      32.421 -13.724 -21.103  0.00  0.00    +0.037 C 
ATOM     25  C   UNL     1      33.297 -13.081 -23.260  0.00  0.00    +0.037 C 
BRANCH  20  26
ATOM     26  C   UNL     1      34.742 -16.478 -22.333  0.00  0.00    +0.022 C 
ATOM     27  C   UNL     1      34.358 -17.443 -21.197  0.00  0.00    +0.004 C 
ATOM     28  C   UNL     1      34.611 -17.164 -23.704  0.00  0.00    +0.004 C 
ATOM     29  C   UNL     1      35.167 -18.737 -21.264  0.00  0.00    +0.000 C 
ATOM     30  C   UNL     1      35.420 -18.459 -23.761  0.00  0.00    +0.000 C 
ATOM     31  C   UNL     1      35.042 -19.409 -22.628  0.00  0.00    +0.000 C 
ENDBRANCH  20  26
ENDBRANCH  19  23
ENDBRANCH  18  19
ENDBRANCH   1  18
TORSDOF 7
ENDMDL
MODEL 9
REMARK VINA RESULT:     -10.6      4.687     12.287
REMARK  Name = 446129
REMARK  7 active torsions:
REMARK  status: ('A' for Active; 'I' for Inactive)
REMARK    1  A    between atoms: C_1  and  O_2
REMARK    2  A    between atoms: C_1  and  C_4
REMARK    3  A    between atoms: C_1  and  C_18
REMARK    4  A    between atoms: C_4  and  N_5
REMARK    5  A    between atoms: C_18  and  O_19
REMARK    6  A    between atoms: O_19  and  C_23
REMARK    7  A    between atoms: C_20  and  C_26
REMARK                            x       y       z     vdW  Elec       q    Type
REMARK                         _______ _______ _______ _____ _____    ______ ____
ROOT
ATOM      1  C   UNL     1      34.121 -20.522 -19.998  0.00  0.00    +0.133 C 
ENDROOT
BRANCH   1   2
ATOM      2  O   UNL     1      32.828 -20.558 -20.607  0.00  0.00    -0.383 OA
ATOM      3  H   UNL     1      32.533 -19.654 -20.795  0.00  0.00    +0.210 HD
ENDBRANCH   1   2
BRANCH   1   4
ATOM      4  C   UNL     1      34.469 -21.939 -19.535  0.00  0.00    -0.043 C 
BRANCH   4   5
ATOM      5  N   UNL     1      34.848 -21.978 -18.122  0.00  0.00    +0.391 N 
ATOM      6  N   UNL     1      35.980 -23.109 -15.756  0.00  0.00    -0.298 N 
ATOM      7  C   UNL     1      36.304 -22.105 -17.982  0.00  0.00    -0.055 C 
ATOM      8  C   UNL     1      34.182 -23.095 -17.442  0.00  0.00    -0.055 C 
ATOM      9  C   UNL     1      36.718 -22.090 -16.509  0.00  0.00    +0.069 C 
ATOM     10  C   UNL     1      34.525 -23.113 -15.950  0.00  0.00    +0.069 C 
ATOM     11  H   UNL     1      34.550 -21.104 -17.689  0.00  0.00    -0.079 HD
ATOM     12  N   UNL     1      35.740 -23.424 -13.392  0.00  0.00    -0.229 NA
ATOM     13  C   UNL     1      36.481 -23.569 -14.533  0.00  0.00    +0.132 C 
ATOM     14  C   UNL     1      37.747 -24.171 -14.514  0.00  0.00    +0.034 C 
ATOM     15  C   UNL     1      38.260 -24.631 -13.306  0.00  0.00    +0.004 C 
ATOM     16  C   UNL     1      36.271 -23.884 -12.236  0.00  0.00    +0.100 C 
ATOM     17  C   UNL     1      37.513 -24.490 -12.141  0.00  0.00    +0.021 C 
ENDBRANCH   4   5
ENDBRANCH   1   4
BRANCH   1  18
ATOM     18  C   UNL     1      35.120 -19.954 -21.005  0.00  0.00    +0.232 C 
BRANCH  18  19
ATOM     19  O   UNL     1      35.402 -18.601 -20.659  0.00  0.00    -0.473 OA
BRANCH  19  23
ATOM     20  C   UNL     1      33.914 -15.678 -23.202  0.00  0.00    -0.022 C 
ATOM     21  C   UNL     1      34.527 -16.814 -23.729  0.00  0.00    -0.001 C 
ATOM     22  C   UNL     1      33.802 -15.524 -21.821  0.00  0.00    -0.001 C 
ATOM     23  C   UNL     1      34.912 -17.637 -21.498  0.00  0.00    +0.139 C 
ATOM     24  C   UNL     1      35.027 -17.797 -22.875  0.00  0.00    +0.037 C 
ATOM     25  C   UNL     1      34.303 -16.506 -20.966  0.00  0.00    +0.037 C 
BRANCH  20  26
ATOM     26  C   UNL     1      33.371 -14.609 -24.132  0.00  0.00    +0.022 C 
ATOM     27  C   UNL     1      34.086 -13.260 -23.936  0.00  0.00    +0.004 C 
ATOM     28  C   UNL     1      33.425 -15.050 -25.605  0.00  0.00    +0.004 C 
ATOM     29  C   UNL     1      33.526 -12.189 -24.870  0.00  0.00    +0.000 C 
ATOM     30  C   UNL     1      32.867 -13.972 -26.533  0.00  0.00    +0.000 C 
ATOM     31  C   UNL     1      33.572 -12.635 -26.329  0.00  0.00    +0.000 C 
ENDBRANCH  20  26
ENDBRANCH  19  23
ENDBRANCH  18  19
ENDBRANCH   1  18
TORSDOF 7
ENDMDL
