MODEL 1
REMARK VINA RESULT:     -10.1      0.000      0.000
REMARK  Name = 25113124
REMARK  4 active torsions:
REMARK  status: ('A' for Active; 'I' for Inactive)
REMARK    1  A    between atoms: C_14  and  C_25
REMARK    2  A    between atoms: C_15  and  C_17
REMARK    3  A    between atoms: C_18  and  C_19
REMARK    4  A    between atoms: C_25  and  N_26
REMARK                            x       y       z     vdW  Elec       q    Type
REMARK                         _______ _______ _______ _____ _____    ______ ____
ROOT
ATOM      1  O   UNL     1      35.265 -18.455 -23.637  0.00  0.00    -0.475 OA
ATOM      2  O   UNL     1      32.567 -22.536 -18.345  0.00  0.00    -0.270 OA
ATOM      3  N   UNL     1      34.000 -21.387 -19.775  0.00  0.00    -0.276 N 
ATOM      4  C   UNL     1      34.214 -19.046 -21.517  0.00  0.00    +0.065 C 
ATOM      5  C   UNL     1      32.863 -19.590 -21.027  0.00  0.00    +0.029 C 
ATOM      6  C   UNL     1      35.325 -19.422 -20.514  0.00  0.00    +0.029 C 
ATOM      7  C   UNL     1      34.545 -19.511 -22.956  0.00  0.00    +0.209 C 
ATOM      8  C   UNL     1      34.222 -17.572 -21.776  0.00  0.00    +0.014 C 
ATOM      9  C   UNL     1      32.934 -21.086 -20.734  0.00  0.00    +0.094 C 
ATOM     10  C   UNL     1      35.336 -20.915 -20.166  0.00  0.00    +0.094 C 
ATOM     11  C   UNL     1      34.856 -17.320 -22.985  0.00  0.00    +0.135 C 
ATOM     12  C   UNL     1      33.760 -16.524 -20.996  0.00  0.00    -0.008 C 
ATOM     13  C   UNL     1      35.065 -16.036 -23.454  0.00  0.00    +0.036 C 
ATOM     14  C   UNL     1      33.948 -15.218 -21.457  0.00  0.00    -0.044 C 
ATOM     15  C   UNL     1      33.690 -22.115 -18.628  0.00  0.00    +0.249 C 
ATOM     16  C   UNL     1      34.598 -14.976 -22.677  0.00  0.00    -0.003 C 
ENDROOT
BRANCH  15  17
ATOM     17  C   UNL     1      34.786 -22.409 -17.683  0.00  0.00    +0.058 C 
ATOM     18  C   UNL     1      34.513 -23.148 -16.601  0.00  0.00    +0.005 C 
BRANCH  18  19
ATOM     19  C   UNL     1      35.493 -23.519 -15.565  0.00  0.00    +0.000 C 
ATOM     20  C   UNL     1      35.074 -24.198 -14.420  0.00  0.00    +0.000 C 
ATOM     21  C   UNL     1      36.839 -23.192 -15.728  0.00  0.00    +0.000 C 
ATOM     22  C   UNL     1      36.001 -24.549 -13.439  0.00  0.00    +0.000 C 
ATOM     23  C   UNL     1      37.766 -23.544 -14.747  0.00  0.00    +0.000 C 
ATOM     24  C   UNL     1      37.347 -24.223 -13.603  0.00  0.00    +0.000 C 
ENDBRANCH  18  19
ENDBRANCH  15  17
BRANCH  14  25
ATOM     25  C   UNL     1      33.460 -14.068 -20.639  0.00  0.00    -0.059 C 
BRANCH  25  26
ATOM     26  N   UNL     1      32.351 -13.361 -21.280  0.00  0.00    +0.383 N 
ATOM     27  H   UNL     1      31.668 -14.038 -21.621  0.00  0.00    -0.089 HD
ATOM     28  H   UNL     1      32.704 -12.811 -22.063  0.00  0.00    -0.089 HD
ATOM     29  H   UNL     1      31.906 -12.742 -20.602  0.00  0.00    -0.089 HD
ENDBRANCH  25  26
ENDBRANCH  14  25
TORSDOF 4
ENDMDL
MODEL 2
REMARK VINA RESULT:      -9.1      4.105      6.746
REMARK  Name = 25113124
REMARK  4 active torsions:
REMARK  status: ('A' for Active; 'I' for Inactive)
REMARK    1  A    between atoms: C_14  and  C_25
REMARK    2  A    between atoms: C_15  and  C_17
REMARK    3  A    between atoms: C_18  and  C_19
REMARK    4  A    between atoms: C_25  and  N_26
REMARK                            x       y       z     vdW  Elec       q    Type
REMARK                         _______ _______ _______ _____ _____    ______ ____
ROOT
ATOM      1  O   UNL     1      34.521 -11.097 -24.566  0.00  0.00    -0.475 OA
ATOM      2  O   UNL     1      33.258 -18.133 -25.480  0.00  0.00    -0.270 OA
ATOM      3  N   UNL     1      34.170 -16.088 -24.845  0.00  0.00    -0.276 N 
ATOM      4  C   UNL     1      33.518 -13.298 -24.253  0.00  0.00    +0.065 C 
ATOM      5  C   UNL     1      32.555 -14.229 -25.006  0.00  0.00    +0.029 C 
ATOM      6  C   UNL     1      34.448 -14.130 -23.345  0.00  0.00    +0.029 C 
ATOM      7  C   UNL     1      34.310 -12.376 -25.212  0.00  0.00    +0.209 C 
ATOM      8  C   UNL     1      32.837 -12.226 -23.461  0.00  0.00    +0.014 C 
ATOM      9  C   UNL     1      33.307 -15.328 -25.752  0.00  0.00    +0.094 C 
ATOM     10  C   UNL     1      35.136 -15.280 -24.088  0.00  0.00    +0.094 C 
ATOM     11  C   UNL     1      33.482 -11.015 -23.676  0.00  0.00    +0.135 C 
ATOM     12  C   UNL     1      31.772 -12.305 -22.579  0.00  0.00    -0.008 C 
ATOM     13  C   UNL     1      33.107  -9.855 -23.024  0.00  0.00    +0.036 C 
ATOM     14  C   UNL     1      31.366 -11.142 -21.919  0.00  0.00    -0.044 C 
ATOM     15  C   UNL     1      34.049 -17.476 -24.803  0.00  0.00    +0.249 C 
ATOM     16  C   UNL     1      32.031  -9.925 -22.138  0.00  0.00    -0.003 C 
ENDROOT
BRANCH  15  17
ATOM     17  C   UNL     1      34.937 -18.216 -23.883  0.00  0.00    +0.058 C 
ATOM     18  C   UNL     1      34.460 -18.568 -22.683  0.00  0.00    +0.005 C 
BRANCH  18  19
ATOM     19  C   UNL     1      35.222 -19.300 -21.656  0.00  0.00    +0.000 C 
ATOM     20  C   UNL     1      34.597 -20.293 -20.900  0.00  0.00    +0.000 C 
ATOM     21  C   UNL     1      36.567 -19.001 -21.439  0.00  0.00    +0.000 C 
ATOM     22  C   UNL     1      35.317 -20.985 -19.927  0.00  0.00    +0.000 C 
ATOM     23  C   UNL     1      37.287 -19.694 -20.466  0.00  0.00    +0.000 C 
ATOM     24  C   UNL     1      36.662 -20.687 -19.711  0.00  0.00    +0.000 C 
ENDBRANCH  18  19
ENDBRANCH  15  17
BRANCH  14  25
ATOM     25  C   UNL     1      30.220 -11.195 -20.963  0.00  0.00    -0.059 C 
BRANCH  25  26
ATOM     26  N   UNL     1      30.607 -10.799 -19.609  0.00  0.00    +0.383 N 
ATOM     27  H   UNL     1      30.377  -9.816 -19.463  0.00  0.00    -0.089 HD
ATOM     28  H   UNL     1      31.611 -10.935 -19.488  0.00  0.00    -0.089 HD
ATOM     29  H   UNL     1      30.102 -11.370 -18.931  0.00  0.00    -0.089 HD
ENDBRANCH  25  26
ENDBRANCH  14  25
TORSDOF 4
ENDMDL
MODEL 3
REMARK VINA RESULT:      -8.7      2.969      9.962
REMARK  Name = 25113124
REMARK  4 active torsions:
REMARK  status: ('A' for Active; 'I' for Inactive)
REMARK    1  A    between atoms: C_14  and  C_25
REMARK    2  A    between atoms: C_15  and  C_17
REMARK    3  A    between atoms: C_18  and  C_19
REMARK    4  A    between atoms: C_25  and  N_26
REMARK                            x       y       z     vdW  Elec       q    Type
REMARK                         _______ _______ _______ _____ _____    ______ ____
ROOT
ATOM      1  O   UNL     1      36.401 -23.077 -12.778  0.00  0.00    -0.475 OA
ATOM      2  O   UNL     1      33.695 -23.288 -19.454  0.00  0.00    -0.270 OA
ATOM      3  N   UNL     1      34.760 -22.630 -17.492  0.00  0.00    -0.276 N 
ATOM      4  C   UNL     1      36.203 -23.621 -15.147  0.00  0.00    +0.065 C 
ATOM      5  C   UNL     1      35.349 -24.537 -16.040  0.00  0.00    +0.029 C 
ATOM      6  C   UNL     1      36.705 -22.413 -15.965  0.00  0.00    +0.029 C 
ATOM      7  C   UNL     1      35.451 -23.186 -13.866  0.00  0.00    +0.209 C 
ATOM      8  C   UNL     1      37.350 -24.314 -14.481  0.00  0.00    +0.014 C 
ATOM      9  C   UNL     1      34.229 -23.762 -16.728  0.00  0.00    +0.094 C 
ATOM     10  C   UNL     1      35.581 -21.691 -16.716  0.00  0.00    +0.094 C 
ATOM     11  C   UNL     1      37.406 -23.933 -13.147  0.00  0.00    +0.135 C 
ATOM     12  C   UNL     1      38.305 -25.169 -15.005  0.00  0.00    -0.008 C 
ATOM     13  C   UNL     1      38.405 -24.370 -12.297  0.00  0.00    +0.036 C 
ATOM     14  C   UNL     1      39.317 -25.635 -14.161  0.00  0.00    -0.044 C 
ATOM     15  C   UNL     1      34.421 -22.507 -18.838  0.00  0.00    +0.249 C 
ATOM     16  C   UNL     1      39.368 -25.236 -12.816  0.00  0.00    -0.003 C 
ENDROOT
BRANCH  15  17
ATOM     17  C   UNL     1      34.966 -21.353 -19.582  0.00  0.00    +0.058 C 
ATOM     18  C   UNL     1      34.110 -20.546 -20.221  0.00  0.00    +0.005 C 
BRANCH  18  19
ATOM     19  C   UNL     1      34.498 -19.363 -21.009  0.00  0.00    +0.000 C 
ATOM     20  C   UNL     1      35.592 -19.429 -21.873  0.00  0.00    +0.000 C 
ATOM     21  C   UNL     1      33.773 -18.177 -20.892  0.00  0.00    +0.000 C 
ATOM     22  C   UNL     1      35.960 -18.310 -22.619  0.00  0.00    +0.000 C 
ATOM     23  C   UNL     1      34.141 -17.058 -21.639  0.00  0.00    +0.000 C 
ATOM     24  C   UNL     1      35.234 -17.125 -22.503  0.00  0.00    +0.000 C 
ENDBRANCH  18  19
ENDBRANCH  15  17
BRANCH  14  25
ATOM     25  C   UNL     1      40.360 -26.559 -14.696  0.00  0.00    -0.059 C 
BRANCH  25  26
ATOM     26  N   UNL     1      41.349 -26.928 -13.683  0.00  0.00    +0.383 N 
ATOM     27  H   UNL     1      42.280 -26.933 -14.102  0.00  0.00    -0.089 HD
ATOM     28  H   UNL     1      41.134 -27.856 -13.319  0.00  0.00    -0.089 HD
ATOM     29  H   UNL     1      41.324 -26.249 -12.921  0.00  0.00    -0.089 HD
ENDBRANCH  25  26
ENDBRANCH  14  25
TORSDOF 4
ENDMDL
MODEL 4
REMARK VINA RESULT:      -8.5      2.616      9.207
REMARK  Name = 25113124
REMARK  4 active torsions:
REMARK  status: ('A' for Active; 'I' for Inactive)
REMARK    1  A    between atoms: C_14  and  C_25
REMARK    2  A    between atoms: C_15  and  C_17
REMARK    3  A    between atoms: C_18  and  C_19
REMARK    4  A    between atoms: C_25  and  N_26
REMARK                            x       y       z     vdW  Elec       q    Type
REMARK                         _______ _______ _______ _____ _____    ______ ____
ROOT
ATOM      1  O   UNL     1      32.425 -21.143 -20.599  0.00  0.00    -0.475 OA
ATOM      2  O   UNL     1      35.358 -15.548 -24.067  0.00  0.00    -0.270 OA
ATOM      3  N   UNL     1      34.096 -16.880 -22.635  0.00  0.00    -0.276 N 
ATOM      4  C   UNL     1      34.057 -19.441 -21.220  0.00  0.00    +0.065 C 
ATOM      5  C   UNL     1      35.020 -19.154 -22.384  0.00  0.00    +0.029 C 
ATOM      6  C   UNL     1      33.665 -18.118 -20.528  0.00  0.00    +0.029 C 
ATOM      7  C   UNL     1      32.818 -20.253 -21.671  0.00  0.00    +0.209 C 
ATOM      8  C   UNL     1      34.584 -20.419 -20.218  0.00  0.00    +0.014 C 
ATOM      9  C   UNL     1      34.446 -18.114 -23.342  0.00  0.00    +0.094 C 
ATOM     10  C   UNL     1      33.166 -17.054 -21.511  0.00  0.00    +0.094 C 
ATOM     11  C   UNL     1      33.589 -21.335 -19.902  0.00  0.00    +0.135 C 
ATOM     12  C   UNL     1      35.816 -20.478 -19.587  0.00  0.00    -0.008 C 
ATOM     13  C   UNL     1      33.772 -22.323 -18.953  0.00  0.00    +0.036 C 
ATOM     14  C   UNL     1      36.029 -21.478 -18.634  0.00  0.00    -0.044 C 
ATOM     15  C   UNL     1      34.613 -15.670 -23.094  0.00  0.00    +0.249 C 
ATOM     16  C   UNL     1      35.012 -22.393 -18.317  0.00  0.00    -0.003 C 
ENDROOT
BRANCH  15  17
ATOM     17  C   UNL     1      34.237 -14.441 -22.366  0.00  0.00    +0.058 C 
ATOM     18  C   UNL     1      32.990 -13.975 -22.504  0.00  0.00    +0.005 C 
BRANCH  18  19
ATOM     19  C   UNL     1      32.468 -12.761 -21.851  0.00  0.00    +0.000 C 
ATOM     20  C   UNL     1      32.153 -12.782 -20.492  0.00  0.00    +0.000 C 
ATOM     21  C   UNL     1      32.288 -11.593 -22.591  0.00  0.00    +0.000 C 
ATOM     22  C   UNL     1      31.658 -11.634 -19.874  0.00  0.00    +0.000 C 
ATOM     23  C   UNL     1      31.793 -10.444 -21.972  0.00  0.00    +0.000 C 
ATOM     24  C   UNL     1      31.479 -10.466 -20.613  0.00  0.00    +0.000 C 
ENDBRANCH  18  19
ENDBRANCH  15  17
BRANCH  14  25
ATOM     25  C   UNL     1      37.346 -21.568 -17.939  0.00  0.00    -0.059 C 
BRANCH  25  26
ATOM     26  N   UNL     1      37.246 -21.248 -16.514  0.00  0.00    +0.383 N 
ATOM     27  H   UNL     1      38.036 -20.662 -16.241  0.00  0.00    -0.089 HD
ATOM     28  H   UNL     1      37.258 -22.110 -15.970  0.00  0.00    -0.089 HD
ATOM     29  H   UNL     1      36.375 -20.746 -16.339  0.00  0.00    -0.089 HD
ENDBRANCH  25  26
ENDBRANCH  14  25
TORSDOF 4
ENDMDL
MODEL 5
REMARK VINA RESULT:      -7.8      3.832      9.961
REMARK  Name = 25113124
REMARK  4 active torsions:
REMARK  status: ('A' for Active; 'I' for Inactive)
REMARK    1  A    between atoms: C_14  and  C_25
REMARK    2  A    between atoms: C_15  and  C_17
REMARK    3  A    between atoms: C_18  and  C_19
REMARK    4  A    between atoms: C_25  and  N_26
REMARK                            x       y       z     vdW  Elec       q    Type
REMARK                         _______ _______ _______ _____ _____    ______ ____
ROOT
ATOM      1  O   UNL     1      36.295 -23.264 -11.728  0.00  0.00    -0.475 OA
ATOM      2  O   UNL     1      31.387 -24.296 -16.903  0.00  0.00    -0.270 OA
ATOM      3  N   UNL     1      33.036 -23.390 -15.532  0.00  0.00    -0.276 N 
ATOM      4  C   UNL     1      35.298 -24.066 -13.804  0.00  0.00    +0.065 C 
ATOM      5  C   UNL     1      34.252 -25.105 -14.240  0.00  0.00    +0.029 C 
ATOM      6  C   UNL     1      35.378 -22.934 -14.849  0.00  0.00    +0.029 C 
ATOM      7  C   UNL     1      35.028 -23.527 -12.378  0.00  0.00    +0.209 C 
ATOM      8  C   UNL     1      36.657 -24.638 -13.548  0.00  0.00    +0.014 C 
ATOM      9  C   UNL     1      32.904 -24.453 -14.533  0.00  0.00    +0.094 C 
ATOM     10  C   UNL     1      34.008 -22.341 -15.195  0.00  0.00    +0.094 C 
ATOM     11  C   UNL     1      37.162 -24.114 -12.365  0.00  0.00    +0.135 C 
ATOM     12  C   UNL     1      37.421 -25.507 -14.311  0.00  0.00    -0.008 C 
ATOM     13  C   UNL     1      38.430 -24.418 -11.907  0.00  0.00    +0.036 C 
ATOM     14  C   UNL     1      38.701 -25.839 -13.860  0.00  0.00    -0.044 C 
ATOM     15  C   UNL     1      32.225 -23.425 -16.665  0.00  0.00    +0.249 C 
ATOM     16  C   UNL     1      39.204 -25.297 -12.666  0.00  0.00    -0.003 C 
ENDROOT
BRANCH  15  17
ATOM     17  C   UNL     1      32.376 -22.337 -17.653  0.00  0.00    +0.058 C 
ATOM     18  C   UNL     1      33.441 -22.356 -18.463  0.00  0.00    +0.005 C 
BRANCH  18  19
ATOM     19  C   UNL     1      33.736 -21.342 -19.491  0.00  0.00    +0.000 C 
ATOM     20  C   UNL     1      35.052 -21.127 -19.901  0.00  0.00    +0.000 C 
ATOM     21  C   UNL     1      32.699 -20.596 -20.053  0.00  0.00    +0.000 C 
ATOM     22  C   UNL     1      35.331 -20.167 -20.874  0.00  0.00    +0.000 C 
ATOM     23  C   UNL     1      32.979 -19.636 -21.025  0.00  0.00    +0.000 C 
ATOM     24  C   UNL     1      34.295 -19.422 -21.436  0.00  0.00    +0.000 C 
ENDBRANCH  18  19
ENDBRANCH  15  17
BRANCH  14  25
ATOM     25  C   UNL     1      39.547 -26.773 -14.659  0.00  0.00    -0.059 C 
BRANCH  25  26
ATOM     26  N   UNL     1      40.956 -26.724 -14.264  0.00  0.00    +0.383 N 
ATOM     27  H   UNL     1      41.075 -27.201 -13.371  0.00  0.00    -0.089 HD
ATOM     28  H   UNL     1      41.250 -25.752 -14.173  0.00  0.00    -0.089 HD
ATOM     29  H   UNL     1      41.524 -27.186 -14.974  0.00  0.00    -0.089 HD
ENDBRANCH  25  26
ENDBRANCH  14  25
TORSDOF 4
ENDMDL
MODEL 6
REMARK VINA RESULT:      -7.6      5.341     11.468
REMARK  Name = 25113124
REMARK  4 active torsions:
REMARK  status: ('A' for Active; 'I' for Inactive)
REMARK    1  A    between atoms: C_14  and  C_25
REMARK    2  A    between atoms: C_15  and  C_17
REMARK    3  A    between atoms: C_18  and  C_19
REMARK    4  A    between atoms: C_25  and  N_26
REMARK                            x       y       z     vdW  Elec       q    Type
REMARK                         _______ _______ _______ _____ _____    ______ ____
ROOT
ATOM      1  O   UNL     1      35.609 -16.743 -20.279  0.00  0.00    -0.475 OA
ATOM      2  O   UNL     1      30.670 -11.824 -22.108  0.00  0.00    -0.270 OA
ATOM      3  N   UNL     1      32.671 -12.939 -21.696  0.00  0.00    -0.276 N 
ATOM      4  C   UNL     1      33.921 -15.583 -21.603  0.00  0.00    +0.065 C 
ATOM      5  C   UNL     1      32.396 -15.389 -21.589  0.00  0.00    +0.029 C 
ATOM      6  C   UNL     1      34.595 -14.385 -22.304  0.00  0.00    +0.029 C 
ATOM      7  C   UNL     1      34.493 -15.826 -20.184  0.00  0.00    +0.209 C 
ATOM      8  C   UNL     1      34.368 -16.870 -22.222  0.00  0.00    +0.014 C 
ATOM      9  C   UNL     1      32.009 -14.039 -20.992  0.00  0.00    +0.094 C 
ATOM     10  C   UNL     1      34.137 -13.032 -21.750  0.00  0.00    +0.094 C 
ATOM     11  C   UNL     1      35.342 -17.452 -21.421  0.00  0.00    +0.135 C 
ATOM     12  C   UNL     1      33.996 -17.465 -23.416  0.00  0.00    -0.008 C 
ATOM     13  C   UNL     1      35.984 -18.624 -21.777  0.00  0.00    +0.036 C 
ATOM     14  C   UNL     1      34.622 -18.657 -23.789  0.00  0.00    -0.044 C 
ATOM     15  C   UNL     1      31.895 -11.898 -22.204  0.00  0.00    +0.249 C 
ATOM     16  C   UNL     1      35.611 -19.232 -22.976  0.00  0.00    -0.003 C 
ENDROOT
BRANCH  15  17
ATOM     17  C   UNL     1      32.592 -10.799 -22.904  0.00  0.00    +0.058 C 
ATOM     18  C   UNL     1      32.043  -9.579 -22.877  0.00  0.00    +0.005 C 
BRANCH  18  19
ATOM     19  C   UNL     1      32.610  -8.386 -23.531  0.00  0.00    +0.000 C 
ATOM     20  C   UNL     1      33.988  -8.286 -23.723  0.00  0.00    +0.000 C 
ATOM     21  C   UNL     1      31.770  -7.358 -23.959  0.00  0.00    +0.000 C 
ATOM     22  C   UNL     1      34.526  -7.157 -24.341  0.00  0.00    +0.000 C 
ATOM     23  C   UNL     1      32.308  -6.230 -24.579  0.00  0.00    +0.000 C 
ATOM     24  C   UNL     1      33.686  -6.130 -24.770  0.00  0.00    +0.000 C 
ENDBRANCH  18  19
ENDBRANCH  15  17
BRANCH  14  25
ATOM     25  C   UNL     1      34.242 -19.323 -25.070  0.00  0.00    -0.059 C 
BRANCH  25  26
ATOM     26  N   UNL     1      34.962 -20.580 -25.279  0.00  0.00    +0.383 N 
ATOM     27  H   UNL     1      35.431 -20.850 -24.415  0.00  0.00    -0.089 HD
ATOM     28  H   UNL     1      35.654 -20.456 -26.018  0.00  0.00    -0.089 HD
ATOM     29  H   UNL     1      34.301 -21.309 -25.549  0.00  0.00    -0.089 HD
ENDBRANCH  25  26
ENDBRANCH  14  25
TORSDOF 4
ENDMDL
MODEL 7
REMARK VINA RESULT:      -7.6      2.019      9.136
REMARK  Name = 25113124
REMARK  4 active torsions:
REMARK  status: ('A' for Active; 'I' for Inactive)
REMARK    1  A    between atoms: C_14  and  C_25
REMARK    2  A    between atoms: C_15  and  C_17
REMARK    3  A    between atoms: C_18  and  C_19
REMARK    4  A    between atoms: C_25  and  N_26
REMARK                            x       y       z     vdW  Elec       q    Type
REMARK                         _______ _______ _______ _____ _____    ______ ____
ROOT
ATOM      1  O   UNL     1      33.461 -24.009 -18.875  0.00  0.00    -0.475 OA
ATOM      2  O   UNL     1      36.797 -18.442 -22.007  0.00  0.00    -0.270 OA
ATOM      3  N   UNL     1      35.213 -19.834 -21.022  0.00  0.00    -0.276 N 
ATOM      4  C   UNL     1      34.862 -22.028 -19.118  0.00  0.00    +0.065 C 
ATOM      5  C   UNL     1      36.230 -21.665 -19.717  0.00  0.00    +0.029 C 
ATOM      6  C   UNL     1      33.948 -20.784 -19.110  0.00  0.00    +0.029 C 
ATOM      7  C   UNL     1      34.206 -23.229 -19.841  0.00  0.00    +0.209 C 
ATOM      8  C   UNL     1      34.934 -22.632 -17.751  0.00  0.00    +0.014 C 
ATOM      9  C   UNL     1      36.085 -21.009 -21.087  0.00  0.00    +0.094 C 
ATOM     10  C   UNL     1      33.874 -20.087 -20.472  0.00  0.00    +0.094 C 
ATOM     11  C   UNL     1      34.093 -23.736 -17.690  0.00  0.00    +0.135 C 
ATOM     12  C   UNL     1      35.636 -22.224 -16.628  0.00  0.00    -0.008 C 
ATOM     13  C   UNL     1      33.910 -24.458 -16.526  0.00  0.00    +0.036 C 
ATOM     14  C   UNL     1      35.477 -22.949 -15.444  0.00  0.00    -0.044 C 
ATOM     15  C   UNL     1      35.683 -18.617 -21.512  0.00  0.00    +0.249 C 
ATOM     16  C   UNL     1      34.617 -24.058 -15.392  0.00  0.00    -0.003 C 
ENDROOT
BRANCH  15  17
ATOM     17  C   UNL     1      34.779 -17.451 -21.439  0.00  0.00    +0.058 C 
ATOM     18  C   UNL     1      34.883 -16.504 -22.380  0.00  0.00    +0.005 C 
BRANCH  18  19
ATOM     19  C   UNL     1      34.061 -15.283 -22.439  0.00  0.00    +0.000 C 
ATOM     20  C   UNL     1      33.127 -15.022 -21.436  0.00  0.00    +0.000 C 
ATOM     21  C   UNL     1      34.217 -14.387 -23.497  0.00  0.00    +0.000 C 
ATOM     22  C   UNL     1      32.348 -13.866 -21.492  0.00  0.00    +0.000 C 
ATOM     23  C   UNL     1      33.439 -13.230 -23.552  0.00  0.00    +0.000 C 
ATOM     24  C   UNL     1      32.505 -12.970 -22.549  0.00  0.00    +0.000 C 
ENDBRANCH  18  19
ENDBRANCH  15  17
BRANCH  14  25
ATOM     25  C   UNL     1      36.220 -22.535 -14.218  0.00  0.00    -0.059 C 
BRANCH  25  26
ATOM     26  N   UNL     1      35.797 -23.280 -13.032  0.00  0.00    +0.383 N 
ATOM     27  H   UNL     1      34.917 -22.898 -12.686  0.00  0.00    -0.089 HD
ATOM     28  H   UNL     1      36.510 -23.201 -12.307  0.00  0.00    -0.089 HD
ATOM     29  H   UNL     1      35.667 -24.262 -13.276  0.00  0.00    -0.089 HD
ENDBRANCH  25  26
ENDBRANCH  14  25
TORSDOF 4
ENDMDL
MODEL 8
REMARK VINA RESULT:      -7.4      9.489     14.136
REMARK  Name = 25113124
REMARK  4 active torsions:
REMARK  status: ('A' for Active; 'I' for Inactive)
REMARK    1  A    between atoms: C_14  and  C_25
REMARK    2  A    between atoms: C_15  and  C_17
REMARK    3  A    between atoms: C_18  and  C_19
REMARK    4  A    between atoms: C_25  and  N_26
REMARK                            x       y       z     vdW  Elec       q    Type
REMARK                         _______ _______ _______ _____ _____    ______ ____
ROOT
ATOM      1  O   UNL     1      30.468  -4.493 -23.006  0.00  0.00    -0.475 OA
ATOM      2  O   UNL     1      35.368  -9.723 -23.763  0.00  0.00    -0.270 OA
ATOM      3  N   UNL     1      33.377  -8.523 -23.646  0.00  0.00    -0.276 N 
ATOM      4  C   UNL     1      32.195  -5.874 -24.034  0.00  0.00    +0.065 C 
ATOM      5  C   UNL     1      33.711  -6.091 -23.901  0.00  0.00    +0.029 C 
ATOM      6  C   UNL     1      31.529  -7.154 -24.581  0.00  0.00    +0.029 C 
ATOM      7  C   UNL     1      31.552  -5.404 -22.706  0.00  0.00    +0.209 C 
ATOM      8  C   UNL     1      31.817  -4.691 -24.869  0.00  0.00    +0.014 C 
ATOM      9  C   UNL     1      34.029  -7.338 -23.082  0.00  0.00    +0.094 C 
ATOM     10  C   UNL     1      31.920  -8.413 -23.799  0.00  0.00    +0.094 C 
ATOM     11  C   UNL     1      30.816  -3.974 -24.226  0.00  0.00    +0.135 C 
ATOM     12  C   UNL     1      32.270  -4.296 -26.117  0.00  0.00    -0.008 C 
ATOM     13  C   UNL     1      30.227  -2.861 -24.795  0.00  0.00    +0.036 C 
ATOM     14  C   UNL     1      31.698  -3.164 -26.705  0.00  0.00    -0.044 C 
ATOM     15  C   UNL     1      34.152  -9.643 -23.941  0.00  0.00    +0.249 C 
ATOM     16  C   UNL     1      30.681  -2.453 -26.049  0.00  0.00    -0.003 C 
ENDROOT
BRANCH  15  17
ATOM     17  C   UNL     1      33.466 -10.824 -24.503  0.00  0.00    +0.058 C 
ATOM     18  C   UNL     1      34.210 -11.867 -24.892  0.00  0.00    +0.005 C 
BRANCH  18  19
ATOM     19  C   UNL     1      33.677 -13.110 -25.477  0.00  0.00    +0.000 C 
ATOM     20  C   UNL     1      33.193 -13.112 -26.786  0.00  0.00    +0.000 C 
ATOM     21  C   UNL     1      33.656 -14.284 -24.724  0.00  0.00    +0.000 C 
ATOM     22  C   UNL     1      32.687 -14.288 -27.340  0.00  0.00    +0.000 C 
ATOM     23  C   UNL     1      33.151 -15.460 -25.279  0.00  0.00    +0.000 C 
ATOM     24  C   UNL     1      32.668 -15.462 -26.587  0.00  0.00    +0.000 C 
ENDBRANCH  18  19
ENDBRANCH  15  17
BRANCH  14  25
ATOM     25  C   UNL     1      32.166  -2.712 -28.048  0.00  0.00    -0.059 C 
BRANCH  25  26
ATOM     26  N   UNL     1      31.788  -3.645 -29.112  0.00  0.00    +0.383 N 
ATOM     27  H   UNL     1      30.830  -3.960 -28.963  0.00  0.00    -0.089 HD
ATOM     28  H   UNL     1      32.417  -4.448 -29.098  0.00  0.00    -0.089 HD
ATOM     29  H   UNL     1      31.856  -3.175 -30.015  0.00  0.00    -0.089 HD
ENDBRANCH  25  26
ENDBRANCH  14  25
TORSDOF 4
ENDMDL
MODEL 9
REMARK VINA RESULT:      -7.3      9.792     16.090
REMARK  Name = 25113124
REMARK  4 active torsions:
REMARK  status: ('A' for Active; 'I' for Inactive)
REMARK    1  A    between atoms: C_14  and  C_25
REMARK    2  A    between atoms: C_15  and  C_17
REMARK    3  A    between atoms: C_18  and  C_19
REMARK    4  A    between atoms: C_25  and  N_26
REMARK                            x       y       z     vdW  Elec       q    Type
REMARK                         _______ _______ _______ _____ _____    ______ ____
ROOT
ATOM      1  O   UNL     1      32.231  -7.792 -19.900  0.00  0.00    -0.475 OA
ATOM      2  O   UNL     1      32.304  -5.377 -26.689  0.00  0.00    -0.270 OA
ATOM      3  N   UNL     1      32.917  -6.034 -24.542  0.00  0.00    -0.276 N 
ATOM      4  C   UNL     1      32.221  -7.829 -22.338  0.00  0.00    +0.065 C 
ATOM      5  C   UNL     1      31.244  -7.505 -23.479  0.00  0.00    +0.029 C 
ATOM      6  C   UNL     1      33.674  -7.665 -22.831  0.00  0.00    +0.029 C 
ATOM      7  C   UNL     1      31.937  -6.989 -21.068  0.00  0.00    +0.209 C 
ATOM      8  C   UNL     1      32.025  -9.183 -21.731  0.00  0.00    +0.014 C 
ATOM      9  C   UNL     1      31.527  -6.135 -24.088  0.00  0.00    +0.094 C 
ATOM     10  C   UNL     1      33.926  -6.316 -23.511  0.00  0.00    +0.094 C 
ATOM     11  C   UNL     1      32.068  -9.077 -20.346  0.00  0.00    +0.135 C 
ATOM     12  C   UNL     1      31.874 -10.421 -22.334  0.00  0.00    -0.008 C 
ATOM     13  C   UNL     1      31.976 -10.182 -19.521  0.00  0.00    +0.036 C 
ATOM     14  C   UNL     1      31.766 -11.550 -21.518  0.00  0.00    -0.044 C 
ATOM     15  C   UNL     1      33.170  -5.647 -25.857  0.00  0.00    +0.249 C 
ATOM     16  C   UNL     1      31.818 -11.432 -20.120  0.00  0.00    -0.003 C 
ENDROOT
BRANCH  15  17
ATOM     17  C   UNL     1      34.580  -5.549 -26.284  0.00  0.00    +0.058 C 
ATOM     18  C   UNL     1      34.895  -4.668 -27.242  0.00  0.00    +0.005 C 
BRANCH  18  19
ATOM     19  C   UNL     1      36.251  -4.458 -27.780  0.00  0.00    +0.000 C 
ATOM     20  C   UNL     1      36.888  -5.482 -28.483  0.00  0.00    +0.000 C 
ATOM     21  C   UNL     1      36.898  -3.237 -27.586  0.00  0.00    +0.000 C 
ATOM     22  C   UNL     1      38.171  -5.284 -28.992  0.00  0.00    +0.000 C 
ATOM     23  C   UNL     1      38.182  -3.040 -28.096  0.00  0.00    +0.000 C 
ATOM     24  C   UNL     1      38.817  -4.063 -28.800  0.00  0.00    +0.000 C 
ENDBRANCH  18  19
ENDBRANCH  15  17
BRANCH  14  25
ATOM     25  C   UNL     1      31.601 -12.898 -22.139  0.00  0.00    -0.059 C 
BRANCH  25  26
ATOM     26  N   UNL     1      32.455 -13.907 -21.511  0.00  0.00    +0.383 N 
ATOM     27  H   UNL     1      33.259 -13.451 -21.079  0.00  0.00    -0.089 HD
ATOM     28  H   UNL     1      32.778 -14.567 -22.219  0.00  0.00    -0.089 HD
ATOM     29  H   UNL     1      31.924 -14.405 -20.797  0.00  0.00    -0.089 HD
ENDBRANCH  25  26
ENDBRANCH  14  25
TORSDOF 4
ENDMDL
