MODEL 1
REMARK VINA RESULT:      -8.8      0.000      0.000
REMARK  Name = 97297
REMARK  5 active torsions:
REMARK  status: ('A' for Active; 'I' for Inactive)
REMARK    1  A    between atoms: N_2  and  C1*_12
REMARK    2  A    between atoms: C2*_13  and  O2*_16
REMARK    3  A    between atoms: C3*_14  and  O3*_18
REMARK    4  A    between atoms: C4*_15  and  C5*_20
REMARK    5  A    between atoms: C5*_20  and  O5*_21
REMARK                            x       y       z     vdW  Elec       q    Type
REMARK                         _______ _______ _______ _____ _____    ______ ____
ROOT
ATOM      1  I   UNL     1      30.952 -24.302 -13.635  0.00  0.00    -0.045 I 
ATOM      2  N   UNL     1      34.757 -24.089 -15.432  0.00  0.00    -0.250 N 
ATOM      3  N   UNL     1      34.600 -23.039 -17.598  0.00  0.00    -0.233 NA
ATOM      4  N   UNL     1      32.328 -22.385 -18.178  0.00  0.00    -0.234 NA
ATOM      5  C   UNL     1      34.061 -23.491 -16.451  0.00  0.00    +0.122 C 
ATOM      6  C   UNL     1      33.886 -24.420 -14.423  0.00  0.00    +0.070 C 
ATOM      7  C   UNL     1      32.721 -23.439 -16.088  0.00  0.00    +0.136 C 
ATOM      8  C   UNL     1      32.619 -24.029 -14.802  0.00  0.00    +0.036 C 
ATOM      9  C   UNL     1      31.846 -22.859 -17.006  0.00  0.00    +0.110 C 
ATOM     10  C   UNL     1      33.657 -22.503 -18.398  0.00  0.00    +0.252 C 
ATOM     11  N   UNL     1      30.468 -22.749 -16.750  0.00  0.00    -0.346 N 
ATOM     12  H   UNL     1      29.875 -22.334 -17.419  0.00  0.00    +0.143 HD
ATOM     13  H   UNL     1      30.094 -23.086 -15.905  0.00  0.00    +0.143 HD
ENDROOT
BRANCH   2  15
ATOM     14  O4* UNL     1      36.475 -25.501 -14.604  0.00  0.00    -0.333 OA
ATOM     15  C1* UNL     1      36.197 -24.340 -15.410  0.00  0.00    +0.227 C 
ATOM     16  C2* UNL     1      37.015 -23.205 -14.814  0.00  0.00    +0.187 C 
ATOM     17  C3* UNL     1      38.254 -23.941 -14.344  0.00  0.00    +0.171 C 
ATOM     18  C4* UNL     1      37.677 -25.258 -13.836  0.00  0.00    +0.175 C 
BRANCH  16  19
ATOM     19  O2* UNL     1      37.296 -22.200 -15.767  0.00  0.00    -0.378 OA
ATOM     20  H2* UNL     1      37.524 -22.613 -16.614  0.00  0.00    +0.211 HD
ENDBRANCH  16  19
BRANCH  17  21
ATOM     21  O3* UNL     1      39.101 -24.209 -15.461  0.00  0.00    -0.379 OA
ATOM     22  H3* UNL     1      39.737 -24.902 -15.226  0.00  0.00    +0.211 HD
ENDBRANCH  17  21
BRANCH  18  23
ATOM     23  C5* UNL     1      37.303 -25.214 -12.361  0.00  0.00    +0.169 C 
BRANCH  23  24
ATOM     24  O5* UNL     1      36.722 -26.455 -12.003  0.00  0.00    -0.379 OA
ATOM     25  H5* UNL     1      37.422 -27.112 -11.862  0.00  0.00    +0.211 HD
ENDBRANCH  23  24
ENDBRANCH  18  23
ENDBRANCH   2  15
TORSDOF 5
ENDMDL
MODEL 2
REMARK VINA RESULT:      -8.7      2.335      3.381
REMARK  Name = 97297
REMARK  5 active torsions:
REMARK  status: ('A' for Active; 'I' for Inactive)
REMARK    1  A    between atoms: N_2  and  C1*_12
REMARK    2  A    between atoms: C2*_13  and  O2*_16
REMARK    3  A    between atoms: C3*_14  and  O3*_18
REMARK    4  A    between atoms: C4*_15  and  C5*_20
REMARK    5  A    between atoms: C5*_20  and  O5*_21
REMARK                            x       y       z     vdW  Elec       q    Type
REMARK                         _______ _______ _______ _____ _____    ______ ____
ROOT
ATOM      1  I   UNL     1      33.883 -22.692 -18.310  0.00  0.00    -0.045 I 
ATOM      2  N   UNL     1      34.252 -24.288 -14.428  0.00  0.00    -0.250 N 
ATOM      3  N   UNL     1      32.118 -24.250 -13.304  0.00  0.00    -0.233 NA
ATOM      4  N   UNL     1      30.334 -23.319 -14.673  0.00  0.00    -0.234 NA
ATOM      5  C   UNL     1      32.909 -24.013 -14.365  0.00  0.00    +0.122 C 
ATOM      6  C   UNL     1      34.732 -23.915 -15.660  0.00  0.00    +0.070 C 
ATOM      7  C   UNL     1      32.525 -23.455 -15.577  0.00  0.00    +0.136 C 
ATOM      8  C   UNL     1      33.684 -23.396 -16.392  0.00  0.00    +0.036 C 
ATOM      9  C   UNL     1      31.181 -23.105 -15.707  0.00  0.00    +0.110 C 
ATOM     10  C   UNL     1      30.848 -23.871 -13.551  0.00  0.00    +0.252 C 
ATOM     11  N   UNL     1      30.673 -22.532 -16.886  0.00  0.00    -0.346 N 
ATOM     12  H   UNL     1      29.719 -22.294 -16.946  0.00  0.00    +0.143 HD
ATOM     13  H   UNL     1      31.270 -22.366 -17.651  0.00  0.00    +0.143 HD
ENDROOT
BRANCH   2  15
ATOM     14  O4* UNL     1      35.243 -23.925 -12.303  0.00  0.00    -0.333 OA
ATOM     15  C1* UNL     1      35.055 -24.883 -13.362  0.00  0.00    +0.227 C 
ATOM     16  C2* UNL     1      36.447 -25.310 -13.799  0.00  0.00    +0.187 C 
ATOM     17  C3* UNL     1      37.203 -25.262 -12.486  0.00  0.00    +0.171 C 
ATOM     18  C4* UNL     1      36.596 -24.039 -11.805  0.00  0.00    +0.175 C 
BRANCH  16  19
ATOM     19  O2* UNL     1      36.445 -26.594 -14.390  0.00  0.00    -0.378 OA
ATOM     20  H2* UNL     1      35.558 -26.792 -14.728  0.00  0.00    +0.211 HD
ENDBRANCH  16  19
BRANCH  17  21
ATOM     21  O3* UNL     1      36.891 -26.422 -11.715  0.00  0.00    -0.379 OA
ATOM     22  H3* UNL     1      35.994 -26.340 -11.356  0.00  0.00    +0.211 HD
ENDBRANCH  17  21
BRANCH  18  23
ATOM     23  C5* UNL     1      37.338 -22.750 -12.129  0.00  0.00    +0.169 C 
BRANCH  23  24
ATOM     24  O5* UNL     1      38.661 -22.851 -11.633  0.00  0.00    -0.379 OA
ATOM     25  H5* UNL     1      38.642 -23.200 -10.728  0.00  0.00    +0.211 HD
ENDBRANCH  23  24
ENDBRANCH  18  23
ENDBRANCH   2  15
TORSDOF 5
ENDMDL
MODEL 3
REMARK VINA RESULT:      -8.2      2.287      3.475
REMARK  Name = 97297
REMARK  5 active torsions:
REMARK  status: ('A' for Active; 'I' for Inactive)
REMARK    1  A    between atoms: N_2  and  C1*_12
REMARK    2  A    between atoms: C2*_13  and  O2*_16
REMARK    3  A    between atoms: C3*_14  and  O3*_18
REMARK    4  A    between atoms: C4*_15  and  C5*_20
REMARK    5  A    between atoms: C5*_20  and  O5*_21
REMARK                            x       y       z     vdW  Elec       q    Type
REMARK                         _______ _______ _______ _____ _____    ______ ____
ROOT
ATOM      1  I   UNL     1      36.067 -21.661 -19.001  0.00  0.00    -0.045 I 
ATOM      2  N   UNL     1      36.046 -23.289 -15.115  0.00  0.00    -0.250 N 
ATOM      3  N   UNL     1      33.806 -23.935 -14.493  0.00  0.00    -0.233 NA
ATOM      4  N   UNL     1      32.166 -23.489 -16.235  0.00  0.00    -0.234 NA
ATOM      5  C   UNL     1      34.701 -23.421 -15.355  0.00  0.00    +0.122 C 
ATOM      6  C   UNL     1      36.647 -22.727 -16.214  0.00  0.00    +0.070 C 
ATOM      7  C   UNL     1      34.440 -22.933 -16.629  0.00  0.00    +0.136 C 
ATOM      8  C   UNL     1      35.677 -22.496 -17.166  0.00  0.00    +0.036 C 
ATOM      9  C   UNL     1      33.113 -22.982 -17.057  0.00  0.00    +0.110 C 
ATOM     10  C   UNL     1      32.566 -23.928 -15.020  0.00  0.00    +0.252 C 
ATOM     11  N   UNL     1      32.725 -22.518 -18.327  0.00  0.00    -0.346 N 
ATOM     12  H   UNL     1      31.780 -22.566 -18.600  0.00  0.00    +0.143 HD
ATOM     13  H   UNL     1      33.396 -22.145 -18.942  0.00  0.00    +0.143 HD
ENDROOT
BRANCH   2  15
ATOM     14  O4* UNL     1      38.157 -23.483 -14.050  0.00  0.00    -0.333 OA
ATOM     15  C1* UNL     1      36.739 -23.682 -13.890  0.00  0.00    +0.227 C 
ATOM     16  C2* UNL     1      36.557 -25.145 -13.516  0.00  0.00    +0.187 C 
ATOM     17  C3* UNL     1      37.800 -25.401 -12.686  0.00  0.00    +0.171 C 
ATOM     18  C4* UNL     1      38.856 -24.584 -13.423  0.00  0.00    +0.175 C 
BRANCH  16  19
ATOM     19  O2* UNL     1      35.358 -25.360 -12.798  0.00  0.00    -0.378 OA
ATOM     20  H2* UNL     1      34.932 -24.508 -12.618  0.00  0.00    +0.211 HD
ENDBRANCH  16  19
BRANCH  17  21
ATOM     21  O3* UNL     1      37.621 -24.856 -11.380  0.00  0.00    -0.379 OA
ATOM     22  H3* UNL     1      36.927 -24.179 -11.405  0.00  0.00    +0.211 HD
ENDBRANCH  17  21
BRANCH  18  23
ATOM     23  C5* UNL     1      39.574 -25.377 -14.506  0.00  0.00    +0.169 C 
BRANCH  23  24
ATOM     24  O5* UNL     1      40.923 -24.950 -14.561  0.00  0.00    -0.379 OA
ATOM     25  H5* UNL     1      41.510 -25.720 -14.490  0.00  0.00    +0.211 HD
ENDBRANCH  23  24
ENDBRANCH  18  23
ENDBRANCH   2  15
TORSDOF 5
ENDMDL
MODEL 4
REMARK VINA RESULT:      -8.2      1.764      2.367
REMARK  Name = 97297
REMARK  5 active torsions:
REMARK  status: ('A' for Active; 'I' for Inactive)
REMARK    1  A    between atoms: N_2  and  C1*_12
REMARK    2  A    between atoms: C2*_13  and  O2*_16
REMARK    3  A    between atoms: C3*_14  and  O3*_18
REMARK    4  A    between atoms: C4*_15  and  C5*_20
REMARK    5  A    between atoms: C5*_20  and  O5*_21
REMARK                            x       y       z     vdW  Elec       q    Type
REMARK                         _______ _______ _______ _____ _____    ______ ____
ROOT
ATOM      1  I   UNL     1      31.383 -23.543 -15.849  0.00  0.00    -0.045 I 
ATOM      2  N   UNL     1      35.549 -23.267 -15.275  0.00  0.00    -0.250 N 
ATOM      3  N   UNL     1      36.603 -22.351 -17.241  0.00  0.00    -0.233 NA
ATOM      4  N   UNL     1      35.022 -21.831 -19.017  0.00  0.00    -0.234 NA
ATOM      5  C   UNL     1      35.524 -22.759 -16.549  0.00  0.00    +0.122 C 
ATOM      6  C   UNL     1      34.267 -23.577 -14.888  0.00  0.00    +0.070 C 
ATOM      7  C   UNL     1      34.206 -22.745 -16.984  0.00  0.00    +0.136 C 
ATOM      8  C   UNL     1      33.416 -23.264 -15.927  0.00  0.00    +0.036 C 
ATOM      9  C   UNL     1      33.977 -22.258 -18.271  0.00  0.00    +0.110 C 
ATOM     10  C   UNL     1      36.253 -21.904 -18.464  0.00  0.00    +0.252 C 
ATOM     11  N   UNL     1      32.685 -22.193 -18.822  0.00  0.00    -0.346 N 
ATOM     12  H   UNL     1      32.556 -21.844 -19.734  0.00  0.00    +0.143 HD
ATOM     13  H   UNL     1      31.910 -22.498 -18.298  0.00  0.00    +0.143 HD
ENDROOT
BRANCH   2  15
ATOM     14  O4* UNL     1      37.655 -24.346 -15.112  0.00  0.00    -0.333 OA
ATOM     15  C1* UNL     1      36.740 -23.453 -14.449  0.00  0.00    +0.227 C 
ATOM     16  C2* UNL     1      36.460 -24.067 -13.086  0.00  0.00    +0.187 C 
ATOM     17  C3* UNL     1      37.798 -24.704 -12.763  0.00  0.00    +0.171 C 
ATOM     18  C4* UNL     1      38.250 -25.221 -14.125  0.00  0.00    +0.175 C 
BRANCH  16  19
ATOM     19  O2* UNL     1      36.067 -23.094 -12.140  0.00  0.00    -0.378 OA
ATOM     20  H2* UNL     1      36.603 -23.189 -11.337  0.00  0.00    +0.211 HD
ENDBRANCH  16  19
BRANCH  17  21
ATOM     21  O3* UNL     1      38.710 -23.698 -12.325  0.00  0.00    -0.379 OA
ATOM     22  H3* UNL     1      39.061 -23.223 -13.095  0.00  0.00    +0.211 HD
ENDBRANCH  17  21
BRANCH  18  23
ATOM     23  C5* UNL     1      37.787 -26.645 -14.403  0.00  0.00    +0.169 C 
BRANCH  23  24
ATOM     24  O5* UNL     1      37.344 -26.722 -15.746  0.00  0.00    -0.379 OA
ATOM     25  H5* UNL     1      37.853 -26.102 -16.292  0.00  0.00    +0.211 HD
ENDBRANCH  23  24
ENDBRANCH  18  23
ENDBRANCH   2  15
TORSDOF 5
ENDMDL
MODEL 5
REMARK VINA RESULT:      -8.1      3.637      5.988
REMARK  Name = 97297
REMARK  5 active torsions:
REMARK  status: ('A' for Active; 'I' for Inactive)
REMARK    1  A    between atoms: N_2  and  C1*_12
REMARK    2  A    between atoms: C2*_13  and  O2*_16
REMARK    3  A    between atoms: C3*_14  and  O3*_18
REMARK    4  A    between atoms: C4*_15  and  C5*_20
REMARK    5  A    between atoms: C5*_20  and  O5*_21
REMARK                            x       y       z     vdW  Elec       q    Type
REMARK                         _______ _______ _______ _____ _____    ______ ____
ROOT
ATOM      1  I   UNL     1      34.602 -21.991 -19.451  0.00  0.00    -0.045 I 
ATOM      2  N   UNL     1      33.294 -23.521 -15.748  0.00  0.00    -0.250 N 
ATOM      3  N   UNL     1      35.124 -23.586 -14.179  0.00  0.00    -0.233 NA
ATOM      4  N   UNL     1      37.216 -22.768 -15.117  0.00  0.00    -0.234 NA
ATOM      5  C   UNL     1      34.602 -23.318 -15.389  0.00  0.00    +0.122 C 
ATOM      6  C   UNL     1      33.120 -23.135 -17.056  0.00  0.00    +0.070 C 
ATOM      7  C   UNL     1      35.276 -22.795 -16.485  0.00  0.00    +0.136 C 
ATOM      8  C   UNL     1      34.331 -22.683 -17.536  0.00  0.00    +0.036 C 
ATOM      9  C   UNL     1      36.633 -22.520 -16.313  0.00  0.00    +0.110 C 
ATOM     10  C   UNL     1      36.436 -23.279 -14.138  0.00  0.00    +0.252 C 
ATOM     11  N   UNL     1      37.420 -21.988 -17.349  0.00  0.00    -0.346 N 
ATOM     12  H   UNL     1      38.376 -21.806 -17.196  0.00  0.00    +0.143 HD
ATOM     13  H   UNL     1      37.018 -21.801 -18.227  0.00  0.00    +0.143 HD
ENDROOT
BRANCH   2  15
ATOM     14  O4* UNL     1      31.075 -24.357 -15.676  0.00  0.00    -0.333 OA
ATOM     15  C1* UNL     1      32.243 -24.059 -14.888  0.00  0.00    +0.227 C 
ATOM     16  C2* UNL     1      31.784 -23.103 -13.797  0.00  0.00    +0.187 C 
ATOM     17  C3* UNL     1      30.379 -23.604 -13.528  0.00  0.00    +0.171 C 
ATOM     18  C4* UNL     1      29.896 -23.984 -14.925  0.00  0.00    +0.175 C 
BRANCH  16  19
ATOM     19  O2* UNL     1      32.620 -23.161 -12.659  0.00  0.00    -0.378 OA
ATOM     20  H2* UNL     1      32.196 -23.701 -11.974  0.00  0.00    +0.211 HD
ENDBRANCH  16  19
BRANCH  17  21
ATOM     21  O3* UNL     1      30.440 -24.781 -12.725  0.00  0.00    -0.379 OA
ATOM     22  H3* UNL     1      31.264 -24.782 -12.213  0.00  0.00    +0.211 HD
ENDBRANCH  17  21
BRANCH  18  23
ATOM     23  C5* UNL     1      29.208 -22.836 -15.649  0.00  0.00    +0.169 C 
BRANCH  23  24
ATOM     24  O5* UNL     1      29.693 -22.782 -16.978  0.00  0.00    -0.379 OA
ATOM     25  H5* UNL     1      30.174 -23.600 -17.180  0.00  0.00    +0.211 HD
ENDBRANCH  23  24
ENDBRANCH  18  23
ENDBRANCH   2  15
TORSDOF 5
ENDMDL
MODEL 6
REMARK VINA RESULT:      -7.9      1.242      2.367
REMARK  Name = 97297
REMARK  5 active torsions:
REMARK  status: ('A' for Active; 'I' for Inactive)
REMARK    1  A    between atoms: N_2  and  C1*_12
REMARK    2  A    between atoms: C2*_13  and  O2*_16
REMARK    3  A    between atoms: C3*_14  and  O3*_18
REMARK    4  A    between atoms: C4*_15  and  C5*_20
REMARK    5  A    between atoms: C5*_20  and  O5*_21
REMARK                            x       y       z     vdW  Elec       q    Type
REMARK                         _______ _______ _______ _____ _____    ______ ____
ROOT
ATOM      1  I   UNL     1      30.049 -24.050 -13.746  0.00  0.00    -0.045 I 
ATOM      2  N   UNL     1      34.170 -24.223 -14.607  0.00  0.00    -0.250 N 
ATOM      3  N   UNL     1      34.598 -23.356 -16.816  0.00  0.00    -0.233 NA
ATOM      4  N   UNL     1      32.580 -22.617 -17.959  0.00  0.00    -0.234 NA
ATOM      5  C   UNL     1      33.776 -23.673 -15.800  0.00  0.00    +0.122 C 
ATOM      6  C   UNL     1      33.066 -24.412 -13.811  0.00  0.00    +0.070 C 
ATOM      7  C   UNL     1      32.397 -23.509 -15.767  0.00  0.00    +0.136 C 
ATOM      8  C   UNL     1      31.955 -23.979 -14.504  0.00  0.00    +0.036 C 
ATOM      9  C   UNL     1      31.805 -22.959 -16.903  0.00  0.00    +0.110 C 
ATOM     10  C   UNL     1      33.910 -22.834 -17.852  0.00  0.00    +0.252 C 
ATOM     11  N   UNL     1      30.418 -22.744 -16.988  0.00  0.00    -0.346 N 
ATOM     12  H   UNL     1      30.030 -22.353 -17.805  0.00  0.00    +0.143 HD
ATOM     13  H   UNL     1      29.835 -22.984 -16.233  0.00  0.00    +0.143 HD
ENDROOT
BRANCH   2  15
ATOM     14  O4* UNL     1      36.342 -23.360 -14.196  0.00  0.00    -0.333 OA
ATOM     15  C1* UNL     1      35.541 -24.557 -14.229  0.00  0.00    +0.227 C 
ATOM     16  C2* UNL     1      36.237 -25.504 -15.194  0.00  0.00    +0.187 C 
ATOM     17  C3* UNL     1      37.695 -25.167 -14.949  0.00  0.00    +0.171 C 
ATOM     18  C4* UNL     1      37.648 -23.656 -14.741  0.00  0.00    +0.175 C 
BRANCH  16  19
ATOM     19  O2* UNL     1      35.929 -26.856 -14.921  0.00  0.00    -0.378 OA
ATOM     20  H2* UNL     1      35.004 -26.926 -14.638  0.00  0.00    +0.211 HD
ENDBRANCH  16  19
BRANCH  17  21
ATOM     21  O3* UNL     1      38.130 -25.786 -13.740  0.00  0.00    -0.379 OA
ATOM     22  H3* UNL     1      37.521 -25.556 -13.021  0.00  0.00    +0.211 HD
ENDBRANCH  17  21
BRANCH  18  23
ATOM     23  C5* UNL     1      37.819 -22.872 -16.034  0.00  0.00    +0.169 C 
BRANCH  23  24
ATOM     24  O5* UNL     1      36.951 -21.753 -16.003  0.00  0.00    -0.379 OA
ATOM     25  H5* UNL     1      37.317 -21.043 -16.555  0.00  0.00    +0.211 HD
ENDBRANCH  23  24
ENDBRANCH  18  23
ENDBRANCH   2  15
TORSDOF 5
ENDMDL
MODEL 7
REMARK VINA RESULT:      -7.5      1.873      2.668
REMARK  Name = 97297
REMARK  5 active torsions:
REMARK  status: ('A' for Active; 'I' for Inactive)
REMARK    1  A    between atoms: N_2  and  C1*_12
REMARK    2  A    between atoms: C2*_13  and  O2*_16
REMARK    3  A    between atoms: C3*_14  and  O3*_18
REMARK    4  A    between atoms: C4*_15  and  C5*_20
REMARK    5  A    between atoms: C5*_20  and  O5*_21
REMARK                            x       y       z     vdW  Elec       q    Type
REMARK                         _______ _______ _______ _____ _____    ______ ____
ROOT
ATOM      1  I   UNL     1      30.131 -23.589 -15.545  0.00  0.00    -0.045 I 
ATOM      2  N   UNL     1      34.022 -24.439 -14.169  0.00  0.00    -0.250 N 
ATOM      3  N   UNL     1      35.659 -23.671 -15.766  0.00  0.00    -0.233 NA
ATOM      4  N   UNL     1      34.662 -22.621 -17.723  0.00  0.00    -0.234 NA
ATOM      5  C   UNL     1      34.392 -23.842 -15.347  0.00  0.00    +0.122 C 
ATOM      6  C   UNL     1      32.652 -24.439 -14.074  0.00  0.00    +0.070 C 
ATOM      7  C   UNL     1      33.238 -23.455 -16.017  0.00  0.00    +0.136 C 
ATOM      8  C   UNL     1      32.141 -23.836 -15.204  0.00  0.00    +0.036 C 
ATOM      9  C   UNL     1      33.412 -22.823 -17.248  0.00  0.00    +0.110 C 
ATOM     10  C   UNL     1      35.694 -23.052 -16.963  0.00  0.00    +0.252 C 
ATOM     11  N   UNL     1      32.320 -22.386 -18.019  0.00  0.00    -0.346 N 
ATOM     12  H   UNL     1      32.475 -21.943 -18.885  0.00  0.00    +0.143 HD
ATOM     13  H   UNL     1      31.401 -22.522 -17.694  0.00  0.00    +0.143 HD
ENDROOT
BRANCH   2  15
ATOM     14  O4* UNL     1      35.105 -24.042 -12.096  0.00  0.00    -0.333 OA
ATOM     15  C1* UNL     1      34.931 -24.990 -13.166  0.00  0.00    +0.227 C 
ATOM     16  C2* UNL     1      36.325 -25.295 -13.693  0.00  0.00    +0.187 C 
ATOM     17  C3* UNL     1      37.151 -25.214 -12.424  0.00  0.00    +0.171 C 
ATOM     18  C4* UNL     1      36.491 -24.057 -11.679  0.00  0.00    +0.175 C 
BRANCH  16  19
ATOM     19  O2* UNL     1      36.389 -26.562 -14.315  0.00  0.00    -0.378 OA
ATOM     20  H2* UNL     1      35.515 -26.982 -14.281  0.00  0.00    +0.211 HD
ENDBRANCH  16  19
BRANCH  17  21
ATOM     21  O3* UNL     1      36.977 -26.410 -11.666  0.00  0.00    -0.379 OA
ATOM     22  H3* UNL     1      37.003 -27.176 -12.260  0.00  0.00    +0.211 HD
ENDBRANCH  17  21
BRANCH  18  23
ATOM     23  C5* UNL     1      37.108 -22.706 -12.012  0.00  0.00    +0.169 C 
BRANCH  23  24
ATOM     24  O5* UNL     1      38.473 -22.727 -11.636  0.00  0.00    -0.379 OA
ATOM     25  H5* UNL     1      38.560 -23.120 -10.753  0.00  0.00    +0.211 HD
ENDBRANCH  23  24
ENDBRANCH  18  23
ENDBRANCH   2  15
TORSDOF 5
ENDMDL
MODEL 8
REMARK VINA RESULT:      -7.5      3.785      5.989
REMARK  Name = 97297
REMARK  5 active torsions:
REMARK  status: ('A' for Active; 'I' for Inactive)
REMARK    1  A    between atoms: N_2  and  C1*_12
REMARK    2  A    between atoms: C2*_13  and  O2*_16
REMARK    3  A    between atoms: C3*_14  and  O3*_18
REMARK    4  A    between atoms: C4*_15  and  C5*_20
REMARK    5  A    between atoms: C5*_20  and  O5*_21
REMARK                            x       y       z     vdW  Elec       q    Type
REMARK                         _______ _______ _______ _____ _____    ______ ____
ROOT
ATOM      1  I   UNL     1      36.419 -23.607 -12.739  0.00  0.00    -0.045 I 
ATOM      2  N   UNL     1      32.807 -24.253 -14.811  0.00  0.00    -0.250 N 
ATOM      3  N   UNL     1      32.993 -23.457 -17.080  0.00  0.00    -0.233 NA
ATOM      4  N   UNL     1      35.176 -22.505 -17.582  0.00  0.00    -0.234 NA
ATOM      5  C   UNL     1      33.490 -23.672 -15.849  0.00  0.00    +0.122 C 
ATOM      6  C   UNL     1      33.625 -24.310 -13.709  0.00  0.00    +0.070 C 
ATOM      7  C   UNL     1      34.766 -23.353 -15.403  0.00  0.00    +0.136 C 
ATOM      8  C   UNL     1      34.843 -23.760 -14.047  0.00  0.00    +0.036 C 
ATOM      9  C   UNL     1      35.618 -22.747 -16.326  0.00  0.00    +0.110 C 
ATOM     10  C   UNL     1      33.908 -22.870 -17.877  0.00  0.00    +0.252 C 
ATOM     11  N   UNL     1      36.933 -22.378 -15.992  0.00  0.00    -0.346 N 
ATOM     12  H   UNL     1      37.510 -21.951 -16.666  0.00  0.00    +0.143 HD
ATOM     13  H   UNL     1      37.276 -22.544 -15.085  0.00  0.00    +0.143 HD
ENDROOT
BRANCH   2  15
ATOM     14  O4* UNL     1      30.853 -24.444 -16.144  0.00  0.00    -0.333 OA
ATOM     15  C1* UNL     1      31.429 -24.738 -14.857  0.00  0.00    +0.227 C 
ATOM     16  C2* UNL     1      30.511 -24.099 -13.827  0.00  0.00    +0.187 C 
ATOM     17  C3* UNL     1      29.156 -24.266 -14.485  0.00  0.00    +0.171 C 
ATOM     18  C4* UNL     1      29.479 -24.033 -15.958  0.00  0.00    +0.175 C 
BRANCH  16  19
ATOM     19  O2* UNL     1      30.599 -24.740 -12.571  0.00  0.00    -0.378 OA
ATOM     20  H2* UNL     1      31.529 -24.797 -12.302  0.00  0.00    +0.211 HD
ENDBRANCH  16  19
BRANCH  17  21
ATOM     21  O3* UNL     1      28.709 -25.610 -14.318  0.00  0.00    -0.379 OA
ATOM     22  H3* UNL     1      29.379 -26.220 -14.664  0.00  0.00    +0.211 HD
ENDBRANCH  17  21
BRANCH  18  23
ATOM     23  C5* UNL     1      29.354 -22.573 -16.371  0.00  0.00    +0.169 C 
BRANCH  23  24
ATOM     24  O5* UNL     1      30.470 -22.232 -17.172  0.00  0.00    -0.379 OA
ATOM     25  H5* UNL     1      31.129 -22.943 -17.131  0.00  0.00    +0.211 HD
ENDBRANCH  23  24
ENDBRANCH  18  23
ENDBRANCH   2  15
TORSDOF 5
ENDMDL
MODEL 9
REMARK VINA RESULT:      -7.4      1.557      1.916
REMARK  Name = 97297
REMARK  5 active torsions:
REMARK  status: ('A' for Active; 'I' for Inactive)
REMARK    1  A    between atoms: N_2  and  C1*_12
REMARK    2  A    between atoms: C2*_13  and  O2*_16
REMARK    3  A    between atoms: C3*_14  and  O3*_18
REMARK    4  A    between atoms: C4*_15  and  C5*_20
REMARK    5  A    between atoms: C5*_20  and  O5*_21
REMARK                            x       y       z     vdW  Elec       q    Type
REMARK                         _______ _______ _______ _____ _____    ______ ____
ROOT
ATOM      1  I   UNL     1      30.884 -23.326 -16.385  0.00  0.00    -0.045 I 
ATOM      2  N   UNL     1      35.050 -23.681 -15.857  0.00  0.00    -0.250 N 
ATOM      3  N   UNL     1      36.216 -22.579 -17.657  0.00  0.00    -0.233 NA
ATOM      4  N   UNL     1      34.718 -21.563 -19.284  0.00  0.00    -0.234 NA
ATOM      5  C   UNL     1      35.093 -22.961 -17.023  0.00  0.00    +0.122 C 
ATOM      6  C   UNL     1      33.739 -23.889 -15.504  0.00  0.00    +0.070 C 
ATOM      7  C   UNL     1      33.788 -22.705 -17.423  0.00  0.00    +0.136 C 
ATOM      8  C   UNL     1      32.936 -23.296 -16.456  0.00  0.00    +0.036 C 
ATOM      9  C   UNL     1      33.626 -21.977 -18.601  0.00  0.00    +0.110 C 
ATOM     10  C   UNL     1      35.929 -21.885 -18.777  0.00  0.00    +0.252 C 
ATOM     11  N   UNL     1      32.354 -21.656 -19.107  0.00  0.00    -0.346 N 
ATOM     12  H   UNL     1      32.272 -21.140 -19.942  0.00  0.00    +0.143 HD
ATOM     13  H   UNL     1      31.545 -21.946 -18.628  0.00  0.00    +0.143 HD
ENDROOT
BRANCH   2  15
ATOM     14  O4* UNL     1      35.779 -25.111 -14.109  0.00  0.00    -0.333 OA
ATOM     15  C1* UNL     1      36.206 -24.156 -15.100  0.00  0.00    +0.227 C 
ATOM     16  C2* UNL     1      36.944 -23.063 -14.344  0.00  0.00    +0.187 C 
ATOM     17  C3* UNL     1      37.601 -23.856 -13.231  0.00  0.00    +0.171 C 
ATOM     18  C4* UNL     1      36.532 -24.890 -12.893  0.00  0.00    +0.175 C 
BRANCH  16  19
ATOM     19  O2* UNL     1      37.875 -22.388 -15.167  0.00  0.00    -0.378 OA
ATOM     20  H2* UNL     1      37.511 -22.302 -16.061  0.00  0.00    +0.211 HD
ENDBRANCH  16  19
BRANCH  17  21
ATOM     21  O3* UNL     1      38.750 -24.531 -13.743  0.00  0.00    -0.379 OA
ATOM     22  H3* UNL     1      39.124 -25.100 -13.053  0.00  0.00    +0.211 HD
ENDBRANCH  17  21
BRANCH  18  23
ATOM     23  C5* UNL     1      35.570 -24.418 -11.811  0.00  0.00    +0.169 C 
BRANCH  23  24
ATOM     24  O5* UNL     1      34.271 -24.890 -12.123  0.00  0.00    -0.379 OA
ATOM     25  H5* UNL     1      33.638 -24.156 -12.070  0.00  0.00    +0.211 HD
ENDBRANCH  23  24
ENDBRANCH  18  23
ENDBRANCH   2  15
TORSDOF 5
ENDMDL
