MODEL 1
REMARK VINA RESULT:      -7.3      0.000      0.000
REMARK  Name = 2733
REMARK  0 active torsions:
REMARK  status: ('A' for Active; 'I' for Inactive)
REMARK                            x       y       z     vdW  Elec       q    Type
REMARK                         _______ _______ _______ _____ _____    ______ ____
ROOT
ATOM      1 CL   UNL     1      36.263 -18.363 -22.019  0.00  0.00    -0.082 Cl
ATOM      2  O   UNL     1      32.788 -22.008 -19.035  0.00  0.00    -0.407 OA
ATOM      3  O   UNL     1      33.609 -23.701 -17.690  0.00  0.00    -0.223 OA
ATOM      4  N   UNL     1      35.061 -22.292 -18.845  0.00  0.00    -0.287 N 
ATOM      5  C   UNL     1      34.852 -21.234 -19.689  0.00  0.00    +0.097 A 
ATOM      6  C   UNL     1      33.486 -21.080 -19.792  0.00  0.00    +0.166 A 
ATOM      7  C   UNL     1      35.749 -20.427 -20.352  0.00  0.00    +0.032 C 
ATOM      8  C   UNL     1      32.933 -20.091 -20.576  0.00  0.00    +0.040 C 
ATOM      9  C   UNL     1      35.210 -19.418 -21.154  0.00  0.00    +0.059 C 
ATOM     10  C   UNL     1      33.820 -22.762 -18.447  0.00  0.00    +0.419 A 
ATOM     11  C   UNL     1      33.814 -19.251 -21.265  0.00  0.00    +0.015 C 
ATOM     12  H   UNL     1      35.935 -22.652 -18.570  0.00  0.00    +0.172 HD
ENDROOT
TORSDOF 0
ENDMDL
MODEL 2
REMARK VINA RESULT:      -7.1      1.293      1.987
REMARK  Name = 2733
REMARK  0 active torsions:
REMARK  status: ('A' for Active; 'I' for Inactive)
REMARK                            x       y       z     vdW  Elec       q    Type
REMARK                         _______ _______ _______ _____ _____    ______ ____
ROOT
ATOM      1 CL   UNL     1      34.537 -18.634 -22.248  0.00  0.00    -0.082 Cl
ATOM      2  O   UNL     1      34.754 -22.749 -18.091  0.00  0.00    -0.407 OA
ATOM      3  O   UNL     1      32.858 -23.676 -17.145  0.00  0.00    -0.223 OA
ATOM      4  N   UNL     1      32.685 -22.041 -18.796  0.00  0.00    -0.287 N 
ATOM      5  C   UNL     1      33.620 -21.340 -19.511  0.00  0.00    +0.097 A 
ATOM      6  C   UNL     1      34.852 -21.777 -19.074  0.00  0.00    +0.166 A 
ATOM      7  C   UNL     1      33.467 -20.377 -20.482  0.00  0.00    +0.032 C 
ATOM      8  C   UNL     1      36.020 -21.266 -19.597  0.00  0.00    +0.040 C 
ATOM      9  C   UNL     1      34.639 -19.845 -21.026  0.00  0.00    +0.059 C 
ATOM     10  C   UNL     1      33.363 -22.892 -17.939  0.00  0.00    +0.419 A 
ATOM     11  C   UNL     1      35.905 -20.285 -20.588  0.00  0.00    +0.015 C 
ATOM     12  H   UNL     1      31.707 -21.956 -18.878  0.00  0.00    +0.172 HD
ENDROOT
TORSDOF 0
ENDMDL
MODEL 3
REMARK VINA RESULT:      -6.7      6.298      7.521
REMARK  Name = 2733
REMARK  0 active torsions:
REMARK  status: ('A' for Active; 'I' for Inactive)
REMARK                            x       y       z     vdW  Elec       q    Type
REMARK                         _______ _______ _______ _____ _____    ______ ____
ROOT
ATOM      1 CL   UNL     1      35.720 -18.360 -21.253  0.00  0.00    -0.082 Cl
ATOM      2  O   UNL     1      33.611 -16.141 -26.242  0.00  0.00    -0.407 OA
ATOM      3  O   UNL     1      32.786 -13.988 -26.405  0.00  0.00    -0.223 OA
ATOM      4  N   UNL     1      33.608 -14.794 -24.380  0.00  0.00    -0.287 N 
ATOM      5  C   UNL     1      34.144 -15.999 -24.009  0.00  0.00    +0.097 A 
ATOM      6  C   UNL     1      34.137 -16.793 -25.137  0.00  0.00    +0.166 A 
ATOM      7  C   UNL     1      34.618 -16.431 -22.792  0.00  0.00    +0.032 C 
ATOM      8  C   UNL     1      34.614 -18.085 -25.107  0.00  0.00    +0.040 C 
ATOM      9  C   UNL     1      35.107 -17.739 -22.739  0.00  0.00    +0.059 C 
ATOM     10  C   UNL     1      33.286 -14.875 -25.725  0.00  0.00    +0.419 A 
ATOM     11  C   UNL     1      35.106 -18.559 -23.886  0.00  0.00    +0.015 C 
ATOM     12  H   UNL     1      33.476 -14.012 -23.796  0.00  0.00    +0.172 HD
ENDROOT
TORSDOF 0
ENDMDL
MODEL 4
REMARK VINA RESULT:      -6.7      5.233      6.384
REMARK  Name = 2733
REMARK  0 active torsions:
REMARK  status: ('A' for Active; 'I' for Inactive)
REMARK                            x       y       z     vdW  Elec       q    Type
REMARK                         _______ _______ _______ _____ _____    ______ ____
ROOT
ATOM      1 CL   UNL     1      35.622 -20.290 -20.689  0.00  0.00    -0.082 Cl
ATOM      2  O   UNL     1      34.331 -15.671 -24.045  0.00  0.00    -0.407 OA
ATOM      3  O   UNL     1      33.919 -15.847 -26.314  0.00  0.00    -0.223 OA
ATOM      4  N   UNL     1      34.426 -17.737 -25.048  0.00  0.00    -0.287 N 
ATOM      5  C   UNL     1      34.706 -17.917 -23.720  0.00  0.00    +0.097 A 
ATOM      6  C   UNL     1      34.645 -16.670 -23.136  0.00  0.00    +0.166 A 
ATOM      7  C   UNL     1      35.002 -19.061 -23.014  0.00  0.00    +0.032 C 
ATOM      8  C   UNL     1      34.880 -16.496 -21.789  0.00  0.00    +0.040 C 
ATOM      9  C   UNL     1      35.244 -18.908 -21.647  0.00  0.00    +0.059 C 
ATOM     10  C   UNL     1      34.198 -16.385 -25.250  0.00  0.00    +0.419 A 
ATOM     11  C   UNL     1      35.184 -17.637 -21.039  0.00  0.00    +0.015 C 
ATOM     12  H   UNL     1      34.392 -18.441 -25.736  0.00  0.00    +0.172 HD
ENDROOT
TORSDOF 0
ENDMDL
MODEL 5
REMARK VINA RESULT:      -6.6      3.548      4.686
REMARK  Name = 2733
REMARK  0 active torsions:
REMARK  status: ('A' for Active; 'I' for Inactive)
REMARK                            x       y       z     vdW  Elec       q    Type
REMARK                         _______ _______ _______ _____ _____    ______ ____
ROOT
ATOM      1 CL   UNL     1      33.431 -23.051 -18.184  0.00  0.00    -0.082 Cl
ATOM      2  O   UNL     1      36.144 -18.996 -21.418  0.00  0.00    -0.407 OA
ATOM      3  O   UNL     1      35.003 -17.459 -22.715  0.00  0.00    -0.223 OA
ATOM      4  N   UNL     1      33.846 -19.042 -21.456  0.00  0.00    -0.287 N 
ATOM      5  C   UNL     1      34.259 -20.044 -20.619  0.00  0.00    +0.097 A 
ATOM      6  C   UNL     1      35.637 -20.002 -20.610  0.00  0.00    +0.166 A 
ATOM      7  C   UNL     1      33.533 -20.960 -19.894  0.00  0.00    +0.032 C 
ATOM      8  C   UNL     1      36.376 -20.889 -19.858  0.00  0.00    +0.040 C 
ATOM      9  C   UNL     1      34.263 -21.870 -19.124  0.00  0.00    +0.059 C 
ATOM     10  C   UNL     1      34.978 -18.406 -21.940  0.00  0.00    +0.419 A 
ATOM     11  C   UNL     1      35.672 -21.835 -19.106  0.00  0.00    +0.015 C 
ATOM     12  H   UNL     1      32.913 -18.814 -21.674  0.00  0.00    +0.172 HD
ENDROOT
TORSDOF 0
ENDMDL
MODEL 6
REMARK VINA RESULT:      -6.5      6.926      7.723
REMARK  Name = 2733
REMARK  0 active torsions:
REMARK  status: ('A' for Active; 'I' for Inactive)
REMARK                            x       y       z     vdW  Elec       q    Type
REMARK                         _______ _______ _______ _____ _____    ______ ____
ROOT
ATOM      1 CL   UNL     1      32.796 -23.584 -13.476  0.00  0.00    -0.082 Cl
ATOM      2  O   UNL     1      27.948 -24.433 -16.645  0.00  0.00    -0.407 OA
ATOM      3  O   UNL     1      27.090 -22.831 -18.076  0.00  0.00    -0.223 OA
ATOM      4  N   UNL     1      29.027 -22.413 -16.849  0.00  0.00    -0.287 N 
ATOM      5  C   UNL     1      29.737 -23.165 -15.951  0.00  0.00    +0.097 A 
ATOM      6  C   UNL     1      29.076 -24.370 -15.841  0.00  0.00    +0.166 A 
ATOM      7  C   UNL     1      30.882 -22.872 -15.247  0.00  0.00    +0.032 C 
ATOM      8  C   UNL     1      29.534 -25.366 -15.007  0.00  0.00    +0.040 C 
ATOM      9  C   UNL     1      31.366 -23.868 -14.395  0.00  0.00    +0.059 C 
ATOM     10  C   UNL     1      27.947 -23.173 -17.271  0.00  0.00    +0.419 A 
ATOM     11  C   UNL     1      30.697 -25.104 -14.275  0.00  0.00    +0.015 C 
ATOM     12  H   UNL     1      29.244 -21.499 -17.143  0.00  0.00    +0.172 HD
ENDROOT
TORSDOF 0
ENDMDL
MODEL 7
REMARK VINA RESULT:      -6.5      4.269      5.241
REMARK  Name = 2733
REMARK  0 active torsions:
REMARK  status: ('A' for Active; 'I' for Inactive)
REMARK                            x       y       z     vdW  Elec       q    Type
REMARK                         _______ _______ _______ _____ _____    ______ ____
ROOT
ATOM      1 CL   UNL     1      33.549 -15.444 -25.943  0.00  0.00    -0.082 Cl
ATOM      2  O   UNL     1      35.351 -17.285 -20.688  0.00  0.00    -0.407 OA
ATOM      3  O   UNL     1      36.543 -19.244 -20.387  0.00  0.00    -0.223 OA
ATOM      4  N   UNL     1      35.863 -18.582 -22.515  0.00  0.00    -0.287 N 
ATOM      5  C   UNL     1      35.163 -17.495 -22.970  0.00  0.00    +0.097 A 
ATOM      6  C   UNL     1      34.865 -16.732 -21.862  0.00  0.00    +0.166 A 
ATOM      7  C   UNL     1      34.782 -17.146 -24.245  0.00  0.00    +0.032 C 
ATOM      8  C   UNL     1      34.158 -15.554 -21.972  0.00  0.00    +0.040 C 
ATOM      9  C   UNL     1      34.064 -15.955 -24.380  0.00  0.00    +0.059 C 
ATOM     10  C   UNL     1      35.979 -18.460 -21.140  0.00  0.00    +0.419 A 
ATOM     11  C   UNL     1      33.754 -15.166 -23.254  0.00  0.00    +0.015 C 
ATOM     12  H   UNL     1      36.219 -19.316 -23.066  0.00  0.00    +0.172 HD
ENDROOT
TORSDOF 0
ENDMDL
MODEL 8
REMARK VINA RESULT:      -6.4      6.527      7.458
REMARK  Name = 2733
REMARK  0 active torsions:
REMARK  status: ('A' for Active; 'I' for Inactive)
REMARK                            x       y       z     vdW  Elec       q    Type
REMARK                         _______ _______ _______ _____ _____    ______ ____
ROOT
ATOM      1 CL   UNL     1      31.949 -12.673 -20.517  0.00  0.00    -0.082 Cl
ATOM      2  O   UNL     1      34.908 -16.739 -23.513  0.00  0.00    -0.407 OA
ATOM      3  O   UNL     1      34.789 -16.934 -25.814  0.00  0.00    -0.223 OA
ATOM      4  N   UNL     1      33.579 -15.286 -24.697  0.00  0.00    -0.287 N 
ATOM      5  C   UNL     1      33.467 -14.952 -23.373  0.00  0.00    +0.097 A 
ATOM      6  C   UNL     1      34.269 -15.833 -22.680  0.00  0.00    +0.166 A 
ATOM      7  C   UNL     1      32.734 -13.964 -22.758  0.00  0.00    +0.032 C 
ATOM      8  C   UNL     1      34.383 -15.771 -21.308  0.00  0.00    +0.040 C 
ATOM      9  C   UNL     1      32.835 -13.882 -21.367  0.00  0.00    +0.059 C 
ATOM     10  C   UNL     1      34.446 -16.362 -24.787  0.00  0.00    +0.419 A 
ATOM     11  C   UNL     1      33.653 -14.778 -20.648  0.00  0.00    +0.015 C 
ATOM     12  H   UNL     1      33.125 -14.840 -25.449  0.00  0.00    +0.172 HD
ENDROOT
TORSDOF 0
ENDMDL
MODEL 9
REMARK VINA RESULT:      -6.4      4.123      5.091
REMARK  Name = 2733
REMARK  0 active torsions:
REMARK  status: ('A' for Active; 'I' for Inactive)
REMARK                            x       y       z     vdW  Elec       q    Type
REMARK                         _______ _______ _______ _____ _____    ______ ____
ROOT
ATOM      1 CL   UNL     1      33.685 -13.799 -24.080  0.00  0.00    -0.082 Cl
ATOM      2  O   UNL     1      35.606 -19.080 -22.440  0.00  0.00    -0.407 OA
ATOM      3  O   UNL     1      36.098 -19.607 -20.243  0.00  0.00    -0.223 OA
ATOM      4  N   UNL     1      35.337 -17.480 -20.812  0.00  0.00    -0.287 N 
ATOM      5  C   UNL     1      34.979 -16.910 -22.005  0.00  0.00    +0.097 A 
ATOM      6  C   UNL     1      35.147 -17.882 -22.968  0.00  0.00    +0.166 A 
ATOM      7  C   UNL     1      34.533 -15.641 -22.293  0.00  0.00    +0.032 C 
ATOM      8  C   UNL     1      34.872 -17.633 -24.295  0.00  0.00    +0.040 C 
ATOM      9  C   UNL     1      34.248 -15.365 -23.633  0.00  0.00    +0.059 C 
ATOM     10  C   UNL     1      35.715 -18.788 -21.069  0.00  0.00    +0.419 A 
ATOM     11  C   UNL     1      34.416 -16.353 -24.625  0.00  0.00    +0.015 C 
ATOM     12  H   UNL     1      35.326 -17.039 -19.931  0.00  0.00    +0.172 HD
ENDROOT
TORSDOF 0
ENDMDL
