MODEL 1
REMARK VINA RESULT:      -9.7      0.000      0.000
REMARK  Name = 20058
REMARK  8 active torsions:
REMARK  status: ('A' for Active; 'I' for Inactive)
REMARK    1  A    between atoms: C_2  and  O_15
REMARK    2  A    between atoms: C_3  and  O_19
REMARK    3  A    between atoms: C_4  and  C_23
REMARK    4  A    between atoms: C_5  and  N_8
REMARK    5  A    between atoms: O_15  and  C_17
REMARK    6  A    between atoms: O_19  and  C_21
REMARK    7  A    between atoms: C_23  and  O_24
REMARK    8  A    between atoms: O_24  and  C_26
REMARK                            x       y       z     vdW  Elec       q    Type
REMARK                         _______ _______ _______ _____ _____    ______ ____
ROOT
ATOM      1  O   UNL     1      35.101 -25.060 -15.675  0.00  0.00    -0.329 OA
ATOM      2  C   UNL     1      33.693 -23.916 -14.152  0.00  0.00    +0.243 C 
ATOM      3  C   UNL     1      34.997 -24.242 -13.454  0.00  0.00    +0.258 C 
ATOM      4  C   UNL     1      34.078 -24.043 -15.621  0.00  0.00    +0.204 C 
ATOM      5  C   UNL     1      35.567 -25.334 -14.343  0.00  0.00    +0.244 C 
ENDROOT
BRANCH   5   8
ATOM      6  O   UNL     1      37.147 -27.015 -12.714  0.00  0.00    -0.252 OA
ATOM      7  O   UNL     1      41.066 -25.298 -14.429  0.00  0.00    -0.270 OA
ATOM      8  N   UNL     1      37.001 -25.347 -14.344  0.00  0.00    -0.216 N 
ATOM      9  N   UNL     1      39.097 -26.157 -13.569  0.00  0.00    -0.236 N 
ATOM     10  C   UNL     1      37.700 -26.229 -13.486  0.00  0.00    +0.315 C 
ATOM     11  C   UNL     1      37.703 -24.494 -15.187  0.00  0.00    +0.076 C 
ATOM     12  C   UNL     1      39.035 -24.436 -15.255  0.00  0.00    +0.074 C 
ATOM     13  C   UNL     1      39.839 -25.325 -14.391  0.00  0.00    +0.254 C 
ATOM     14  H   UNL     1      39.604 -26.763 -12.980  0.00  0.00    +0.159 HD
ENDBRANCH   5   8
BRANCH   2  15
ATOM     15  O   UNL     1      32.715 -24.915 -13.866  0.00  0.00    -0.446 OA
BRANCH  15  17
ATOM     16  O   UNL     1      31.104 -23.574 -12.894  0.00  0.00    -0.250 OA
ATOM     17  C   UNL     1      31.444 -24.457 -13.671  0.00  0.00    +0.318 C 
ATOM     18  C   UNL     1      30.496 -25.202 -14.561  0.00  0.00    +0.121 C 
ENDBRANCH  15  17
ENDBRANCH   2  15
BRANCH   3  19
ATOM     19  O   UNL     1      34.799 -24.673 -12.123  0.00  0.00    -0.444 OA
BRANCH  19  21
ATOM     20  O   UNL     1      35.603 -24.359  -9.980  0.00  0.00    -0.250 OA
ATOM     21  C   UNL     1      35.622 -24.116 -11.179  0.00  0.00    +0.318 C 
ATOM     22  C   UNL     1      36.569 -23.148 -11.823  0.00  0.00    +0.121 C 
ENDBRANCH  19  21
ENDBRANCH   3  19
BRANCH   4  23
ATOM     23  C   UNL     1      34.653 -22.760 -16.204  0.00  0.00    +0.242 C 
BRANCH  23  24
ATOM     24  O   UNL     1      34.945 -22.976 -17.574  0.00  0.00    -0.446 OA
BRANCH  24  26
ATOM     25  O   UNL     1      32.862 -22.559 -18.484  0.00  0.00    -0.250 OA
ATOM     26  C   UNL     1      34.077 -22.410 -18.470  0.00  0.00    +0.318 C 
ATOM     27  C   UNL     1      34.831 -21.567 -19.454  0.00  0.00    +0.121 C 
ENDBRANCH  24  26
ENDBRANCH  23  24
ENDBRANCH   4  23
TORSDOF 8
ENDMDL
MODEL 2
REMARK VINA RESULT:      -8.7     11.559     16.092
REMARK  Name = 20058
REMARK  8 active torsions:
REMARK  status: ('A' for Active; 'I' for Inactive)
REMARK    1  A    between atoms: C_2  and  O_15
REMARK    2  A    between atoms: C_3  and  O_19
REMARK    3  A    between atoms: C_4  and  C_23
REMARK    4  A    between atoms: C_5  and  N_8
REMARK    5  A    between atoms: O_15  and  C_17
REMARK    6  A    between atoms: O_19  and  C_21
REMARK    7  A    between atoms: C_23  and  O_24
REMARK    8  A    between atoms: O_24  and  C_26
REMARK                            x       y       z     vdW  Elec       q    Type
REMARK                         _______ _______ _______ _____ _____    ______ ____
ROOT
ATOM      1  O   UNL     1      31.852 -13.285 -22.371  0.00  0.00    -0.329 OA
ATOM      2  C   UNL     1      33.539 -13.577 -24.009  0.00  0.00    +0.243 C 
ATOM      3  C   UNL     1      33.464 -12.109 -23.648  0.00  0.00    +0.258 C 
ATOM      4  C   UNL     1      32.845 -14.233 -22.821  0.00  0.00    +0.204 C 
ATOM      5  C   UNL     1      32.097 -12.013 -22.994  0.00  0.00    +0.244 C 
ENDROOT
BRANCH   5   8
ATOM      6  O   UNL     1      31.773  -9.263 -23.551  0.00  0.00    -0.252 OA
ATOM      7  O   UNL     1      31.887  -8.158 -19.077  0.00  0.00    -0.270 OA
ATOM      8  N   UNL     1      32.038 -10.986 -21.994  0.00  0.00    -0.216 N 
ATOM      9  N   UNL     1      31.831  -8.715 -21.322  0.00  0.00    -0.236 N 
ATOM     10  C   UNL     1      31.875  -9.635 -22.379  0.00  0.00    +0.315 C 
ATOM     11  C   UNL     1      32.143 -11.319 -20.649  0.00  0.00    +0.076 C 
ATOM     12  C   UNL     1      32.100 -10.432 -19.652  0.00  0.00    +0.074 C 
ATOM     13  C   UNL     1      31.931  -9.000 -19.970  0.00  0.00    +0.254 C 
ATOM     14  H   UNL     1      31.718  -7.768 -21.567  0.00  0.00    +0.159 HD
ENDBRANCH   5   8
BRANCH   2  15
ATOM     15  O   UNL     1      32.758 -13.841 -25.175  0.00  0.00    -0.446 OA
BRANCH  15  17
ATOM     16  O   UNL     1      33.861 -15.609 -26.171  0.00  0.00    -0.250 OA
ATOM     17  C   UNL     1      33.414 -14.471 -26.193  0.00  0.00    +0.318 C 
ATOM     18  C   UNL     1      33.514 -13.553 -27.373  0.00  0.00    +0.121 C 
ENDBRANCH  15  17
ENDBRANCH   2  15
BRANCH   3  19
ATOM     19  O   UNL     1      33.584 -11.272 -24.780  0.00  0.00    -0.444 OA
BRANCH  19  21
ATOM     20  O   UNL     1      35.039  -9.705 -23.905  0.00  0.00    -0.250 OA
ATOM     21  C   UNL     1      34.679 -10.448 -24.809  0.00  0.00    +0.318 C 
ATOM     22  C   UNL     1      35.393 -10.579 -26.120  0.00  0.00    +0.121 C 
ENDBRANCH  19  21
ENDBRANCH   3  19
BRANCH   4  23
ATOM     23  C   UNL     1      33.786 -14.522 -21.660  0.00  0.00    +0.242 C 
BRANCH  23  24
ATOM     24  O   UNL     1      34.928 -15.196 -22.160  0.00  0.00    -0.446 OA
BRANCH  24  26
ATOM     25  O   UNL     1      35.085 -16.998 -20.721  0.00  0.00    -0.250 OA
ATOM     26  C   UNL     1      35.023 -16.527 -21.849  0.00  0.00    +0.318 C 
ATOM     27  C   UNL     1      35.044 -17.347 -23.104  0.00  0.00    +0.121 C 
ENDBRANCH  24  26
ENDBRANCH  23  24
ENDBRANCH   4  23
TORSDOF 8
ENDMDL
MODEL 3
REMARK VINA RESULT:      -8.4      2.370      6.929
REMARK  Name = 20058
REMARK  8 active torsions:
REMARK  status: ('A' for Active; 'I' for Inactive)
REMARK    1  A    between atoms: C_2  and  O_15
REMARK    2  A    between atoms: C_3  and  O_19
REMARK    3  A    between atoms: C_4  and  C_23
REMARK    4  A    between atoms: C_5  and  N_8
REMARK    5  A    between atoms: O_15  and  C_17
REMARK    6  A    between atoms: O_19  and  C_21
REMARK    7  A    between atoms: C_23  and  O_24
REMARK    8  A    between atoms: O_24  and  C_26
REMARK                            x       y       z     vdW  Elec       q    Type
REMARK                         _______ _______ _______ _____ _____    ______ ____
ROOT
ATOM      1  O   UNL     1      34.644 -24.959 -14.639  0.00  0.00    -0.329 OA
ATOM      2  C   UNL     1      36.758 -23.914 -14.864  0.00  0.00    +0.243 C 
ATOM      3  C   UNL     1      35.796 -23.277 -15.845  0.00  0.00    +0.258 C 
ATOM      4  C   UNL     1      35.809 -24.580 -13.875  0.00  0.00    +0.204 C 
ATOM      5  C   UNL     1      34.690 -24.315 -15.923  0.00  0.00    +0.244 C 
ENDROOT
BRANCH   5   8
ATOM      6  O   UNL     1      33.763 -23.647 -18.506  0.00  0.00    -0.252 OA
ATOM      7  O   UNL     1      29.755 -22.075 -16.860  0.00  0.00    -0.270 OA
ATOM      8  N   UNL     1      33.409 -23.731 -16.197  0.00  0.00    -0.216 N 
ATOM      9  N   UNL     1      31.768 -22.863 -17.684  0.00  0.00    -0.236 N 
ATOM     10  C   UNL     1      33.040 -23.432 -17.530  0.00  0.00    +0.315 C 
ATOM     11  C   UNL     1      32.532 -23.458 -15.155  0.00  0.00    +0.076 C 
ATOM     12  C   UNL     1      31.322 -22.916 -15.316  0.00  0.00    +0.074 C 
ATOM     13  C   UNL     1      30.862 -22.574 -16.676  0.00  0.00    +0.254 C 
ATOM     14  H   UNL     1      31.490 -22.648 -18.603  0.00  0.00    +0.159 HD
ENDBRANCH   5   8
BRANCH   2  15
ATOM     15  O   UNL     1      37.513 -24.941 -15.508  0.00  0.00    -0.446 OA
BRANCH  15  17
ATOM     16  O   UNL     1      37.938 -27.030 -14.617  0.00  0.00    -0.250 OA
ATOM     17  C   UNL     1      38.137 -25.824 -14.674  0.00  0.00    +0.318 C 
ATOM     18  C   UNL     1      39.125 -25.095 -13.815  0.00  0.00    +0.121 C 
ENDBRANCH  15  17
ENDBRANCH   2  15
BRANCH   3  19
ATOM     19  O   UNL     1      36.397 -23.029 -17.100  0.00  0.00    -0.444 OA
BRANCH  19  21
ATOM     20  O   UNL     1      37.437 -21.049 -16.517  0.00  0.00    -0.250 OA
ATOM     21  C   UNL     1      36.829 -21.746 -17.319  0.00  0.00    +0.318 C 
ATOM     22  C   UNL     1      36.450 -21.301 -18.699  0.00  0.00    +0.121 C 
ENDBRANCH  19  21
ENDBRANCH   3  19
BRANCH   4  23
ATOM     23  C   UNL     1      35.361 -23.651 -12.755  0.00  0.00    +0.242 C 
BRANCH  23  24
ATOM     24  O   UNL     1      34.949 -24.439 -11.651  0.00  0.00    -0.446 OA
BRANCH  24  26
ATOM     25  O   UNL     1      35.354 -24.707  -9.392  0.00  0.00    -0.250 OA
ATOM     26  C   UNL     1      35.660 -24.268 -10.493  0.00  0.00    +0.318 C 
ATOM     27  C   UNL     1      36.888 -23.451 -10.758  0.00  0.00    +0.121 C 
ENDBRANCH  24  26
ENDBRANCH  23  24
ENDBRANCH   4  23
TORSDOF 8
ENDMDL
MODEL 4
REMARK VINA RESULT:      -8.0      9.629     14.118
REMARK  Name = 20058
REMARK  8 active torsions:
REMARK  status: ('A' for Active; 'I' for Inactive)
REMARK    1  A    between atoms: C_2  and  O_15
REMARK    2  A    between atoms: C_3  and  O_19
REMARK    3  A    between atoms: C_4  and  C_23
REMARK    4  A    between atoms: C_5  and  N_8
REMARK    5  A    between atoms: O_15  and  C_17
REMARK    6  A    between atoms: O_19  and  C_21
REMARK    7  A    between atoms: C_23  and  O_24
REMARK    8  A    between atoms: O_24  and  C_26
REMARK                            x       y       z     vdW  Elec       q    Type
REMARK                         _______ _______ _______ _____ _____    ______ ____
ROOT
ATOM      1  O   UNL     1      34.439 -14.080 -21.951  0.00  0.00    -0.329 OA
ATOM      2  C   UNL     1      33.263 -13.243 -23.830  0.00  0.00    +0.243 C 
ATOM      3  C   UNL     1      33.633 -14.688 -24.095  0.00  0.00    +0.258 C 
ATOM      4  C   UNL     1      33.391 -13.154 -22.315  0.00  0.00    +0.204 C 
ATOM      5  C   UNL     1      34.735 -14.923 -23.076  0.00  0.00    +0.244 C 
ENDROOT
BRANCH   5   8
ATOM      6  O   UNL     1      34.943 -15.715 -20.373  0.00  0.00    -0.252 OA
ATOM      7  O   UNL     1      34.946 -20.186 -21.495  0.00  0.00    -0.270 OA
ATOM      8  N   UNL     1      34.791 -16.287 -22.635  0.00  0.00    -0.216 N 
ATOM      9  N   UNL     1      34.946 -17.941 -20.935  0.00  0.00    -0.236 N 
ATOM     10  C   UNL     1      34.897 -16.578 -21.254  0.00  0.00    +0.315 C 
ATOM     11  C   UNL     1      34.743 -17.320 -23.562  0.00  0.00    +0.076 C 
ATOM     12  C   UNL     1      34.791 -18.616 -23.243  0.00  0.00    +0.074 C 
ATOM     13  C   UNL     1      34.901 -19.004 -21.823  0.00  0.00    +0.254 C 
ATOM     14  H   UNL     1      35.019 -18.168 -19.979  0.00  0.00    +0.159 HD
ENDBRANCH   5   8
BRANCH   2  15
ATOM     15  O   UNL     1      34.235 -12.370 -24.406  0.00  0.00    -0.446 OA
BRANCH  15  17
ATOM     16  O   UNL     1      32.918 -10.544 -23.888  0.00  0.00    -0.250 OA
ATOM     17  C   UNL     1      33.927 -11.041 -24.369  0.00  0.00    +0.318 C 
ATOM     18  C   UNL     1      35.024 -10.250 -25.016  0.00  0.00    +0.121 C 
ENDBRANCH  15  17
ENDBRANCH   2  15
BRANCH   3  19
ATOM     19  O   UNL     1      34.068 -14.895 -25.423  0.00  0.00    -0.444 OA
BRANCH  19  21
ATOM     20  O   UNL     1      32.461 -16.103 -26.563  0.00  0.00    -0.250 OA
ATOM     21  C   UNL     1      33.083 -15.068 -26.361  0.00  0.00    +0.318 C 
ATOM     22  C   UNL     1      32.863 -13.795 -27.121  0.00  0.00    +0.121 C 
ENDBRANCH  19  21
ENDBRANCH   3  19
BRANCH   4  23
ATOM     23  C   UNL     1      32.122 -13.561 -21.580  0.00  0.00    +0.242 C 
BRANCH  23  24
ATOM     24  O   UNL     1      32.033 -12.812 -20.380  0.00  0.00    -0.446 OA
BRANCH  24  26
ATOM     25  O   UNL     1      30.593 -11.302 -21.372  0.00  0.00    -0.250 OA
ATOM     26  C   UNL     1      31.331 -11.639 -20.455  0.00  0.00    +0.318 C 
ATOM     27  C   UNL     1      31.594 -10.802 -19.240  0.00  0.00    +0.121 C 
ENDBRANCH  24  26
ENDBRANCH  23  24
ENDBRANCH   4  23
TORSDOF 8
ENDMDL
MODEL 5
REMARK VINA RESULT:      -7.8      2.595      5.787
REMARK  Name = 20058
REMARK  8 active torsions:
REMARK  status: ('A' for Active; 'I' for Inactive)
REMARK    1  A    between atoms: C_2  and  O_15
REMARK    2  A    between atoms: C_3  and  O_19
REMARK    3  A    between atoms: C_4  and  C_23
REMARK    4  A    between atoms: C_5  and  N_8
REMARK    5  A    between atoms: O_15  and  C_17
REMARK    6  A    between atoms: O_19  and  C_21
REMARK    7  A    between atoms: C_23  and  O_24
REMARK    8  A    between atoms: O_24  and  C_26
REMARK                            x       y       z     vdW  Elec       q    Type
REMARK                         _______ _______ _______ _____ _____    ______ ____
ROOT
ATOM      1  O   UNL     1      35.672 -21.924 -15.497  0.00  0.00    -0.329 OA
ATOM      2  C   UNL     1      37.302 -23.642 -15.563  0.00  0.00    +0.243 C 
ATOM      3  C   UNL     1      35.938 -24.276 -15.392  0.00  0.00    +0.258 C 
ATOM      4  C   UNL     1      36.946 -22.257 -16.090  0.00  0.00    +0.204 C 
ATOM      5  C   UNL     1      35.103 -23.104 -14.906  0.00  0.00    +0.244 C 
ENDROOT
BRANCH   5   8
ATOM      6  O   UNL     1      32.976 -23.691 -13.143  0.00  0.00    -0.252 OA
ATOM      7  O   UNL     1      29.865 -23.482 -16.538  0.00  0.00    -0.270 OA
ATOM      8  N   UNL     1      33.729 -23.208 -15.302  0.00  0.00    -0.216 N 
ATOM      9  N   UNL     1      31.429 -23.588 -14.836  0.00  0.00    -0.236 N 
ATOM     10  C   UNL     1      32.737 -23.509 -14.339  0.00  0.00    +0.315 C 
ATOM     11  C   UNL     1      33.373 -23.015 -16.632  0.00  0.00    +0.076 C 
ATOM     12  C   UNL     1      32.122 -23.094 -17.091  0.00  0.00    +0.074 C 
ATOM     13  C   UNL     1      31.027 -23.404 -16.149  0.00  0.00    +0.254 C 
ATOM     14  H   UNL     1      30.721 -23.795 -14.183  0.00  0.00    +0.159 HD
ENDBRANCH   5   8
BRANCH   2  15
ATOM     15  O   UNL     1      37.935 -23.479 -14.294  0.00  0.00    -0.446 OA
BRANCH  15  17
ATOM     16  O   UNL     1      39.422 -24.634 -12.955  0.00  0.00    -0.250 OA
ATOM     17  C   UNL     1      38.995 -24.305 -14.053  0.00  0.00    +0.318 C 
ATOM     18  C   UNL     1      39.580 -24.767 -15.354  0.00  0.00    +0.121 C 
ENDBRANCH  15  17
ENDBRANCH   2  15
BRANCH   3  19
ATOM     19  O   UNL     1      35.958 -25.348 -14.472  0.00  0.00    -0.444 OA
BRANCH  19  21
ATOM     20  O   UNL     1      36.236 -26.989 -16.074  0.00  0.00    -0.250 OA
ATOM     21  C   UNL     1      36.424 -26.545 -14.949  0.00  0.00    +0.318 C 
ATOM     22  C   UNL     1      37.212 -27.254 -13.889  0.00  0.00    +0.121 C 
ENDBRANCH  19  21
ENDBRANCH   3  19
BRANCH   4  23
ATOM     23  C   UNL     1      36.791 -22.213 -17.604  0.00  0.00    +0.242 C 
BRANCH  23  24
ATOM     24  O   UNL     1      36.825 -20.860 -18.024  0.00  0.00    -0.446 OA
BRANCH  24  26
ATOM     25  O   UNL     1      36.834 -19.726 -20.036  0.00  0.00    -0.250 OA
ATOM     26  C   UNL     1      36.420 -20.619 -19.310  0.00  0.00    +0.318 C 
ATOM     27  C   UNL     1      35.378 -21.617 -19.716  0.00  0.00    +0.121 C 
ENDBRANCH  24  26
ENDBRANCH  23  24
ENDBRANCH   4  23
TORSDOF 8
ENDMDL
MODEL 6
REMARK VINA RESULT:      -7.7      3.464      6.557
REMARK  Name = 20058
REMARK  8 active torsions:
REMARK  status: ('A' for Active; 'I' for Inactive)
REMARK    1  A    between atoms: C_2  and  O_15
REMARK    2  A    between atoms: C_3  and  O_19
REMARK    3  A    between atoms: C_4  and  C_23
REMARK    4  A    between atoms: C_5  and  N_8
REMARK    5  A    between atoms: O_15  and  C_17
REMARK    6  A    between atoms: O_19  and  C_21
REMARK    7  A    between atoms: C_23  and  O_24
REMARK    8  A    between atoms: O_24  and  C_26
REMARK                            x       y       z     vdW  Elec       q    Type
REMARK                         _______ _______ _______ _____ _____    ______ ____
ROOT
ATOM      1  O   UNL     1      33.039 -23.397 -18.283  0.00  0.00    -0.329 OA
ATOM      2  C   UNL     1      34.256 -23.575 -16.258  0.00  0.00    +0.243 C 
ATOM      3  C   UNL     1      34.948 -22.567 -17.151  0.00  0.00    +0.258 C 
ATOM      4  C   UNL     1      32.862 -23.639 -16.870  0.00  0.00    +0.204 C 
ATOM      5  C   UNL     1      34.368 -22.903 -18.514  0.00  0.00    +0.244 C 
ENDROOT
BRANCH   5   8
ATOM      6  O   UNL     1      36.567 -21.829 -19.926  0.00  0.00    -0.252 OA
ATOM      7  O   UNL     1      33.976 -18.505 -21.794  0.00  0.00    -0.270 OA
ATOM      8  N   UNL     1      34.296 -21.758 -19.376  0.00  0.00    -0.216 N 
ATOM      9  N   UNL     1      35.275 -20.173 -20.854  0.00  0.00    -0.236 N 
ATOM     10  C   UNL     1      35.459 -21.298 -20.038  0.00  0.00    +0.315 C 
ATOM     11  C   UNL     1      33.085 -21.103 -19.561  0.00  0.00    +0.076 C 
ATOM     12  C   UNL     1      32.924 -20.032 -20.341  0.00  0.00    +0.074 C 
ATOM     13  C   UNL     1      34.090 -19.488 -21.067  0.00  0.00    +0.254 C 
ATOM     14  H   UNL     1      36.071 -19.835 -21.324  0.00  0.00    +0.159 HD
ENDBRANCH   5   8
BRANCH   2  15
ATOM     15  O   UNL     1      34.859 -24.861 -16.403  0.00  0.00    -0.446 OA
BRANCH  15  17
ATOM     16  O   UNL     1      36.438 -26.150 -15.315  0.00  0.00    -0.250 OA
ATOM     17  C   UNL     1      35.540 -25.318 -15.312  0.00  0.00    +0.318 C 
ATOM     18  C   UNL     1      35.025 -24.644 -14.076  0.00  0.00    +0.121 C 
ENDBRANCH  15  17
ENDBRANCH   2  15
BRANCH   3  19
ATOM     19  O   UNL     1      36.354 -22.694 -17.113  0.00  0.00    -0.444 OA
BRANCH  19  21
ATOM     20  O   UNL     1      37.361 -20.618 -16.979  0.00  0.00    -0.250 OA
ATOM     21  C   UNL     1      37.034 -21.686 -16.478  0.00  0.00    +0.318 C 
ATOM     22  C   UNL     1      37.331 -22.074 -15.061  0.00  0.00    +0.121 C 
ENDBRANCH  19  21
ENDBRANCH   3  19
BRANCH   4  23
ATOM     23  C   UNL     1      31.916 -22.580 -16.322  0.00  0.00    +0.242 C 
BRANCH  23  24
ATOM     24  O   UNL     1      30.764 -22.531 -17.146  0.00  0.00    -0.446 OA
BRANCH  24  26
ATOM     25  O   UNL     1      28.514 -22.040 -16.961  0.00  0.00    -0.250 OA
ATOM     26  C   UNL     1      29.562 -22.466 -16.493  0.00  0.00    +0.318 C 
ATOM     27  C   UNL     1      29.704 -22.996 -15.098  0.00  0.00    +0.121 C 
ENDBRANCH  24  26
ENDBRANCH  23  24
ENDBRANCH   4  23
TORSDOF 8
ENDMDL
MODEL 7
REMARK VINA RESULT:      -7.6      2.769      5.891
REMARK  Name = 20058
REMARK  8 active torsions:
REMARK  status: ('A' for Active; 'I' for Inactive)
REMARK    1  A    between atoms: C_2  and  O_15
REMARK    2  A    between atoms: C_3  and  O_19
REMARK    3  A    between atoms: C_4  and  C_23
REMARK    4  A    between atoms: C_5  and  N_8
REMARK    5  A    between atoms: O_15  and  C_17
REMARK    6  A    between atoms: O_19  and  C_21
REMARK    7  A    between atoms: C_23  and  O_24
REMARK    8  A    between atoms: O_24  and  C_26
REMARK                            x       y       z     vdW  Elec       q    Type
REMARK                         _______ _______ _______ _____ _____    ______ ____
ROOT
ATOM      1  O   UNL     1      33.141 -22.412 -16.312  0.00  0.00    -0.329 OA
ATOM      2  C   UNL     1      35.251 -23.480 -16.460  0.00  0.00    +0.243 C 
ATOM      3  C   UNL     1      34.336 -24.332 -15.606  0.00  0.00    +0.258 C 
ATOM      4  C   UNL     1      34.259 -22.599 -17.208  0.00  0.00    +0.204 C 
ATOM      5  C   UNL     1      33.249 -23.343 -15.223  0.00  0.00    +0.244 C 
ENDROOT
BRANCH   5   8
ATOM      6  O   UNL     1      32.563 -24.858 -12.939  0.00  0.00    -0.252 OA
ATOM      7  O   UNL     1      28.339 -25.731 -14.564  0.00  0.00    -0.270 OA
ATOM      8  N   UNL     1      31.978 -23.976 -15.023  0.00  0.00    -0.216 N 
ATOM      9  N   UNL     1      30.460 -25.293 -13.751  0.00  0.00    -0.236 N 
ATOM     10  C   UNL     1      31.735 -24.716 -13.842  0.00  0.00    +0.315 C 
ATOM     11  C   UNL     1      30.986 -23.864 -15.990  0.00  0.00    +0.076 C 
ATOM     12  C   UNL     1      29.776 -24.419 -15.891  0.00  0.00    +0.074 C 
ATOM     13  C   UNL     1      29.443 -25.208 -14.688  0.00  0.00    +0.254 C 
ATOM     14  H   UNL     1      30.269 -25.812 -12.937  0.00  0.00    +0.159 HD
ENDBRANCH   5   8
BRANCH   2  15
ATOM     15  O   UNL     1      36.053 -22.635 -15.634  0.00  0.00    -0.446 OA
BRANCH  15  17
ATOM     16  O   UNL     1      38.300 -23.155 -15.766  0.00  0.00    -0.250 OA
ATOM     17  C   UNL     1      37.340 -22.453 -16.052  0.00  0.00    +0.318 C 
ATOM     18  C   UNL     1      37.418 -21.243 -16.934  0.00  0.00    +0.121 C 
ENDBRANCH  15  17
ENDBRANCH   2  15
BRANCH   3  19
ATOM     19  O   UNL     1      35.001 -24.871 -14.481  0.00  0.00    -0.444 OA
BRANCH  19  21
ATOM     20  O   UNL     1      36.018 -26.548 -15.704  0.00  0.00    -0.250 OA
ATOM     21  C   UNL     1      35.985 -25.789 -14.744  0.00  0.00    +0.318 C 
ATOM     22  C   UNL     1      37.038 -25.739 -13.679  0.00  0.00    +0.121 C 
ENDBRANCH  19  21
ENDBRANCH   3  19
BRANCH   4  23
ATOM     23  C   UNL     1      33.739 -23.235 -18.490  0.00  0.00    +0.242 C 
BRANCH  23  24
ATOM     24  O   UNL     1      33.021 -22.257 -19.222  0.00  0.00    -0.446 OA
BRANCH  24  26
ATOM     25  O   UNL     1      34.991 -21.285 -19.937  0.00  0.00    -0.250 OA
ATOM     26  C   UNL     1      33.773 -21.278 -19.814  0.00  0.00    +0.318 C 
ATOM     27  C   UNL     1      32.887 -20.170 -20.299  0.00  0.00    +0.121 C 
ENDBRANCH  24  26
ENDBRANCH  23  24
ENDBRANCH   4  23
TORSDOF 8
ENDMDL
MODEL 8
REMARK VINA RESULT:      -7.5      2.672      7.202
REMARK  Name = 20058
REMARK  8 active torsions:
REMARK  status: ('A' for Active; 'I' for Inactive)
REMARK    1  A    between atoms: C_2  and  O_15
REMARK    2  A    between atoms: C_3  and  O_19
REMARK    3  A    between atoms: C_4  and  C_23
REMARK    4  A    between atoms: C_5  and  N_8
REMARK    5  A    between atoms: O_15  and  C_17
REMARK    6  A    between atoms: O_19  and  C_21
REMARK    7  A    between atoms: C_23  and  O_24
REMARK    8  A    between atoms: O_24  and  C_26
REMARK                            x       y       z     vdW  Elec       q    Type
REMARK                         _______ _______ _______ _____ _____    ______ ____
ROOT
ATOM      1  O   UNL     1      32.921 -25.005 -14.061  0.00  0.00    -0.329 OA
ATOM      2  C   UNL     1      34.864 -24.268 -15.198  0.00  0.00    +0.243 C 
ATOM      3  C   UNL     1      33.647 -23.781 -15.955  0.00  0.00    +0.258 C 
ATOM      4  C   UNL     1      34.281 -24.581 -13.825  0.00  0.00    +0.204 C 
ATOM      5  C   UNL     1      32.555 -24.687 -15.414  0.00  0.00    +0.244 C 
ENDROOT
BRANCH   5   8
ATOM      6  O   UNL     1      30.096 -26.073 -15.514  0.00  0.00    -0.252 OA
ATOM      7  O   UNL     1      27.673 -22.153 -15.401  0.00  0.00    -0.270 OA
ATOM      8  N   UNL     1      31.268 -24.054 -15.411  0.00  0.00    -0.216 N 
ATOM      9  N   UNL     1      28.891 -24.120 -15.459  0.00  0.00    -0.236 N 
ATOM     10  C   UNL     1      30.093 -24.841 -15.465  0.00  0.00    +0.315 C 
ATOM     11  C   UNL     1      31.175 -22.668 -15.356  0.00  0.00    +0.076 C 
ATOM     12  C   UNL     1      30.023 -21.994 -15.351  0.00  0.00    +0.074 C 
ATOM     13  C   UNL     1      28.751 -22.742 -15.405  0.00  0.00    +0.254 C 
ATOM     14  H   UNL     1      28.061 -24.647 -15.496  0.00  0.00    +0.159 HD
ENDBRANCH   5   8
BRANCH   2  15
ATOM     15  O   UNL     1      35.342 -25.489 -15.761  0.00  0.00    -0.446 OA
BRANCH  15  17
ATOM     16  O   UNL     1      36.638 -27.184 -14.874  0.00  0.00    -0.250 OA
ATOM     17  C   UNL     1      36.459 -26.011 -15.175  0.00  0.00    +0.318 C 
ATOM     18  C   UNL     1      37.464 -24.924 -14.945  0.00  0.00    +0.121 C 
ENDBRANCH  15  17
ENDBRANCH   2  15
BRANCH   3  19
ATOM     19  O   UNL     1      33.804 -23.897 -17.354  0.00  0.00    -0.444 OA
BRANCH  19  21
ATOM     20  O   UNL     1      32.529 -22.284 -18.410  0.00  0.00    -0.250 OA
ATOM     21  C   UNL     1      33.613 -22.750 -18.080  0.00  0.00    +0.318 C 
ATOM     22  C   UNL     1      34.932 -22.128 -18.425  0.00  0.00    +0.121 C 
ENDBRANCH  19  21
ENDBRANCH   3  19
BRANCH   4  23
ATOM     23  C   UNL     1      34.249 -23.375 -12.897  0.00  0.00    +0.242 C 
BRANCH  23  24
ATOM     24  O   UNL     1      34.681 -23.782 -11.610  0.00  0.00    -0.446 OA
BRANCH  24  26
ATOM     25  O   UNL     1      36.296 -25.415 -11.357  0.00  0.00    -0.250 OA
ATOM     26  C   UNL     1      35.966 -24.249 -11.528  0.00  0.00    +0.318 C 
ATOM     27  C   UNL     1      36.936 -23.115 -11.677  0.00  0.00    +0.121 C 
ENDBRANCH  24  26
ENDBRANCH  23  24
ENDBRANCH   4  23
TORSDOF 8
ENDMDL
MODEL 9
REMARK VINA RESULT:      -7.5      2.346      4.854
REMARK  Name = 20058
REMARK  8 active torsions:
REMARK  status: ('A' for Active; 'I' for Inactive)
REMARK    1  A    between atoms: C_2  and  O_15
REMARK    2  A    between atoms: C_3  and  O_19
REMARK    3  A    between atoms: C_4  and  C_23
REMARK    4  A    between atoms: C_5  and  N_8
REMARK    5  A    between atoms: O_15  and  C_17
REMARK    6  A    between atoms: O_19  and  C_21
REMARK    7  A    between atoms: C_23  and  O_24
REMARK    8  A    between atoms: O_24  and  C_26
REMARK                            x       y       z     vdW  Elec       q    Type
REMARK                         _______ _______ _______ _____ _____    ______ ____
ROOT
ATOM      1  O   UNL     1      35.587 -22.137 -14.804  0.00  0.00    -0.329 OA
ATOM      2  C   UNL     1      36.841 -23.201 -16.510  0.00  0.00    +0.243 C 
ATOM      3  C   UNL     1      37.278 -23.755 -15.170  0.00  0.00    +0.258 C 
ATOM      4  C   UNL     1      35.488 -22.586 -16.173  0.00  0.00    +0.204 C 
ATOM      5  C   UNL     1      36.769 -22.696 -14.208  0.00  0.00    +0.244 C 
ENDROOT
BRANCH   5   8
ATOM      6  O   UNL     1      38.302 -22.319 -11.866  0.00  0.00    -0.252 OA
ATOM      7  O   UNL     1      35.380 -24.826  -9.332  0.00  0.00    -0.270 OA
ATOM      8  N   UNL     1      36.432 -23.238 -12.924  0.00  0.00    -0.216 N 
ATOM      9  N   UNL     1      36.846 -23.569 -10.607  0.00  0.00    -0.236 N 
ATOM     10  C   UNL     1      37.270 -22.991 -11.811  0.00  0.00    +0.315 C 
ATOM     11  C   UNL     1      35.283 -24.005 -12.774  0.00  0.00    +0.076 C 
ATOM     12  C   UNL     1      34.892 -24.550 -11.620  0.00  0.00    +0.074 C 
ATOM     13  C   UNL     1      35.712 -24.340 -10.410  0.00  0.00    +0.254 C 
ATOM     14  H   UNL     1      37.414 -23.410  -9.818  0.00  0.00    +0.159 HD
ENDBRANCH   5   8
BRANCH   2  15
ATOM     15  O   UNL     1      37.713 -22.147 -16.918  0.00  0.00    -0.446 OA
BRANCH  15  17
ATOM     16  O   UNL     1      37.308 -20.005 -17.682  0.00  0.00    -0.250 OA
ATOM     17  C   UNL     1      37.164 -21.217 -17.754  0.00  0.00    +0.318 C 
ATOM     18  C   UNL     1      36.339 -21.904 -18.800  0.00  0.00    +0.121 C 
ENDBRANCH  15  17
ENDBRANCH   2  15
BRANCH   3  19
ATOM     19  O   UNL     1      38.678 -23.930 -15.094  0.00  0.00    -0.444 OA
BRANCH  19  21
ATOM     20  O   UNL     1      40.191 -25.201 -13.896  0.00  0.00    -0.250 OA
ATOM     21  C   UNL     1      39.111 -25.064 -14.456  0.00  0.00    +0.318 C 
ATOM     22  C   UNL     1      38.066 -26.135 -14.537  0.00  0.00    +0.121 C 
ENDBRANCH  19  21
ENDBRANCH   3  19
BRANCH   4  23
ATOM     23  C   UNL     1      34.337 -23.578 -16.266  0.00  0.00    +0.242 C 
BRANCH  23  24
ATOM     24  O   UNL     1      33.860 -23.596 -17.600  0.00  0.00    -0.446 OA
BRANCH  24  26
ATOM     25  O   UNL     1      32.673 -22.039 -18.826  0.00  0.00    -0.250 OA
ATOM     26  C   UNL     1      32.787 -22.788 -17.865  0.00  0.00    +0.318 C 
ATOM     27  C   UNL     1      31.749 -22.943 -16.795  0.00  0.00    +0.121 C 
ENDBRANCH  24  26
ENDBRANCH  23  24
ENDBRANCH   4  23
TORSDOF 8
ENDMDL
