MODEL 1
REMARK VINA RESULT:      -8.0      0.000      0.000
REMARK  Name = 5880
REMARK  1 active torsions:
REMARK  status: ('A' for Active; 'I' for Inactive)
REMARK    1  A    between atoms: C_19  and  O_21
REMARK                            x       y       z     vdW  Elec       q    Type
REMARK                         _______ _______ _______ _____ _____    ______ ____
ROOT
ATOM      1  O   UNL     1      29.907 -24.493 -15.177  0.00  0.00    -0.296 OA
ATOM      2  C   UNL     1      34.978 -24.393 -13.910  0.00  0.00    +0.000 C 
ATOM      3  C   UNL     1      36.369 -24.117 -13.225  0.00  0.00    +0.000 C 
ATOM      4  C   UNL     1      34.589 -23.260 -14.918  0.00  0.00    +0.000 C 
ATOM      5  C   UNL     1      33.249 -23.631 -15.562  0.00  0.00    +0.007 C 
ATOM      6  C   UNL     1      37.457 -23.892 -14.328  0.00  0.00    +0.002 C 
ATOM      7  C   UNL     1      32.123 -23.742 -14.514  0.00  0.00    +0.052 C 
ATOM      8  C   UNL     1      33.825 -24.709 -12.916  0.00  0.00    +0.000 C 
ATOM      9  C   UNL     1      35.683 -23.052 -15.971  0.00  0.00    +0.000 C 
ATOM     10  C   UNL     1      32.457 -24.912 -13.594  0.00  0.00    +0.007 C 
ATOM     11  C   UNL     1      37.050 -22.806 -15.338  0.00  0.00    +0.000 C 
ATOM     12  C   UNL     1      36.824 -25.293 -12.311  0.00  0.00    +0.002 C 
ATOM     13  C   UNL     1      32.657 -22.746 -16.653  0.00  0.00    +0.008 C 
ATOM     14  C   UNL     1      37.832 -25.193 -15.071  0.00  0.00    +0.029 C 
ATOM     15  C   UNL     1      36.301 -22.866 -12.311  0.00  0.00    +0.000 C 
ATOM     16  C   UNL     1      30.957 -23.936 -15.466  0.00  0.00    +0.150 C 
ATOM     17  C   UNL     1      37.164 -26.570 -13.069  0.00  0.00    +0.029 C 
ATOM     18  C   UNL     1      31.243 -23.319 -16.825  0.00  0.00    +0.064 C 
ATOM     19  C   UNL     1      38.240 -26.310 -14.115  0.00  0.00    +0.111 C 
ATOM     20  C   UNL     1      31.823 -22.464 -13.708  0.00  0.00    +0.007 C 
ENDROOT
BRANCH  19  21
ATOM     21  O   UNL     1      38.486 -27.503 -14.852  0.00  0.00    -0.384 OA
ATOM     22  H   UNL     1      37.644 -27.873 -15.159  0.00  0.00    +0.210 HD
ENDBRANCH  19  21
TORSDOF 1
ENDMDL
MODEL 2
REMARK VINA RESULT:      -7.2     11.802     14.442
REMARK  Name = 5880
REMARK  1 active torsions:
REMARK  status: ('A' for Active; 'I' for Inactive)
REMARK    1  A    between atoms: C_19  and  O_21
REMARK                            x       y       z     vdW  Elec       q    Type
REMARK                         _______ _______ _______ _____ _____    ______ ____
ROOT
ATOM      1  O   UNL     1      36.052 -17.781 -20.713  0.00  0.00    -0.296 OA
ATOM      2  C   UNL     1      33.949 -13.876 -23.483  0.00  0.00    +0.000 C 
ATOM      3  C   UNL     1      33.001 -12.757 -24.056  0.00  0.00    +0.000 C 
ATOM      4  C   UNL     1      33.624 -15.283 -24.087  0.00  0.00    +0.000 C 
ATOM      5  C   UNL     1      34.616 -16.296 -23.506  0.00  0.00    +0.007 C 
ATOM      6  C   UNL     1      33.065 -12.772 -25.621  0.00  0.00    +0.002 C 
ATOM      7  C   UNL     1      34.496 -16.398 -21.971  0.00  0.00    +0.052 C 
ATOM      8  C   UNL     1      34.034 -13.914 -21.931  0.00  0.00    +0.000 C 
ATOM      9  C   UNL     1      33.675 -15.257 -25.618  0.00  0.00    +0.000 C 
ATOM     10  C   UNL     1      34.912 -15.054 -21.382  0.00  0.00    +0.007 C 
ATOM     11  C   UNL     1      32.783 -14.166 -26.205  0.00  0.00    +0.000 C 
ATOM     12  C   UNL     1      33.391 -11.336 -23.556  0.00  0.00    +0.002 C 
ATOM     13  C   UNL     1      34.591 -17.745 -23.979  0.00  0.00    +0.008 C 
ATOM     14  C   UNL     1      34.402 -12.228 -26.168  0.00  0.00    +0.029 C 
ATOM     15  C   UNL     1      31.535 -12.984 -23.601  0.00  0.00    +0.000 C 
ATOM     16  C   UNL     1      35.448 -17.559 -21.754  0.00  0.00    +0.150 C 
ATOM     17  C   UNL     1      34.727 -10.835 -24.093  0.00  0.00    +0.029 C 
ATOM     18  C   UNL     1      35.536 -18.442 -22.989  0.00  0.00    +0.064 C 
ATOM     19  C   UNL     1      34.737 -10.845 -25.616  0.00  0.00    +0.111 C 
ATOM     20  C   UNL     1      33.126 -16.846 -21.430  0.00  0.00    +0.007 C 
ENDROOT
BRANCH  19  21
ATOM     21  O   UNL     1      36.018 -10.440 -26.088  0.00  0.00    -0.384 OA
ATOM     22  H   UNL     1      36.702 -10.762 -25.480  0.00  0.00    +0.210 HD
ENDBRANCH  19  21
TORSDOF 1
ENDMDL
MODEL 3
REMARK VINA RESULT:      -6.9      6.110      8.886
REMARK  Name = 5880
REMARK  1 active torsions:
REMARK  status: ('A' for Active; 'I' for Inactive)
REMARK    1  A    between atoms: C_19  and  O_21
REMARK                            x       y       z     vdW  Elec       q    Type
REMARK                         _______ _______ _______ _____ _____    ______ ____
ROOT
ATOM      1  O   UNL     1      33.323 -23.230 -17.001  0.00  0.00    -0.296 OA
ATOM      2  C   UNL     1      34.345 -19.655 -20.678  0.00  0.00    +0.000 C 
ATOM      3  C   UNL     1      34.544 -18.887 -22.038  0.00  0.00    +0.000 C 
ATOM      4  C   UNL     1      35.607 -20.498 -20.293  0.00  0.00    +0.000 C 
ATOM      5  C   UNL     1      35.339 -21.174 -18.945  0.00  0.00    +0.007 C 
ATOM      6  C   UNL     1      35.846 -18.021 -21.961  0.00  0.00    +0.002 C 
ATOM      7  C   UNL     1      34.132 -22.131 -19.015  0.00  0.00    +0.052 C 
ATOM      8  C   UNL     1      33.039 -20.495 -20.600  0.00  0.00    +0.000 C 
ATOM      9  C   UNL     1      36.866 -19.625 -20.246  0.00  0.00    +0.000 C 
ATOM     10  C   UNL     1      32.888 -21.293 -19.291  0.00  0.00    +0.007 C 
ATOM     11  C   UNL     1      37.074 -18.848 -21.543  0.00  0.00    +0.000 C 
ATOM     12  C   UNL     1      33.345 -17.952 -22.373  0.00  0.00    +0.002 C 
ATOM     13  C   UNL     1      36.432 -22.000 -18.276  0.00  0.00    +0.008 C 
ATOM     14  C   UNL     1      35.693 -16.794 -21.036  0.00  0.00    +0.029 C 
ATOM     15  C   UNL     1      34.658 -19.879 -23.225  0.00  0.00    +0.000 C 
ATOM     16  C   UNL     1      34.250 -22.736 -17.629  0.00  0.00    +0.150 C 
ATOM     17  C   UNL     1      33.204 -16.763 -21.429  0.00  0.00    +0.029 C 
ATOM     18  C   UNL     1      35.683 -22.684 -17.122  0.00  0.00    +0.064 C 
ATOM     19  C   UNL     1      34.484 -15.939 -21.401  0.00  0.00    +0.111 C 
ATOM     20  C   UNL     1      34.254 -23.297 -20.014  0.00  0.00    +0.007 C 
ENDROOT
BRANCH  19  21
ATOM     21  O   UNL     1      34.348 -14.878 -20.461  0.00  0.00    -0.384 OA
ATOM     22  H   UNL     1      33.475 -14.928 -20.041  0.00  0.00    +0.210 HD
ENDBRANCH  19  21
TORSDOF 1
ENDMDL
MODEL 4
REMARK VINA RESULT:      -6.3     17.946     20.086
REMARK  Name = 5880
REMARK  1 active torsions:
REMARK  status: ('A' for Active; 'I' for Inactive)
REMARK    1  A    between atoms: C_19  and  O_21
REMARK                            x       y       z     vdW  Elec       q    Type
REMARK                         _______ _______ _______ _____ _____    ______ ____
ROOT
ATOM      1  O   UNL     1      29.703  -3.116 -25.496  0.00  0.00    -0.296 OA
ATOM      2  C   UNL     1      32.200  -7.056 -23.133  0.00  0.00    +0.000 C 
ATOM      3  C   UNL     1      32.960  -7.976 -22.106  0.00  0.00    +0.000 C 
ATOM      4  C   UNL     1      33.177  -6.094 -23.890  0.00  0.00    +0.000 C 
ATOM      5  C   UNL     1      32.359  -5.271 -24.891  0.00  0.00    +0.007 C 
ATOM      6  C   UNL     1      34.109  -8.742 -22.845  0.00  0.00    +0.002 C 
ATOM      7  C   UNL     1      31.294  -4.408 -24.185  0.00  0.00    +0.052 C 
ATOM      8  C   UNL     1      30.982  -6.297 -22.536  0.00  0.00    +0.000 C 
ATOM      9  C   UNL     1      34.299  -6.874 -24.583  0.00  0.00    +0.000 C 
ATOM     10  C   UNL     1      30.287  -5.351 -23.534  0.00  0.00    +0.007 C 
ATOM     11  C   UNL     1      35.041  -7.794 -23.618  0.00  0.00    +0.000 C 
ATOM     12  C   UNL     1      32.019  -9.019 -21.434  0.00  0.00    +0.002 C 
ATOM     13  C   UNL     1      33.062  -4.300 -25.833  0.00  0.00    +0.008 C 
ATOM     14  C   UNL     1      33.582  -9.850 -23.782  0.00  0.00    +0.029 C 
ATOM     15  C   UNL     1      33.565  -7.138 -20.950  0.00  0.00    +0.000 C 
ATOM     16  C   UNL     1      30.811  -3.627 -25.393  0.00  0.00    +0.150 C 
ATOM     17  C   UNL     1      31.495 -10.085 -22.389  0.00  0.00    +0.029 C 
ATOM     18  C   UNL     1      31.893  -3.524 -26.456  0.00  0.00    +0.064 C 
ATOM     19  C   UNL     1      32.644 -10.818 -23.067  0.00  0.00    +0.111 C 
ATOM     20  C   UNL     1      31.825  -3.372 -23.177  0.00  0.00    +0.007 C 
ENDROOT
BRANCH  19  21
ATOM     21  O   UNL     1      32.125 -11.758 -24.003  0.00  0.00    -0.384 OA
ATOM     22  H   UNL     1      32.140 -11.371 -24.892  0.00  0.00    +0.210 HD
ENDBRANCH  19  21
TORSDOF 1
ENDMDL
MODEL 5
REMARK VINA RESULT:      -5.2     12.184     14.867
REMARK  Name = 5880
REMARK  1 active torsions:
REMARK  status: ('A' for Active; 'I' for Inactive)
REMARK    1  A    between atoms: C_19  and  O_21
REMARK                            x       y       z     vdW  Elec       q    Type
REMARK                         _______ _______ _______ _____ _____    ______ ____
ROOT
ATOM      1  O   UNL     1      35.049 -16.539 -20.547  0.00  0.00    -0.296 OA
ATOM      2  C   UNL     1      32.368 -12.072 -20.982  0.00  0.00    +0.000 C 
ATOM      3  C   UNL     1      31.237 -10.980 -21.071  0.00  0.00    +0.000 C 
ATOM      4  C   UNL     1      32.639 -12.746 -22.368  0.00  0.00    +0.000 C 
ATOM      5  C   UNL     1      33.775 -13.759 -22.195  0.00  0.00    +0.007 C 
ATOM      6  C   UNL     1      31.602  -9.942 -22.185  0.00  0.00    +0.002 C 
ATOM      7  C   UNL     1      33.402 -14.869 -21.191  0.00  0.00    +0.052 C 
ATOM      8  C   UNL     1      32.159 -13.122 -19.855  0.00  0.00    +0.000 C 
ATOM      9  C   UNL     1      32.973 -11.701 -23.439  0.00  0.00    +0.000 C 
ATOM     10  C   UNL     1      33.237 -14.222 -19.820  0.00  0.00    +0.007 C 
ATOM     11  C   UNL     1      31.906 -10.614 -23.535  0.00  0.00    +0.000 C 
ATOM     12  C   UNL     1      31.039 -10.218 -19.728  0.00  0.00    +0.002 C 
ATOM     13  C   UNL     1      34.314 -14.515 -23.404  0.00  0.00    +0.008 C 
ATOM     14  C   UNL     1      32.769  -9.016 -21.779  0.00  0.00    +0.029 C 
ATOM     15  C   UNL     1      29.865 -11.625 -21.403  0.00  0.00    +0.000 C 
ATOM     16  C   UNL     1      34.619 -15.755 -21.382  0.00  0.00    +0.150 C 
ATOM     17  C   UNL     1      32.217  -9.331 -19.340  0.00  0.00    +0.029 C 
ATOM     18  C   UNL     1      35.225 -15.574 -22.765  0.00  0.00    +0.064 C 
ATOM     19  C   UNL     1      32.523  -8.325 -20.441  0.00  0.00    +0.111 C 
ATOM     20  C   UNL     1      32.175 -15.725 -21.558  0.00  0.00    +0.007 C 
ENDROOT
BRANCH  19  21
ATOM     21  O   UNL     1      33.668  -7.559 -20.082  0.00  0.00    -0.384 OA
ATOM     22  H   UNL     1      34.164  -7.323 -20.882  0.00  0.00    +0.210 HD
ENDBRANCH  19  21
TORSDOF 1
ENDMDL
