MODEL 1
REMARK VINA RESULT:      -5.9      0.000      0.000
REMARK  Name = 107526
REMARK  10 active torsions:
REMARK  status: ('A' for Active; 'I' for Inactive)
REMARK    1  A    between atoms: C_1  and  O_2
REMARK    2  A    between atoms: C_1  and  C_4
REMARK    3  A    between atoms: C_1  and  C_12
REMARK    4  A    between atoms: C_4  and  O_5
REMARK    5  A    between atoms: C_4  and  C_7
REMARK    6  A    between atoms: C_7  and  O_8
REMARK    7  A    between atoms: C_7  and  C_11
REMARK    8  A    between atoms: C_12  and  O_13
REMARK    9  A    between atoms: C_12  and  C_15
REMARK   10  A    between atoms: C_15  and  O_16
REMARK                            x       y       z     vdW  Elec       q    Type
REMARK                         _______ _______ _______ _____ _____    ______ ____
ROOT
ATOM      1  C   UNL     1      37.220 -25.217 -14.019  0.00  0.00    +0.169 C 
ENDROOT
BRANCH   1   2
ATOM      2  O   UNL     1      35.923 -25.751 -14.309  0.00  0.00    -0.379 OA
ATOM      3  H   UNL     1      35.871 -26.665 -13.992  0.00  0.00    +0.211 HD
ENDBRANCH   1   2
BRANCH   1   4
ATOM      4  C   UNL     1      37.519 -25.356 -12.517  0.00  0.00    +0.174 C 
BRANCH   4   5
ATOM      5  O   UNL     1      36.883 -26.558 -12.065  0.00  0.00    -0.379 OA
ATOM      6  H   UNL     1      36.287 -26.352 -11.329  0.00  0.00    +0.211 HD
ENDBRANCH   4   5
BRANCH   4   7
ATOM      7  C   UNL     1      37.110 -24.185 -11.613  0.00  0.00    +0.205 C 
BRANCH   7   8
ATOM      8  O   UNL     1      37.241 -22.985 -12.367  0.00  0.00    -0.375 OA
ATOM      9  H   UNL     1      36.433 -22.455 -12.275  0.00  0.00    +0.211 HD
ENDBRANCH   7   8
BRANCH   7  11
ATOM     10  O   UNL     1      35.296 -25.025 -10.235  0.00  0.00    -0.286 OA
ATOM     11  C   UNL     1      35.681 -24.263 -11.117  0.00  0.00    +0.239 C 
ENDBRANCH   7  11
ENDBRANCH   4   7
ENDBRANCH   1   4
BRANCH   1  12
ATOM     12  C   UNL     1      38.217 -25.909 -14.959  0.00  0.00    +0.169 C 
BRANCH  12  13
ATOM     13  O   UNL     1      38.252 -27.303 -14.615  0.00  0.00    -0.379 OA
ATOM     14  H   UNL     1      38.209 -27.836 -15.424  0.00  0.00    +0.211 HD
ENDBRANCH  12  13
BRANCH  12  15
ATOM     15  C   UNL     1      39.645 -25.387 -14.844  0.00  0.00    +0.169 C 
BRANCH  15  16
ATOM     16  O   UNL     1      40.403 -25.871 -15.950  0.00  0.00    -0.379 OA
ATOM     17  H   UNL     1      41.312 -26.055 -15.663  0.00  0.00    +0.211 HD
ENDBRANCH  15  16
ENDBRANCH  12  15
ENDBRANCH   1  12
TORSDOF 10
ENDMDL
MODEL 2
REMARK VINA RESULT:      -5.8      1.582      4.819
REMARK  Name = 107526
REMARK  10 active torsions:
REMARK  status: ('A' for Active; 'I' for Inactive)
REMARK    1  A    between atoms: C_1  and  O_2
REMARK    2  A    between atoms: C_1  and  C_4
REMARK    3  A    between atoms: C_1  and  C_12
REMARK    4  A    between atoms: C_4  and  O_5
REMARK    5  A    between atoms: C_4  and  C_7
REMARK    6  A    between atoms: C_7  and  O_8
REMARK    7  A    between atoms: C_7  and  C_11
REMARK    8  A    between atoms: C_12  and  O_13
REMARK    9  A    between atoms: C_12  and  C_15
REMARK   10  A    between atoms: C_15  and  O_16
REMARK                            x       y       z     vdW  Elec       q    Type
REMARK                         _______ _______ _______ _____ _____    ______ ____
ROOT
ATOM      1  C   UNL     1      37.063 -23.909 -13.399  0.00  0.00    +0.169 C 
ENDROOT
BRANCH   1   2
ATOM      2  O   UNL     1      37.532 -22.800 -14.175  0.00  0.00    -0.379 OA
ATOM      3  H   UNL     1      36.811 -22.465 -14.730  0.00  0.00    +0.211 HD
ENDBRANCH   1   2
BRANCH   1   4
ATOM      4  C   UNL     1      38.187 -24.945 -13.234  0.00  0.00    +0.174 C 
BRANCH   4   5
ATOM      5  O   UNL     1      39.344 -24.247 -12.756  0.00  0.00    -0.379 OA
ATOM      6  H   UNL     1      39.814 -23.850 -13.506  0.00  0.00    +0.211 HD
ENDBRANCH   4   5
BRANCH   4   7
ATOM      7  C   UNL     1      38.558 -25.774 -14.471  0.00  0.00    +0.205 C 
BRANCH   7   8
ATOM      8  O   UNL     1      37.616 -25.476 -15.496  0.00  0.00    -0.375 OA
ATOM      9  H   UNL     1      36.719 -25.664 -15.176  0.00  0.00    +0.211 HD
ENDBRANCH   7   8
BRANCH   7  11
ATOM     10  O   UNL     1      40.974 -25.980 -14.589  0.00  0.00    -0.286 OA
ATOM     11  C   UNL     1      39.939 -25.477 -15.016  0.00  0.00    +0.239 C 
ENDBRANCH   7  11
ENDBRANCH   4   7
ENDBRANCH   1   4
BRANCH   1  12
ATOM     12  C   UNL     1      36.491 -23.340 -12.093  0.00  0.00    +0.169 C 
BRANCH  12  13
ATOM     13  O   UNL     1      37.576 -22.764 -11.350  0.00  0.00    -0.379 OA
ATOM     14  H   UNL     1      37.250 -22.449 -10.493  0.00  0.00    +0.211 HD
ENDBRANCH  12  13
BRANCH  12  15
ATOM     15  C   UNL     1      35.839 -24.384 -11.193  0.00  0.00    +0.169 C 
BRANCH  15  16
ATOM     16  O   UNL     1      36.206 -24.121  -9.841  0.00  0.00    -0.379 OA
ATOM     17  H   UNL     1      36.578 -23.227  -9.775  0.00  0.00    +0.211 HD
ENDBRANCH  15  16
ENDBRANCH  12  15
ENDBRANCH   1  12
TORSDOF 10
ENDMDL
MODEL 3
REMARK VINA RESULT:      -5.8      1.274      4.542
REMARK  Name = 107526
REMARK  10 active torsions:
REMARK  status: ('A' for Active; 'I' for Inactive)
REMARK    1  A    between atoms: C_1  and  O_2
REMARK    2  A    between atoms: C_1  and  C_4
REMARK    3  A    between atoms: C_1  and  C_12
REMARK    4  A    between atoms: C_4  and  O_5
REMARK    5  A    between atoms: C_4  and  C_7
REMARK    6  A    between atoms: C_7  and  O_8
REMARK    7  A    between atoms: C_7  and  C_11
REMARK    8  A    between atoms: C_12  and  O_13
REMARK    9  A    between atoms: C_12  and  C_15
REMARK   10  A    between atoms: C_15  and  O_16
REMARK                            x       y       z     vdW  Elec       q    Type
REMARK                         _______ _______ _______ _____ _____    ______ ____
ROOT
ATOM      1  C   UNL     1      37.926 -25.284 -12.616  0.00  0.00    +0.169 C 
ENDROOT
BRANCH   1   2
ATOM      2  O   UNL     1      37.197 -26.218 -11.810  0.00  0.00    -0.379 OA
ATOM      3  H   UNL     1      36.883 -26.948 -12.365  0.00  0.00    +0.211 HD
ENDBRANCH   1   2
BRANCH   1   4
ATOM      4  C   UNL     1      37.861 -25.705 -14.094  0.00  0.00    +0.174 C 
BRANCH   4   5
ATOM      5  O   UNL     1      37.659 -27.124 -14.124  0.00  0.00    -0.379 OA
ATOM      6  H   UNL     1      38.447 -27.570 -13.776  0.00  0.00    +0.211 HD
ENDBRANCH   4   5
BRANCH   4   7
ATOM      7  C   UNL     1      39.061 -25.336 -14.976  0.00  0.00    +0.205 C 
BRANCH   7   8
ATOM      8  O   UNL     1      38.920 -23.971 -15.357  0.00  0.00    -0.375 OA
ATOM      9  H   UNL     1      39.797 -23.589 -15.520  0.00  0.00    +0.211 HD
ENDBRANCH   7   8
BRANCH   7  11
ATOM     10  O   UNL     1      40.922 -26.562 -14.013  0.00  0.00    -0.286 OA
ATOM     11  C   UNL     1      40.400 -25.484 -14.285  0.00  0.00    +0.239 C 
ENDBRANCH   7  11
ENDBRANCH   4   7
ENDBRANCH   1   4
BRANCH   1  12
ATOM     12  C   UNL     1      37.375 -23.885 -12.302  0.00  0.00    +0.169 C 
BRANCH  12  13
ATOM     13  O   UNL     1      38.395 -23.156 -11.605  0.00  0.00    -0.379 OA
ATOM     14  H   UNL     1      38.265 -22.205 -11.744  0.00  0.00    +0.211 HD
ENDBRANCH  12  13
BRANCH  12  15
ATOM     15  C   UNL     1      36.139 -23.889 -11.409  0.00  0.00    +0.169 C 
BRANCH  15  16
ATOM     16  O   UNL     1      36.556 -23.929 -10.046  0.00  0.00    -0.379 OA
ATOM     17  H   UNL     1      35.857 -24.328  -9.505  0.00  0.00    +0.211 HD
ENDBRANCH  15  16
ENDBRANCH  12  15
ENDBRANCH   1  12
TORSDOF 10
ENDMDL
MODEL 4
REMARK VINA RESULT:      -5.8      1.436      4.329
REMARK  Name = 107526
REMARK  10 active torsions:
REMARK  status: ('A' for Active; 'I' for Inactive)
REMARK    1  A    between atoms: C_1  and  O_2
REMARK    2  A    between atoms: C_1  and  C_4
REMARK    3  A    between atoms: C_1  and  C_12
REMARK    4  A    between atoms: C_4  and  O_5
REMARK    5  A    between atoms: C_4  and  C_7
REMARK    6  A    between atoms: C_7  and  O_8
REMARK    7  A    between atoms: C_7  and  C_11
REMARK    8  A    between atoms: C_12  and  O_13
REMARK    9  A    between atoms: C_12  and  C_15
REMARK   10  A    between atoms: C_15  and  O_16
REMARK                            x       y       z     vdW  Elec       q    Type
REMARK                         _______ _______ _______ _____ _____    ______ ____
ROOT
ATOM      1  C   UNL     1      36.939 -25.732 -12.628  0.00  0.00    +0.169 C 
ENDROOT
BRANCH   1   2
ATOM      2  O   UNL     1      36.139 -26.132 -13.747  0.00  0.00    -0.379 OA
ATOM      3  H   UNL     1      35.558 -25.401 -14.007  0.00  0.00    +0.211 HD
ENDBRANCH   1   2
BRANCH   1   4
ATOM      4  C   UNL     1      38.342 -25.323 -13.108  0.00  0.00    +0.174 C 
BRANCH   4   5
ATOM      5  O   UNL     1      38.549 -23.962 -12.708  0.00  0.00    -0.379 OA
ATOM      6  H   UNL     1      37.726 -23.604 -12.342  0.00  0.00    +0.211 HD
ENDBRANCH   4   5
BRANCH   4   7
ATOM      7  C   UNL     1      38.637 -25.471 -14.607  0.00  0.00    +0.205 C 
BRANCH   7   8
ATOM      8  O   UNL     1      37.889 -24.479 -15.300  0.00  0.00    -0.375 OA
ATOM      9  H   UNL     1      37.061 -24.305 -14.824  0.00  0.00    +0.211 HD
ENDBRANCH   7   8
BRANCH   7  11
ATOM     10  O   UNL     1      40.945 -24.838 -14.200  0.00  0.00    -0.286 OA
ATOM     11  C   UNL     1      40.096 -25.283 -14.967  0.00  0.00    +0.239 C 
ENDBRANCH   7  11
ENDBRANCH   4   7
ENDBRANCH   1   4
BRANCH   1  12
ATOM     12  C   UNL     1      36.156 -24.647 -11.874  0.00  0.00    +0.169 C 
BRANCH  12  13
ATOM     13  O   UNL     1      35.484 -25.275 -10.772  0.00  0.00    -0.379 OA
ATOM     14  H   UNL     1      36.011 -25.163  -9.966  0.00  0.00    +0.211 HD
ENDBRANCH  12  13
BRANCH  12  15
ATOM     15  C   UNL     1      35.087 -23.954 -12.712  0.00  0.00    +0.169 C 
BRANCH  15  16
ATOM     16  O   UNL     1      35.726 -23.112 -13.669  0.00  0.00    -0.379 OA
ATOM     17  H   UNL     1      35.573 -22.183 -13.434  0.00  0.00    +0.211 HD
ENDBRANCH  15  16
ENDBRANCH  12  15
ENDBRANCH   1  12
TORSDOF 10
ENDMDL
MODEL 5
REMARK VINA RESULT:      -5.7      1.753      4.715
REMARK  Name = 107526
REMARK  10 active torsions:
REMARK  status: ('A' for Active; 'I' for Inactive)
REMARK    1  A    between atoms: C_1  and  O_2
REMARK    2  A    between atoms: C_1  and  C_4
REMARK    3  A    between atoms: C_1  and  C_12
REMARK    4  A    between atoms: C_4  and  O_5
REMARK    5  A    between atoms: C_4  and  C_7
REMARK    6  A    between atoms: C_7  and  O_8
REMARK    7  A    between atoms: C_7  and  C_11
REMARK    8  A    between atoms: C_12  and  O_13
REMARK    9  A    between atoms: C_12  and  C_15
REMARK   10  A    between atoms: C_15  and  O_16
REMARK                            x       y       z     vdW  Elec       q    Type
REMARK                         _______ _______ _______ _____ _____    ______ ____
ROOT
ATOM      1  C   UNL     1      37.925 -24.305 -12.598  0.00  0.00    +0.169 C 
ENDROOT
BRANCH   1   2
ATOM      2  O   UNL     1      37.850 -25.520 -11.842  0.00  0.00    -0.379 OA
ATOM      3  H   UNL     1      37.064 -26.019 -12.111  0.00  0.00    +0.211 HD
ENDBRANCH   1   2
BRANCH   1   4
ATOM      4  C   UNL     1      37.851 -24.618 -14.102  0.00  0.00    +0.174 C 
BRANCH   4   5
ATOM      5  O   UNL     1      37.961 -23.373 -14.802  0.00  0.00    -0.379 OA
ATOM      6  H   UNL     1      37.413 -23.402 -15.602  0.00  0.00    +0.211 HD
ENDBRANCH   4   5
BRANCH   4   7
ATOM      7  C   UNL     1      36.613 -25.379 -14.595  0.00  0.00    +0.205 C 
BRANCH   7   8
ATOM      8  O   UNL     1      36.095 -24.688 -15.726  0.00  0.00    -0.375 OA
ATOM      9  H   UNL     1      35.173 -24.437 -15.558  0.00  0.00    +0.211 HD
ENDBRANCH   7   8
BRANCH   7  11
ATOM     10  O   UNL     1      36.725 -27.236 -16.155  0.00  0.00    -0.286 OA
ATOM     11  C   UNL     1      36.898 -26.805 -15.018  0.00  0.00    +0.239 C 
ENDBRANCH   7  11
ENDBRANCH   4   7
ENDBRANCH   1   4
BRANCH   1  12
ATOM     12  C   UNL     1      36.831 -23.369 -12.063  0.00  0.00    +0.169 C 
BRANCH  12  13
ATOM     13  O   UNL     1      37.462 -22.387 -11.228  0.00  0.00    -0.379 OA
ATOM     14  H   UNL     1      38.324 -22.148 -11.604  0.00  0.00    +0.211 HD
ENDBRANCH  12  13
BRANCH  12  15
ATOM     15  C   UNL     1      35.777 -24.067 -11.212  0.00  0.00    +0.169 C 
BRANCH  15  16
ATOM     16  O   UNL     1      36.237 -24.126  -9.864  0.00  0.00    -0.379 OA
ATOM     17  H   UNL     1      36.675 -24.978  -9.709  0.00  0.00    +0.211 HD
ENDBRANCH  15  16
ENDBRANCH  12  15
ENDBRANCH   1  12
TORSDOF 10
ENDMDL
MODEL 6
REMARK VINA RESULT:      -5.7      1.194      4.796
REMARK  Name = 107526
REMARK  10 active torsions:
REMARK  status: ('A' for Active; 'I' for Inactive)
REMARK    1  A    between atoms: C_1  and  O_2
REMARK    2  A    between atoms: C_1  and  C_4
REMARK    3  A    between atoms: C_1  and  C_12
REMARK    4  A    between atoms: C_4  and  O_5
REMARK    5  A    between atoms: C_4  and  C_7
REMARK    6  A    between atoms: C_7  and  O_8
REMARK    7  A    between atoms: C_7  and  C_11
REMARK    8  A    between atoms: C_12  and  O_13
REMARK    9  A    between atoms: C_12  and  C_15
REMARK   10  A    between atoms: C_15  and  O_16
REMARK                            x       y       z     vdW  Elec       q    Type
REMARK                         _______ _______ _______ _____ _____    ______ ____
ROOT
ATOM      1  C   UNL     1      36.384 -25.406 -13.663  0.00  0.00    +0.169 C 
ENDROOT
BRANCH   1   2
ATOM      2  O   UNL     1      35.556 -25.867 -14.737  0.00  0.00    -0.379 OA
ATOM      3  H   UNL     1      35.683 -26.820 -14.857  0.00  0.00    +0.211 HD
ENDBRANCH   1   2
BRANCH   1   4
ATOM      4  C   UNL     1      37.712 -24.866 -14.219  0.00  0.00    +0.174 C 
BRANCH   4   5
ATOM      5  O   UNL     1      37.470 -24.448 -15.568  0.00  0.00    -0.379 OA
ATOM      6  H   UNL     1      38.015 -24.976 -16.173  0.00  0.00    +0.211 HD
ENDBRANCH   4   5
BRANCH   4   7
ATOM      7  C   UNL     1      38.919 -25.813 -14.181  0.00  0.00    +0.205 C 
BRANCH   7   8
ATOM      8  O   UNL     1      38.497 -27.080 -14.675  0.00  0.00    -0.375 OA
ATOM      9  H   UNL     1      38.540 -27.079 -15.645  0.00  0.00    +0.211 HD
ENDBRANCH   7   8
BRANCH   7  11
ATOM     10  O   UNL     1      40.667 -26.061 -15.847  0.00  0.00    -0.286 OA
ATOM     11  C   UNL     1      40.086 -25.354 -15.029  0.00  0.00    +0.239 C 
ENDBRANCH   7  11
ENDBRANCH   4   7
ENDBRANCH   1   4
BRANCH   1  12
ATOM     12  C   UNL     1      35.554 -24.405 -12.846  0.00  0.00    +0.169 C 
BRANCH  12  13
ATOM     13  O   UNL     1      35.651 -23.125 -13.488  0.00  0.00    -0.379 OA
ATOM     14  H   UNL     1      36.577 -22.945 -13.713  0.00  0.00    +0.211 HD
ENDBRANCH  12  13
BRANCH  12  15
ATOM     15  C   UNL     1      36.036 -24.221 -11.411  0.00  0.00    +0.169 C 
BRANCH  15  16
ATOM     16  O   UNL     1      35.305 -25.104 -10.563  0.00  0.00    -0.379 OA
ATOM     17  H   UNL     1      35.905 -25.776 -10.203  0.00  0.00    +0.211 HD
ENDBRANCH  15  16
ENDBRANCH  12  15
ENDBRANCH   1  12
TORSDOF 10
ENDMDL
MODEL 7
REMARK VINA RESULT:      -5.7      1.689      3.906
REMARK  Name = 107526
REMARK  10 active torsions:
REMARK  status: ('A' for Active; 'I' for Inactive)
REMARK    1  A    between atoms: C_1  and  O_2
REMARK    2  A    between atoms: C_1  and  C_4
REMARK    3  A    between atoms: C_1  and  C_12
REMARK    4  A    between atoms: C_4  and  O_5
REMARK    5  A    between atoms: C_4  and  C_7
REMARK    6  A    between atoms: C_7  and  O_8
REMARK    7  A    between atoms: C_7  and  C_11
REMARK    8  A    between atoms: C_12  and  O_13
REMARK    9  A    between atoms: C_12  and  C_15
REMARK   10  A    between atoms: C_15  and  O_16
REMARK                            x       y       z     vdW  Elec       q    Type
REMARK                         _______ _______ _______ _____ _____    ______ ____
ROOT
ATOM      1  C   UNL     1      37.987 -25.922 -14.261  0.00  0.00    +0.169 C 
ENDROOT
BRANCH   1   2
ATOM      2  O   UNL     1      38.979 -26.859 -14.695  0.00  0.00    -0.379 OA
ATOM      3  H   UNL     1      39.731 -26.381 -15.075  0.00  0.00    +0.211 HD
ENDBRANCH   1   2
BRANCH   1   4
ATOM      4  C   UNL     1      36.613 -26.312 -14.832  0.00  0.00    +0.174 C 
BRANCH   4   5
ATOM      5  O   UNL     1      36.845 -27.012 -16.061  0.00  0.00    -0.379 OA
ATOM      6  H   UNL     1      36.928 -27.961 -15.882  0.00  0.00    +0.211 HD
ENDBRANCH   4   5
BRANCH   4   7
ATOM      7  C   UNL     1      35.608 -25.175 -15.067  0.00  0.00    +0.205 C 
BRANCH   7   8
ATOM      8  O   UNL     1      34.814 -25.044 -13.893  0.00  0.00    -0.375 OA
ATOM      9  H   UNL     1      34.441 -25.908 -13.656  0.00  0.00    +0.211 HD
ENDBRANCH   7   8
BRANCH   7  11
ATOM     10  O   UNL     1      36.160 -23.222 -16.399  0.00  0.00    -0.286 OA
ATOM     11  C   UNL     1      36.254 -23.833 -15.338  0.00  0.00    +0.239 C 
ENDBRANCH   7  11
ENDBRANCH   4   7
ENDBRANCH   1   4
BRANCH   1  12
ATOM     12  C   UNL     1      38.069 -25.849 -12.729  0.00  0.00    +0.169 C 
BRANCH  12  13
ATOM     13  O   UNL     1      36.887 -26.464 -12.195  0.00  0.00    -0.379 OA
ATOM     14  H   UNL     1      36.715 -27.295 -12.663  0.00  0.00    +0.211 HD
ENDBRANCH  12  13
BRANCH  12  15
ATOM     15  C   UNL     1      38.123 -24.429 -12.176  0.00  0.00    +0.169 C 
BRANCH  15  16
ATOM     16  O   UNL     1      37.276 -24.348 -11.033  0.00  0.00    -0.379 OA
ATOM     17  H   UNL     1      36.622 -25.064 -11.063  0.00  0.00    +0.211 HD
ENDBRANCH  15  16
ENDBRANCH  12  15
ENDBRANCH   1  12
TORSDOF 10
ENDMDL
MODEL 8
REMARK VINA RESULT:      -5.6      1.300      2.475
REMARK  Name = 107526
REMARK  10 active torsions:
REMARK  status: ('A' for Active; 'I' for Inactive)
REMARK    1  A    between atoms: C_1  and  O_2
REMARK    2  A    between atoms: C_1  and  C_4
REMARK    3  A    between atoms: C_1  and  C_12
REMARK    4  A    between atoms: C_4  and  O_5
REMARK    5  A    between atoms: C_4  and  C_7
REMARK    6  A    between atoms: C_7  and  O_8
REMARK    7  A    between atoms: C_7  and  C_11
REMARK    8  A    between atoms: C_12  and  O_13
REMARK    9  A    between atoms: C_12  and  C_15
REMARK   10  A    between atoms: C_15  and  O_16
REMARK                            x       y       z     vdW  Elec       q    Type
REMARK                         _______ _______ _______ _____ _____    ______ ____
ROOT
ATOM      1  C   UNL     1      37.761 -25.554 -14.761  0.00  0.00    +0.169 C 
ENDROOT
BRANCH   1   2
ATOM      2  O   UNL     1      38.067 -26.906 -14.403  0.00  0.00    -0.379 OA
ATOM      3  H   UNL     1      37.832 -27.496 -15.136  0.00  0.00    +0.211 HD
ENDBRANCH   1   2
BRANCH   1   4
ATOM      4  C   UNL     1      36.604 -25.030 -13.893  0.00  0.00    +0.174 C 
BRANCH   4   5
ATOM      5  O   UNL     1      36.358 -23.674 -14.284  0.00  0.00    -0.379 OA
ATOM      6  H   UNL     1      35.823 -23.234 -13.606  0.00  0.00    +0.211 HD
ENDBRANCH   4   5
BRANCH   4   7
ATOM      7  C   UNL     1      36.787 -25.104 -12.371  0.00  0.00    +0.205 C 
BRANCH   7   8
ATOM      8  O   UNL     1      36.893 -26.476 -12.009  0.00  0.00    -0.375 OA
ATOM      9  H   UNL     1      36.929 -27.021 -12.811  0.00  0.00    +0.211 HD
ENDBRANCH   7   8
BRANCH   7  11
ATOM     10  O   UNL     1      38.111 -23.187 -11.685  0.00  0.00    -0.286 OA
ATOM     11  C   UNL     1      38.029 -24.398 -11.868  0.00  0.00    +0.239 C 
ENDBRANCH   7  11
ENDBRANCH   4   7
ENDBRANCH   1   4
BRANCH   1  12
ATOM     12  C   UNL     1      39.068 -24.753 -14.674  0.00  0.00    +0.169 C 
BRANCH  12  13
ATOM     13  O   UNL     1      39.098 -23.837 -15.778  0.00  0.00    -0.379 OA
ATOM     14  H   UNL     1      38.849 -22.951 -15.471  0.00  0.00    +0.211 HD
ENDBRANCH  12  13
BRANCH  12  15
ATOM     15  C   UNL     1      40.328 -25.606 -14.768  0.00  0.00    +0.169 C 
BRANCH  15  16
ATOM     16  O   UNL     1      40.529 -25.983 -16.128  0.00  0.00    -0.379 OA
ATOM     17  H   UNL     1      41.400 -26.400 -16.222  0.00  0.00    +0.211 HD
ENDBRANCH  15  16
ENDBRANCH  12  15
ENDBRANCH   1  12
TORSDOF 10
ENDMDL
MODEL 9
REMARK VINA RESULT:      -5.6      9.008     10.643
REMARK  Name = 107526
REMARK  10 active torsions:
REMARK  status: ('A' for Active; 'I' for Inactive)
REMARK    1  A    between atoms: C_1  and  O_2
REMARK    2  A    between atoms: C_1  and  C_4
REMARK    3  A    between atoms: C_1  and  C_12
REMARK    4  A    between atoms: C_4  and  O_5
REMARK    5  A    between atoms: C_4  and  C_7
REMARK    6  A    between atoms: C_7  and  O_8
REMARK    7  A    between atoms: C_7  and  C_11
REMARK    8  A    between atoms: C_12  and  O_13
REMARK    9  A    between atoms: C_12  and  C_15
REMARK   10  A    between atoms: C_15  and  O_16
REMARK                            x       y       z     vdW  Elec       q    Type
REMARK                         _______ _______ _______ _____ _____    ______ ____
ROOT
ATOM      1  C   UNL     1      27.668 -23.039 -16.297  0.00  0.00    +0.169 C 
ENDROOT
BRANCH   1   2
ATOM      2  O   UNL     1      27.615 -23.738 -17.546  0.00  0.00    -0.379 OA
ATOM      3  H   UNL     1      27.026 -23.267 -18.155  0.00  0.00    +0.211 HD
ENDBRANCH   1   2
BRANCH   1   4
ATOM      4  C   UNL     1      29.130 -22.733 -15.930  0.00  0.00    +0.174 C 
BRANCH   4   5
ATOM      5  O   UNL     1      29.811 -22.388 -17.144  0.00  0.00    -0.379 OA
ATOM      6  H   UNL     1      30.097 -21.463 -17.102  0.00  0.00    +0.211 HD
ENDBRANCH   4   5
BRANCH   4   7
ATOM      7  C   UNL     1      29.908 -23.833 -15.196  0.00  0.00    +0.205 C 
BRANCH   7   8
ATOM      8  O   UNL     1      29.808 -25.027 -15.964  0.00  0.00    -0.375 OA
ATOM      9  H   UNL     1      30.275 -25.745 -15.508  0.00  0.00    +0.211 HD
ENDBRANCH   7   8
BRANCH   7  11
ATOM     10  O   UNL     1      31.814 -22.598 -14.336  0.00  0.00    -0.286 OA
ATOM     11  C   UNL     1      31.380 -23.525 -15.014  0.00  0.00    +0.239 C 
ENDBRANCH   7  11
ENDBRANCH   4   7
ENDBRANCH   1   4
BRANCH   1  12
ATOM     12  C   UNL     1      26.748 -21.815 -16.421  0.00  0.00    +0.169 C 
BRANCH  12  13
ATOM     13  O   UNL     1      25.570 -22.070 -15.642  0.00  0.00    -0.379 OA
ATOM     14  H   UNL     1      25.775 -22.712 -14.945  0.00  0.00    +0.211 HD
ENDBRANCH  12  13
BRANCH  12  15
ATOM     15  C   UNL     1      26.287 -21.525 -17.845  0.00  0.00    +0.169 C 
BRANCH  15  16
ATOM     16  O   UNL     1      26.007 -20.133 -17.965  0.00  0.00    -0.379 OA
ATOM     17  H   UNL     1      26.495 -19.646 -17.282  0.00  0.00    +0.211 HD
ENDBRANCH  15  16
ENDBRANCH  12  15
ENDBRANCH   1  12
TORSDOF 10
ENDMDL
