MODEL 1
REMARK VINA RESULT:      -6.1      0.000      0.000
REMARK  Name = 76726
REMARK  2 active torsions:
REMARK  status: ('A' for Active; 'I' for Inactive)
REMARK    1  A    between atoms: C_5  and  N_11
REMARK    2  A    between atoms: C_6  and  N_14
REMARK                            x       y       z     vdW  Elec       q    Type
REMARK                         _______ _______ _______ _____ _____    ______ ____
ROOT
ATOM      1  O   UNL     1      37.183 -26.513 -12.045  0.00  0.00    -0.266 OA
ATOM      2  O   UNL     1      40.885 -25.647 -14.628  0.00  0.00    -0.247 OA
ATOM      3  N   UNL     1      38.879 -24.670 -15.165  0.00  0.00    -0.295 N 
ATOM      4  N   UNL     1      39.042 -26.092 -13.327  0.00  0.00    -0.273 N 
ATOM      5  C   UNL     1      37.534 -24.446 -14.947  0.00  0.00    +0.124 A 
ATOM      6  C   UNL     1      36.916 -25.047 -13.905  0.00  0.00    +0.128 A 
ATOM      7  C   UNL     1      37.705 -25.948 -13.004  0.00  0.00    +0.277 A 
ATOM      8  C   UNL     1      39.688 -25.480 -14.392  0.00  0.00    +0.328 A 
ATOM      9  H   UNL     1      39.294 -24.216 -15.933  0.00  0.00    +0.172 HD
ATOM     10  H   UNL     1      39.583 -26.680 -12.751  0.00  0.00    +0.173 HD
ENDROOT
BRANCH   5  11
ATOM     11  N   UNL     1      36.867 -23.611 -15.807  0.00  0.00    -0.343 N 
ATOM     12  H   UNL     1      37.050 -23.653 -16.774  0.00  0.00    +0.144 HD
ATOM     13  H   UNL     1      36.207 -22.970 -15.459  0.00  0.00    +0.144 HD
ENDBRANCH   5  11
BRANCH   6  14
ATOM     14  N   UNL     1      35.596 -24.915 -13.575  0.00  0.00    -0.351 N 
ATOM     15  H   UNL     1      35.160 -25.590 -13.006  0.00  0.00    +0.143 HD
ATOM     16  H   UNL     1      35.080 -24.143 -13.906  0.00  0.00    +0.143 HD
ENDBRANCH   6  14
TORSDOF 2
ENDMDL
MODEL 2
REMARK VINA RESULT:      -6.0      2.903      4.203
REMARK  Name = 76726
REMARK  2 active torsions:
REMARK  status: ('A' for Active; 'I' for Inactive)
REMARK    1  A    between atoms: C_5  and  N_11
REMARK    2  A    between atoms: C_6  and  N_14
REMARK                            x       y       z     vdW  Elec       q    Type
REMARK                         _______ _______ _______ _____ _____    ______ ____
ROOT
ATOM      1  O   UNL     1      38.290 -22.302 -12.034  0.00  0.00    -0.266 OA
ATOM      2  O   UNL     1      35.240 -24.890  -9.768  0.00  0.00    -0.247 OA
ATOM      3  N   UNL     1      35.222 -24.870 -12.063  0.00  0.00    -0.295 N 
ATOM      4  N   UNL     1      36.771 -23.589 -10.886  0.00  0.00    -0.273 N 
ATOM      5  C   UNL     1      35.709 -24.445 -13.283  0.00  0.00    +0.124 A 
ATOM      6  C   UNL     1      36.744 -23.577 -13.325  0.00  0.00    +0.128 A 
ATOM      7  C   UNL     1      37.347 -23.091 -12.041  0.00  0.00    +0.277 A 
ATOM      8  C   UNL     1      35.709 -24.480 -10.830  0.00  0.00    +0.328 A 
ATOM      9  H   UNL     1      34.468 -25.502 -12.072  0.00  0.00    +0.172 HD
ATOM     10  H   UNL     1      37.148 -23.284 -10.029  0.00  0.00    +0.173 HD
ENDROOT
BRANCH   5  11
ATOM     11  N   UNL     1      35.114 -24.926 -14.422  0.00  0.00    -0.343 N 
ATOM     12  H   UNL     1      34.506 -25.699 -14.371  0.00  0.00    +0.144 HD
ATOM     13  H   UNL     1      35.295 -24.499 -15.290  0.00  0.00    +0.144 HD
ENDBRANCH   5  11
BRANCH   6  14
ATOM     14  N   UNL     1      37.322 -23.076 -14.458  0.00  0.00    -0.351 N 
ATOM     15  H   UNL     1      38.057 -22.425 -14.390  0.00  0.00    +0.143 HD
ATOM     16  H   UNL     1      37.004 -23.367 -15.344  0.00  0.00    +0.143 HD
ENDBRANCH   6  14
TORSDOF 2
ENDMDL
MODEL 3
REMARK VINA RESULT:      -6.0      1.964      3.076
REMARK  Name = 76726
REMARK  2 active torsions:
REMARK  status: ('A' for Active; 'I' for Inactive)
REMARK    1  A    between atoms: C_5  and  N_11
REMARK    2  A    between atoms: C_6  and  N_14
REMARK                            x       y       z     vdW  Elec       q    Type
REMARK                         _______ _______ _______ _____ _____    ______ ____
ROOT
ATOM      1  O   UNL     1      40.003 -24.853 -13.807  0.00  0.00    -0.266 OA
ATOM      2  O   UNL     1      36.729 -27.155 -16.067  0.00  0.00    -0.247 OA
ATOM      3  N   UNL     1      36.198 -26.052 -14.126  0.00  0.00    -0.295 N 
ATOM      4  N   UNL     1      38.378 -26.010 -14.947  0.00  0.00    -0.273 N 
ATOM      5  C   UNL     1      36.531 -25.268 -13.038  0.00  0.00    +0.124 A 
ATOM      6  C   UNL     1      37.804 -24.839 -12.886  0.00  0.00    +0.128 A 
ATOM      7  C   UNL     1      38.834 -25.223 -13.906  0.00  0.00    +0.277 A 
ATOM      8  C   UNL     1      37.075 -26.456 -15.114  0.00  0.00    +0.328 A 
ATOM      9  H   UNL     1      35.263 -26.345 -14.202  0.00  0.00    +0.172 HD
ATOM     10  H   UNL     1      39.036 -26.277 -15.630  0.00  0.00    +0.173 HD
ENDROOT
BRANCH   5  11
ATOM     11  N   UNL     1      35.543 -24.951 -12.141  0.00  0.00    -0.343 N 
ATOM     12  H   UNL     1      34.769 -24.415 -12.429  0.00  0.00    +0.144 HD
ATOM     13  H   UNL     1      35.607 -25.260 -11.209  0.00  0.00    +0.144 HD
ENDBRANCH   5  11
BRANCH   6  14
ATOM     14  N   UNL     1      38.269 -24.061 -11.862  0.00  0.00    -0.351 N 
ATOM     15  H   UNL     1      37.758 -23.996 -11.023  0.00  0.00    +0.143 HD
ATOM     16  H   UNL     1      39.114 -23.566 -11.964  0.00  0.00    +0.143 HD
ENDBRANCH   6  14
TORSDOF 2
ENDMDL
MODEL 4
REMARK VINA RESULT:      -6.0      1.584      1.624
REMARK  Name = 76726
REMARK  2 active torsions:
REMARK  status: ('A' for Active; 'I' for Inactive)
REMARK    1  A    between atoms: C_5  and  N_11
REMARK    2  A    between atoms: C_6  and  N_14
REMARK                            x       y       z     vdW  Elec       q    Type
REMARK                         _______ _______ _______ _____ _____    ______ ____
ROOT
ATOM      1  O   UNL     1      38.257 -24.305 -11.656  0.00  0.00    -0.266 OA
ATOM      2  O   UNL     1      40.509 -25.948 -15.311  0.00  0.00    -0.247 OA
ATOM      3  N   UNL     1      38.230 -26.186 -15.187  0.00  0.00    -0.295 N 
ATOM      4  N   UNL     1      39.398 -25.122 -13.475  0.00  0.00    -0.273 N 
ATOM      5  C   UNL     1      37.017 -26.008 -14.550  0.00  0.00    +0.124 A 
ATOM      6  C   UNL     1      36.975 -25.379 -13.355  0.00  0.00    +0.128 A 
ATOM      7  C   UNL     1      38.250 -24.883 -12.741  0.00  0.00    +0.277 A 
ATOM      8  C   UNL     1      39.454 -25.766 -14.703  0.00  0.00    +0.328 A 
ATOM      9  H   UNL     1      38.221 -26.649 -16.055  0.00  0.00    +0.172 HD
ATOM     10  H   UNL     1      40.249 -24.808 -13.093  0.00  0.00    +0.173 HD
ENDROOT
BRANCH   5  11
ATOM     11  N   UNL     1      35.887 -26.485 -15.164  0.00  0.00    -0.343 N 
ATOM     12  H   UNL     1      35.954 -27.213 -15.823  0.00  0.00    +0.144 HD
ATOM     13  H   UNL     1      35.008 -26.098 -14.946  0.00  0.00    +0.144 HD
ENDBRANCH   5  11
BRANCH   6  14
ATOM     14  N   UNL     1      35.849 -25.137 -12.618  0.00  0.00    -0.351 N 
ATOM     15  H   UNL     1      35.768 -25.502 -11.708  0.00  0.00    +0.143 HD
ATOM     16  H   UNL     1      35.118 -24.596 -12.998  0.00  0.00    +0.143 HD
ENDBRANCH   6  14
TORSDOF 2
ENDMDL
MODEL 5
REMARK VINA RESULT:      -5.9      2.213      2.284
REMARK  Name = 76726
REMARK  2 active torsions:
REMARK  status: ('A' for Active; 'I' for Inactive)
REMARK    1  A    between atoms: C_5  and  N_11
REMARK    2  A    between atoms: C_6  and  N_14
REMARK                            x       y       z     vdW  Elec       q    Type
REMARK                         _______ _______ _______ _____ _____    ______ ____
ROOT
ATOM      1  O   UNL     1      37.154 -26.458 -11.697  0.00  0.00    -0.266 OA
ATOM      2  O   UNL     1      36.692 -27.341 -16.184  0.00  0.00    -0.247 OA
ATOM      3  N   UNL     1      37.014 -25.179 -15.486  0.00  0.00    -0.295 N 
ATOM      4  N   UNL     1      36.919 -26.916 -13.936  0.00  0.00    -0.273 N 
ATOM      5  C   UNL     1      37.209 -24.232 -14.500  0.00  0.00    +0.124 A 
ATOM      6  C   UNL     1      37.264 -24.615 -13.204  0.00  0.00    +0.128 A 
ATOM      7  C   UNL     1      37.110 -26.067 -12.862  0.00  0.00    +0.277 A 
ATOM      8  C   UNL     1      36.863 -26.535 -15.269  0.00  0.00    +0.328 A 
ATOM      9  H   UNL     1      36.980 -24.863 -16.417  0.00  0.00    +0.172 HD
ATOM     10  H   UNL     1      36.815 -27.875 -13.738  0.00  0.00    +0.173 HD
ENDROOT
BRANCH   5  11
ATOM     11  N   UNL     1      37.342 -22.920 -14.879  0.00  0.00    -0.343 N 
ATOM     12  H   UNL     1      37.908 -22.310 -14.352  0.00  0.00    +0.144 HD
ATOM     13  H   UNL     1      36.872 -22.588 -15.677  0.00  0.00    +0.144 HD
ENDBRANCH   5  11
BRANCH   6  14
ATOM     14  N   UNL     1      37.451 -23.786 -12.133  0.00  0.00    -0.351 N 
ATOM     15  H   UNL     1      38.040 -23.002 -12.214  0.00  0.00    +0.143 HD
ATOM     16  H   UNL     1      36.996 -23.974 -11.280  0.00  0.00    +0.143 HD
ENDBRANCH   6  14
TORSDOF 2
ENDMDL
MODEL 6
REMARK VINA RESULT:      -5.9      1.994      2.694
REMARK  Name = 76726
REMARK  2 active torsions:
REMARK  status: ('A' for Active; 'I' for Inactive)
REMARK    1  A    between atoms: C_5  and  N_11
REMARK    2  A    between atoms: C_6  and  N_14
REMARK                            x       y       z     vdW  Elec       q    Type
REMARK                         _______ _______ _______ _____ _____    ______ ____
ROOT
ATOM      1  O   UNL     1      38.879 -26.824 -14.671  0.00  0.00    -0.266 OA
ATOM      2  O   UNL     1      38.764 -23.372 -11.638  0.00  0.00    -0.247 OA
ATOM      3  N   UNL     1      36.809 -24.105 -12.590  0.00  0.00    -0.295 N 
ATOM      4  N   UNL     1      38.839 -25.098 -13.155  0.00  0.00    -0.273 N 
ATOM      5  C   UNL     1      36.100 -24.936 -13.435  0.00  0.00    +0.124 A 
ATOM      6  C   UNL     1      36.755 -25.871 -14.160  0.00  0.00    +0.128 A 
ATOM      7  C   UNL     1      38.244 -25.987 -14.032  0.00  0.00    +0.277 A 
ATOM      8  C   UNL     1      38.178 -24.136 -12.406  0.00  0.00    +0.328 A 
ATOM      9  H   UNL     1      36.298 -23.437 -12.079  0.00  0.00    +0.172 HD
ATOM     10  H   UNL     1      39.817 -25.153 -13.054  0.00  0.00    +0.173 HD
ENDROOT
BRANCH   5  11
ATOM     11  N   UNL     1      34.739 -24.779 -13.507  0.00  0.00    -0.343 N 
ATOM     12  H   UNL     1      34.274 -24.208 -12.853  0.00  0.00    +0.144 HD
ATOM     13  H   UNL     1      34.227 -25.237 -14.212  0.00  0.00    +0.144 HD
ENDBRANCH   5  11
BRANCH   6  14
ATOM     14  N   UNL     1      36.180 -26.755 -15.030  0.00  0.00    -0.351 N 
ATOM     15  H   UNL     1      35.579 -26.428 -15.738  0.00  0.00    +0.143 HD
ATOM     16  H   UNL     1      36.367 -27.719 -14.948  0.00  0.00    +0.143 HD
ENDBRANCH   6  14
TORSDOF 2
ENDMDL
MODEL 7
REMARK VINA RESULT:      -5.8      2.398      3.932
REMARK  Name = 76726
REMARK  2 active torsions:
REMARK  status: ('A' for Active; 'I' for Inactive)
REMARK    1  A    between atoms: C_5  and  N_11
REMARK    2  A    between atoms: C_6  and  N_14
REMARK                            x       y       z     vdW  Elec       q    Type
REMARK                         _______ _______ _______ _____ _____    ______ ____
ROOT
ATOM      1  O   UNL     1      39.184 -23.198 -11.703  0.00  0.00    -0.266 OA
ATOM      2  O   UNL     1      34.921 -24.850 -11.227  0.00  0.00    -0.247 OA
ATOM      3  N   UNL     1      36.358 -25.844 -12.715  0.00  0.00    -0.295 N 
ATOM      4  N   UNL     1      37.049 -24.010 -11.455  0.00  0.00    -0.273 N 
ATOM      5  C   UNL     1      37.583 -25.946 -13.345  0.00  0.00    +0.124 A 
ATOM      6  C   UNL     1      38.569 -25.075 -13.037  0.00  0.00    +0.128 A 
ATOM      7  C   UNL     1      38.314 -24.009 -12.013  0.00  0.00    +0.277 A 
ATOM      8  C   UNL     1      36.029 -24.900 -11.762  0.00  0.00    +0.328 A 
ATOM      9  H   UNL     1      35.665 -26.495 -12.965  0.00  0.00    +0.172 HD
ATOM     10  H   UNL     1      36.856 -23.320 -10.780  0.00  0.00    +0.173 HD
ENDROOT
BRANCH   5  11
ATOM     11  N   UNL     1      37.753 -26.943 -14.273  0.00  0.00    -0.343 N 
ATOM     12  H   UNL     1      37.258 -26.914 -15.123  0.00  0.00    +0.144 HD
ATOM     13  H   UNL     1      38.371 -27.687 -14.088  0.00  0.00    +0.144 HD
ENDBRANCH   5  11
BRANCH   6  14
ATOM     14  N   UNL     1      39.824 -25.062 -13.582  0.00  0.00    -0.351 N 
ATOM     15  H   UNL     1      40.415 -25.841 -13.473  0.00  0.00    +0.143 HD
ATOM     16  H   UNL     1      40.135 -24.273 -14.082  0.00  0.00    +0.143 HD
ENDBRANCH   6  14
TORSDOF 2
ENDMDL
MODEL 8
REMARK VINA RESULT:      -5.8      1.698      2.233
REMARK  Name = 76726
REMARK  2 active torsions:
REMARK  status: ('A' for Active; 'I' for Inactive)
REMARK    1  A    between atoms: C_5  and  N_11
REMARK    2  A    between atoms: C_6  and  N_14
REMARK                            x       y       z     vdW  Elec       q    Type
REMARK                         _______ _______ _______ _____ _____    ______ ____
ROOT
ATOM      1  O   UNL     1      36.312 -26.248 -15.569  0.00  0.00    -0.266 OA
ATOM      2  O   UNL     1      40.824 -25.621 -14.958  0.00  0.00    -0.247 OA
ATOM      3  N   UNL     1      39.360 -24.961 -13.319  0.00  0.00    -0.295 N 
ATOM      4  N   UNL     1      38.570 -25.940 -15.280  0.00  0.00    -0.273 N 
ATOM      5  C   UNL     1      38.085 -24.817 -12.808  0.00  0.00    +0.124 A 
ATOM      6  C   UNL     1      37.022 -25.236 -13.531  0.00  0.00    +0.128 A 
ATOM      7  C   UNL     1      37.249 -25.852 -14.879  0.00  0.00    +0.277 A 
ATOM      8  C   UNL     1      39.669 -25.514 -14.547  0.00  0.00    +0.328 A 
ATOM      9  H   UNL     1      40.108 -24.644 -12.765  0.00  0.00    +0.172 HD
ATOM     10  H   UNL     1      38.746 -26.340 -16.162  0.00  0.00    +0.173 HD
ENDROOT
BRANCH   5  11
ATOM     11  N   UNL     1      37.944 -24.245 -11.569  0.00  0.00    -0.343 N 
ATOM     12  H   UNL     1      37.088 -24.315 -11.089  0.00  0.00    +0.144 HD
ATOM     13  H   UNL     1      38.700 -23.766 -11.159  0.00  0.00    +0.144 HD
ENDBRANCH   5  11
BRANCH   6  14
ATOM     14  N   UNL     1      35.713 -25.155 -13.148  0.00  0.00    -0.351 N 
ATOM     15  H   UNL     1      35.037 -25.728 -13.577  0.00  0.00    +0.143 HD
ATOM     16  H   UNL     1      35.444 -24.522 -12.442  0.00  0.00    +0.143 HD
ENDBRANCH   6  14
TORSDOF 2
ENDMDL
MODEL 9
REMARK VINA RESULT:      -5.7      2.140      3.142
REMARK  Name = 76726
REMARK  2 active torsions:
REMARK  status: ('A' for Active; 'I' for Inactive)
REMARK    1  A    between atoms: C_5  and  N_11
REMARK    2  A    between atoms: C_6  and  N_14
REMARK                            x       y       z     vdW  Elec       q    Type
REMARK                         _______ _______ _______ _____ _____    ______ ____
ROOT
ATOM      1  O   UNL     1      37.948 -22.681 -15.686  0.00  0.00    -0.266 OA
ATOM      2  O   UNL     1      38.140 -27.176 -14.744  0.00  0.00    -0.247 OA
ATOM      3  N   UNL     1      36.163 -26.045 -14.458  0.00  0.00    -0.295 N 
ATOM      4  N   UNL     1      38.061 -24.928 -15.218  0.00  0.00    -0.273 N 
ATOM      5  C   UNL     1      35.397 -24.897 -14.505  0.00  0.00    +0.124 A 
ATOM      6  C   UNL     1      35.955 -23.736 -14.913  0.00  0.00    +0.128 A 
ATOM      7  C   UNL     1      37.401 -23.716 -15.309  0.00  0.00    +0.277 A 
ATOM      8  C   UNL     1      37.499 -26.126 -14.802  0.00  0.00    +0.328 A 
ATOM      9  H   UNL     1      35.723 -26.871 -14.156  0.00  0.00    +0.172 HD
ATOM     10  H   UNL     1      39.012 -24.941 -15.471  0.00  0.00    +0.173 HD
ENDROOT
BRANCH   5  11
ATOM     11  N   UNL     1      34.080 -24.982 -14.130  0.00  0.00    -0.343 N 
ATOM     12  H   UNL     1      33.547 -25.771 -14.379  0.00  0.00    +0.144 HD
ATOM     13  H   UNL     1      33.668 -24.253 -13.612  0.00  0.00    +0.144 HD
ENDBRANCH   5  11
BRANCH   6  14
ATOM     14  N   UNL     1      35.315 -22.531 -15.007  0.00  0.00    -0.351 N 
ATOM     15  H   UNL     1      35.770 -21.763 -15.423  0.00  0.00    +0.143 HD
ATOM     16  H   UNL     1      34.400 -22.431 -14.657  0.00  0.00    +0.143 HD
ENDBRANCH   6  14
TORSDOF 2
ENDMDL
