MODEL 1
REMARK VINA RESULT:     -11.4      0.000      0.000
REMARK  Name = 46209133
REMARK  4 active torsions:
REMARK  status: ('A' for Active; 'I' for Inactive)
REMARK    1  A    between atoms: C_2  and  N_7
REMARK    2  A    between atoms: C_4  and  N_28
REMARK    3  A    between atoms: C_6  and  C_22
REMARK    4  A    between atoms: N_8  and  S_16
REMARK                            x       y       z     vdW  Elec       q    Type
REMARK                         _______ _______ _______ _____ _____    ______ ____
ROOT
ATOM      1  O   UNL     1      36.297 -19.912 -20.396  0.00  0.00    -0.356 OA
ATOM      2  C   UNL     1      35.453 -21.277 -18.578  0.00  0.00    -0.029 C 
ATOM      3  C   UNL     1      34.108 -21.419 -19.296  0.00  0.00    -0.038 C 
ATOM      4  C   UNL     1      33.875 -20.228 -20.237  0.00  0.00    -0.036 C 
ATOM      5  C   UNL     1      36.568 -21.063 -19.597  0.00  0.00    +0.122 C 
ATOM      6  C   UNL     1      35.093 -20.041 -21.170  0.00  0.00    +0.120 C 
ENDROOT
BRANCH   2   7
ATOM      7  N   UNL     1      35.724 -22.455 -17.769  0.00  0.00    +0.396 N 
ATOM      8  N   UNL     1      36.140 -24.215 -14.005  0.00  0.00    -0.092 N 
ATOM      9  N   UNL     1      37.134 -23.538 -14.639  0.00  0.00    -0.165 NA
ATOM     10  C   UNL     1      34.528 -22.904 -16.982  0.00  0.00    -0.047 C 
ATOM     11  C   UNL     1      36.904 -22.273 -16.862  0.00  0.00    -0.028 C 
ATOM     12  C   UNL     1      35.161 -23.443 -15.777  0.00  0.00    -0.012 C 
ATOM     13  C   UNL     1      36.499 -23.086 -15.712  0.00  0.00    +0.053 C 
ATOM     14  C   UNL     1      34.926 -24.183 -14.658  0.00  0.00    +0.104 C 
ATOM     15  H   UNL     1      35.953 -23.191 -18.436  0.00  0.00    -0.078 HD
BRANCH   8  16
ATOM     16  S   UNL     1      36.340 -25.035 -12.554  0.00  0.00    +0.077 S 
ATOM     17  O   UNL     1      35.144 -24.905 -11.692  0.00  0.00    -0.153 OA
ATOM     18  O   UNL     1      36.840 -26.404 -12.800  0.00  0.00    -0.153 OA
ATOM     19  C   UNL     1      37.648 -24.184 -11.664  0.00  0.00    +0.202 C 
ENDBRANCH   8  16
ENDBRANCH   2   7
BRANCH   6  22
ATOM     20  F   UNL     1      35.013 -20.031 -23.994  0.00  0.00    -0.204 F 
ATOM     21  F   UNL     1      34.781 -15.191 -21.458  0.00  0.00    -0.204 F 
ATOM     22  C   UNL     1      34.992 -18.786 -21.973  0.00  0.00    +0.032 C 
ATOM     23  C   UNL     1      34.956 -18.848 -23.366  0.00  0.00    +0.138 C 
ATOM     24  C   UNL     1      34.933 -17.551 -21.328  0.00  0.00    +0.030 C 
ATOM     25  C   UNL     1      34.838 -16.377 -22.076  0.00  0.00    +0.140 C 
ATOM     26  C   UNL     1      34.861 -17.674 -24.114  0.00  0.00    +0.032 C 
ATOM     27  C   UNL     1      34.802 -16.440 -23.470  0.00  0.00    +0.032 C 
ENDBRANCH   6  22
BRANCH   4  28
ATOM     28  N   UNL     1      32.635 -20.448 -20.984  0.00  0.00    +0.384 N 
ATOM     29  H   UNL     1      32.509 -19.695 -21.661  0.00  0.00    -0.089 HD
ATOM     30  H   UNL     1      31.846 -20.461 -20.337  0.00  0.00    -0.089 HD
ATOM     31  H   UNL     1      32.688 -21.341 -21.474  0.00  0.00    -0.089 HD
ENDBRANCH   4  28
TORSDOF 4
ENDMDL
MODEL 2
REMARK VINA RESULT:     -10.8      7.286     12.043
REMARK  Name = 46209133
REMARK  4 active torsions:
REMARK  status: ('A' for Active; 'I' for Inactive)
REMARK    1  A    between atoms: C_2  and  N_7
REMARK    2  A    between atoms: C_4  and  N_28
REMARK    3  A    between atoms: C_6  and  C_22
REMARK    4  A    between atoms: N_8  and  S_16
REMARK                            x       y       z     vdW  Elec       q    Type
REMARK                         _______ _______ _______ _____ _____    ______ ____
ROOT
ATOM      1  O   UNL     1      33.678 -16.430 -21.071  0.00  0.00    -0.356 OA
ATOM      2  C   UNL     1      33.715 -14.656 -22.724  0.00  0.00    -0.029 C 
ATOM      3  C   UNL     1      33.923 -15.684 -23.839  0.00  0.00    -0.038 C 
ATOM      4  C   UNL     1      34.593 -16.949 -23.281  0.00  0.00    -0.036 C 
ATOM      5  C   UNL     1      32.964 -15.293 -21.558  0.00  0.00    +0.122 C 
ATOM      6  C   UNL     1      33.811 -17.469 -22.055  0.00  0.00    +0.120 C 
ENDROOT
BRANCH   2   7
ATOM      7  N   UNL     1      32.984 -13.503 -23.226  0.00  0.00    +0.396 N 
ATOM      8  N   UNL     1      32.211  -9.400 -23.102  0.00  0.00    -0.092 N 
ATOM      9  N   UNL     1      31.634 -10.306 -22.269  0.00  0.00    -0.165 NA
ATOM     10  C   UNL     1      33.870 -12.521 -23.936  0.00  0.00    -0.047 C 
ATOM     11  C   UNL     1      32.193 -12.809 -22.158  0.00  0.00    -0.028 C 
ATOM     12  C   UNL     1      33.210 -11.253 -23.615  0.00  0.00    -0.012 C 
ATOM     13  C   UNL     1      32.266 -11.419 -22.614  0.00  0.00    +0.053 C 
ATOM     14  C   UNL     1      33.174  -9.929 -23.935  0.00  0.00    +0.104 C 
ATOM     15  H   UNL     1      32.326 -13.879 -23.908  0.00  0.00    -0.078 HD
BRANCH   8  16
ATOM     16  S   UNL     1      31.808  -7.772 -23.144  0.00  0.00    +0.077 S 
ATOM     17  O   UNL     1      30.814  -7.489 -24.204  0.00  0.00    -0.153 OA
ATOM     18  O   UNL     1      31.490  -7.283 -21.785  0.00  0.00    -0.153 OA
ATOM     19  C   UNL     1      33.290  -6.892 -23.652  0.00  0.00    +0.202 C 
ENDBRANCH   8  16
ENDBRANCH   2   7
BRANCH   6  22
ATOM     20  F   UNL     1      32.467 -19.651 -20.864  0.00  0.00    -0.204 F 
ATOM     21  F   UNL     1      37.929 -19.613 -20.590  0.00  0.00    -0.204 F 
ATOM     22  C   UNL     1      34.527 -18.585 -21.369  0.00  0.00    +0.032 C 
ATOM     23  C   UNL     1      33.806 -19.636 -20.801  0.00  0.00    +0.138 C 
ATOM     24  C   UNL     1      35.920 -18.577 -21.298  0.00  0.00    +0.030 C 
ATOM     25  C   UNL     1      36.592 -19.620 -20.658  0.00  0.00    +0.140 C 
ATOM     26  C   UNL     1      34.477 -20.677 -20.162  0.00  0.00    +0.032 C 
ATOM     27  C   UNL     1      35.869 -20.670 -20.091  0.00  0.00    +0.032 C 
ENDBRANCH   6  22
BRANCH   4  28
ATOM     28  N   UNL     1      34.681 -17.949 -24.346  0.00  0.00    +0.384 N 
ATOM     29  H   UNL     1      33.777 -18.408 -24.456  0.00  0.00    -0.089 HD
ATOM     30  H   UNL     1      35.389 -18.642 -24.104  0.00  0.00    -0.089 HD
ATOM     31  H   UNL     1      34.939 -17.491 -25.220  0.00  0.00    -0.089 HD
ENDBRANCH   4  28
TORSDOF 4
ENDMDL
MODEL 3
REMARK VINA RESULT:     -10.6      7.480     11.298
REMARK  Name = 46209133
REMARK  4 active torsions:
REMARK  status: ('A' for Active; 'I' for Inactive)
REMARK    1  A    between atoms: C_2  and  N_7
REMARK    2  A    between atoms: C_4  and  N_28
REMARK    3  A    between atoms: C_6  and  C_22
REMARK    4  A    between atoms: N_8  and  S_16
REMARK                            x       y       z     vdW  Elec       q    Type
REMARK                         _______ _______ _______ _____ _____    ______ ____
ROOT
ATOM      1  O   UNL     1      31.301 -10.230 -22.111  0.00  0.00    -0.356 OA
ATOM      2  C   UNL     1      32.028 -12.213 -23.304  0.00  0.00    -0.029 C 
ATOM      3  C   UNL     1      33.339 -11.519 -23.681  0.00  0.00    -0.038 C 
ATOM      4  C   UNL     1      33.151  -9.994 -23.696  0.00  0.00    -0.036 C 
ATOM      5  C   UNL     1      31.491 -11.641 -21.995  0.00  0.00    +0.122 C 
ATOM      6  C   UNL     1      32.525  -9.521 -22.365  0.00  0.00    +0.120 C 
ENDROOT
BRANCH   2   7
ATOM      7  N   UNL     1      32.230 -13.649 -23.183  0.00  0.00    +0.396 N 
ATOM      8  N   UNL     1      34.712 -16.862 -22.201  0.00  0.00    -0.092 N 
ATOM      9  N   UNL     1      34.723 -16.236 -23.408  0.00  0.00    -0.165 NA
ATOM     10  C   UNL     1      32.407 -14.090 -21.760  0.00  0.00    -0.047 C 
ATOM     11  C   UNL     1      33.368 -14.145 -24.025  0.00  0.00    -0.028 C 
ATOM     12  C   UNL     1      33.331 -15.215 -21.919  0.00  0.00    -0.012 C 
ATOM     13  C   UNL     1      33.871 -15.243 -23.196  0.00  0.00    +0.053 C 
ATOM     14  C   UNL     1      33.883 -16.277 -21.267  0.00  0.00    +0.104 C 
ATOM     15  H   UNL     1      31.372 -14.071 -23.537  0.00  0.00    -0.078 HD
BRANCH   8  16
ATOM     16  S   UNL     1      35.610 -18.233 -21.846  0.00  0.00    +0.077 S 
ATOM     17  O   UNL     1      36.746 -18.392 -22.781  0.00  0.00    -0.153 OA
ATOM     18  O   UNL     1      35.924 -18.285 -20.402  0.00  0.00    -0.153 OA
ATOM     19  C   UNL     1      34.542 -19.641 -22.170  0.00  0.00    +0.202 C 
ENDBRANCH   8  16
ENDBRANCH   2   7
BRANCH   6  22
ATOM     20  F   UNL     1      33.007  -7.754 -20.214  0.00  0.00    -0.204 F 
ATOM     21  F   UNL     1      30.606  -5.688 -24.673  0.00  0.00    -0.204 F 
ATOM     22  C   UNL     1      32.154  -8.076 -22.406  0.00  0.00    +0.032 C 
ATOM     23  C   UNL     1      32.419  -7.254 -21.310  0.00  0.00    +0.138 C 
ATOM     24  C   UNL     1      31.542  -7.547 -23.542  0.00  0.00    +0.030 C 
ATOM     25  C   UNL     1      31.194  -6.196 -23.583  0.00  0.00    +0.140 C 
ATOM     26  C   UNL     1      32.071  -5.904 -21.351  0.00  0.00    +0.032 C 
ATOM     27  C   UNL     1      31.460  -5.375 -22.486  0.00  0.00    +0.032 C 
ENDBRANCH   6  22
BRANCH   4  28
ATOM     28  N   UNL     1      34.444  -9.359 -23.956  0.00  0.00    +0.384 N 
ATOM     29  H   UNL     1      35.155 -10.078 -24.089  0.00  0.00    -0.089 HD
ATOM     30  H   UNL     1      34.700  -8.770 -23.163  0.00  0.00    -0.089 HD
ATOM     31  H   UNL     1      34.377  -8.786 -24.797  0.00  0.00    -0.089 HD
ENDBRANCH   4  28
TORSDOF 4
ENDMDL
MODEL 4
REMARK VINA RESULT:     -10.5      2.224      3.183
REMARK  Name = 46209133
REMARK  4 active torsions:
REMARK  status: ('A' for Active; 'I' for Inactive)
REMARK    1  A    between atoms: C_2  and  N_7
REMARK    2  A    between atoms: C_4  and  N_28
REMARK    3  A    between atoms: C_6  and  C_22
REMARK    4  A    between atoms: N_8  and  S_16
REMARK                            x       y       z     vdW  Elec       q    Type
REMARK                         _______ _______ _______ _____ _____    ______ ____
ROOT
ATOM      1  O   UNL     1      33.569 -19.883 -21.069  0.00  0.00    -0.356 OA
ATOM      2  C   UNL     1      34.529 -21.799 -19.934  0.00  0.00    -0.029 C 
ATOM      3  C   UNL     1      35.835 -21.030 -19.719  0.00  0.00    -0.038 C 
ATOM      4  C   UNL     1      36.000 -19.944 -20.793  0.00  0.00    -0.036 C 
ATOM      5  C   UNL     1      33.357 -20.825 -20.017  0.00  0.00    +0.122 C 
ATOM      6  C   UNL     1      34.732 -19.065 -20.860  0.00  0.00    +0.120 C 
ENDROOT
BRANCH   2   7
ATOM      7  N   UNL     1      34.318 -22.753 -18.857  0.00  0.00    +0.396 N 
ATOM      8  N   UNL     1      33.234 -23.528 -14.898  0.00  0.00    -0.092 N 
ATOM      9  N   UNL     1      34.481 -23.146 -15.282  0.00  0.00    -0.165 NA
ATOM     10  C   UNL     1      32.877 -22.856 -18.449  0.00  0.00    -0.047 C 
ATOM     11  C   UNL     1      35.177 -22.473 -17.660  0.00  0.00    -0.028 C 
ATOM     12  C   UNL     1      33.002 -23.134 -17.016  0.00  0.00    -0.012 C 
ATOM     13  C   UNL     1      34.298 -22.918 -16.575  0.00  0.00    +0.053 C 
ATOM     14  C   UNL     1      32.305 -23.535 -15.917  0.00  0.00    +0.104 C 
ATOM     15  H   UNL     1      34.599 -23.655 -19.240  0.00  0.00    -0.078 HD
BRANCH   8  16
ATOM     16  S   UNL     1      32.828 -23.967 -13.331  0.00  0.00    +0.077 S 
ATOM     17  O   UNL     1      33.964 -24.614 -12.639  0.00  0.00    -0.153 OA
ATOM     18  O   UNL     1      32.176 -22.840 -12.631  0.00  0.00    -0.153 OA
ATOM     19  C   UNL     1      31.578 -25.251 -13.469  0.00  0.00    +0.202 C 
ENDBRANCH   8  16
ENDBRANCH   2   7
BRANCH   6  22
ATOM     20  F   UNL     1      34.905 -16.263 -20.535  0.00  0.00    -0.204 F 
ATOM     21  F   UNL     1      34.712 -18.192 -25.650  0.00  0.00    -0.204 F 
ATOM     22  C   UNL     1      34.771 -18.117 -22.013  0.00  0.00    +0.032 C 
ATOM     23  C   UNL     1      34.858 -16.743 -21.786  0.00  0.00    +0.138 C 
ATOM     24  C   UNL     1      34.722 -18.606 -23.318  0.00  0.00    +0.030 C 
ATOM     25  C   UNL     1      34.759 -17.722 -24.397  0.00  0.00    +0.140 C 
ATOM     26  C   UNL     1      34.895 -15.859 -22.865  0.00  0.00    +0.032 C 
ATOM     27  C   UNL     1      34.846 -16.348 -24.169  0.00  0.00    +0.032 C 
ENDBRANCH   6  22
BRANCH   4  28
ATOM     28  N   UNL     1      37.201 -19.162 -20.498  0.00  0.00    +0.384 N 
ATOM     29  H   UNL     1      37.644 -19.525 -19.653  0.00  0.00    -0.089 HD
ATOM     30  H   UNL     1      36.945 -18.185 -20.355  0.00  0.00    -0.089 HD
ATOM     31  H   UNL     1      37.852 -19.232 -21.280  0.00  0.00    -0.089 HD
ENDBRANCH   4  28
TORSDOF 4
ENDMDL
MODEL 5
REMARK VINA RESULT:     -10.0      2.070      3.191
REMARK  Name = 46209133
REMARK  4 active torsions:
REMARK  status: ('A' for Active; 'I' for Inactive)
REMARK    1  A    between atoms: C_2  and  N_7
REMARK    2  A    between atoms: C_4  and  N_28
REMARK    3  A    between atoms: C_6  and  C_22
REMARK    4  A    between atoms: N_8  and  S_16
REMARK                            x       y       z     vdW  Elec       q    Type
REMARK                         _______ _______ _______ _____ _____    ______ ____
ROOT
ATOM      1  O   UNL     1      33.668 -18.528 -21.130  0.00  0.00    -0.356 OA
ATOM      2  C   UNL     1      34.754 -20.678 -20.846  0.00  0.00    -0.029 C 
ATOM      3  C   UNL     1      36.114 -20.042 -21.143  0.00  0.00    -0.038 C 
ATOM      4  C   UNL     1      35.939 -18.783 -22.006  0.00  0.00    -0.036 C 
ATOM      5  C   UNL     1      33.812 -19.640 -20.245  0.00  0.00    +0.122 C 
ATOM      6  C   UNL     1      34.905 -17.834 -21.360  0.00  0.00    +0.120 C 
ENDROOT
BRANCH   2   7
ATOM      7  N   UNL     1      34.908 -21.806 -19.941  0.00  0.00    +0.396 N 
ATOM      8  N   UNL     1      35.010 -23.303 -16.043  0.00  0.00    -0.092 N 
ATOM      9  N   UNL     1      36.076 -22.734 -16.665  0.00  0.00    -0.165 NA
ATOM     10  C   UNL     1      33.645 -22.126 -19.196  0.00  0.00    -0.047 C 
ATOM     11  C   UNL     1      36.046 -21.626 -18.981  0.00  0.00    -0.028 C 
ATOM     12  C   UNL     1      34.178 -22.610 -17.920  0.00  0.00    -0.012 C 
ATOM     13  C   UNL     1      35.530 -22.327 -17.802  0.00  0.00    +0.053 C 
ATOM     14  C   UNL     1      33.838 -23.251 -16.767  0.00  0.00    +0.104 C 
ATOM     15  H   UNL     1      35.127 -22.602 -20.540  0.00  0.00    -0.078 HD
BRANCH   8  16
ATOM     16  S   UNL     1      35.080 -24.023 -14.530  0.00  0.00    +0.077 S 
ATOM     17  O   UNL     1      35.828 -23.185 -13.567  0.00  0.00    -0.153 OA
ATOM     18  O   UNL     1      33.737 -24.480 -14.112  0.00  0.00    -0.153 OA
ATOM     19  C   UNL     1      36.071 -25.510 -14.718  0.00  0.00    +0.202 C 
ENDBRANCH   8  16
ENDBRANCH   2   7
BRANCH   6  22
ATOM     20  F   UNL     1      34.744 -15.168 -20.439  0.00  0.00    -0.204 F 
ATOM     21  F   UNL     1      33.749 -16.058 -25.743  0.00  0.00    -0.204 F 
ATOM     22  C   UNL     1      34.565 -16.688 -22.253  0.00  0.00    +0.032 C 
ATOM     23  C   UNL     1      34.502 -15.393 -21.738  0.00  0.00    +0.138 C 
ATOM     24  C   UNL     1      34.311 -16.913 -23.606  0.00  0.00    +0.030 C 
ATOM     25  C   UNL     1      33.993 -15.842 -24.444  0.00  0.00    +0.140 C 
ATOM     26  C   UNL     1      34.184 -14.323 -22.575  0.00  0.00    +0.032 C 
ATOM     27  C   UNL     1      33.931 -14.548 -23.927  0.00  0.00    +0.032 C 
ENDBRANCH   6  22
BRANCH   4  28
ATOM     28  N   UNL     1      37.243 -18.142 -22.182  0.00  0.00    +0.384 N 
ATOM     29  H   UNL     1      37.408 -17.490 -21.415  0.00  0.00    -0.089 HD
ATOM     30  H   UNL     1      37.257 -17.636 -23.068  0.00  0.00    -0.089 HD
ATOM     31  H   UNL     1      37.973 -18.854 -22.187  0.00  0.00    -0.089 HD
ENDBRANCH   4  28
TORSDOF 4
ENDMDL
MODEL 6
REMARK VINA RESULT:     -10.0     10.658     15.344
REMARK  Name = 46209133
REMARK  4 active torsions:
REMARK  status: ('A' for Active; 'I' for Inactive)
REMARK    1  A    between atoms: C_2  and  N_7
REMARK    2  A    between atoms: C_4  and  N_28
REMARK    3  A    between atoms: C_6  and  C_22
REMARK    4  A    between atoms: N_8  and  S_16
REMARK                            x       y       z     vdW  Elec       q    Type
REMARK                         _______ _______ _______ _____ _____    ______ ____
ROOT
ATOM      1  O   UNL     1      32.060 -12.368 -22.171  0.00  0.00    -0.356 OA
ATOM      2  C   UNL     1      32.242  -9.953 -22.301  0.00  0.00    -0.029 C 
ATOM      3  C   UNL     1      33.021 -10.072 -23.614  0.00  0.00    -0.038 C 
ATOM      4  C   UNL     1      33.733 -11.431 -23.692  0.00  0.00    -0.036 C 
ATOM      5  C   UNL     1      31.312 -11.152 -22.134  0.00  0.00    +0.122 C 
ATOM      6  C   UNL     1      32.729 -12.575 -23.425  0.00  0.00    +0.120 C 
ENDROOT
BRANCH   2   7
ATOM      7  N   UNL     1      31.481  -8.714 -22.273  0.00  0.00    +0.396 N 
ATOM      8  N   UNL     1      31.254  -4.614 -23.036  0.00  0.00    -0.092 N 
ATOM      9  N   UNL     1      31.795  -5.147 -21.908  0.00  0.00    -0.165 NA
ATOM     10  C   UNL     1      31.174  -8.193 -23.647  0.00  0.00    -0.047 C 
ATOM     11  C   UNL     1      32.140  -7.649 -21.449  0.00  0.00    -0.028 C 
ATOM     12  C   UNL     1      31.195  -6.746 -23.417  0.00  0.00    -0.012 C 
ATOM     13  C   UNL     1      31.740  -6.443 -22.179  0.00  0.00    +0.053 C 
ATOM     14  C   UNL     1      30.876  -5.547 -23.979  0.00  0.00    +0.104 C 
ATOM     15  H   UNL     1      30.596  -8.953 -21.826  0.00  0.00    -0.078 HD
BRANCH   8  16
ATOM     16  S   UNL     1      31.041  -2.969 -23.289  0.00  0.00    +0.077 S 
ATOM     17  O   UNL     1      29.819  -2.473 -22.617  0.00  0.00    -0.153 OA
ATOM     18  O   UNL     1      32.296  -2.238 -23.015  0.00  0.00    -0.153 OA
ATOM     19  C   UNL     1      30.721  -2.761 -25.045  0.00  0.00    +0.202 C 
ENDBRANCH   8  16
ENDBRANCH   2   7
BRANCH   6  22
ATOM     20  F   UNL     1      32.955 -14.380 -25.587  0.00  0.00    -0.204 F 
ATOM     21  F   UNL     1      35.140 -15.897 -20.808  0.00  0.00    -0.204 F 
ATOM     22  C   UNL     1      33.409 -13.898 -23.307  0.00  0.00    +0.032 C 
ATOM     23  C   UNL     1      33.488 -14.746 -24.413  0.00  0.00    +0.138 C 
ATOM     24  C   UNL     1      33.967 -14.287 -22.089  0.00  0.00    +0.030 C 
ATOM     25  C   UNL     1      34.604 -15.524 -21.977  0.00  0.00    +0.140 C 
ATOM     26  C   UNL     1      34.125 -15.982 -24.300  0.00  0.00    +0.032 C 
ATOM     27  C   UNL     1      34.683 -16.370 -23.083  0.00  0.00    +0.032 C 
ENDBRANCH   6  22
BRANCH   4  28
ATOM     28  N   UNL     1      34.379 -11.555 -24.999  0.00  0.00    +0.384 N 
ATOM     29  H   UNL     1      35.372 -11.751 -24.870  0.00  0.00    -0.089 HD
ATOM     30  H   UNL     1      34.267 -10.684 -25.518  0.00  0.00    -0.089 HD
ATOM     31  H   UNL     1      33.946 -12.318 -25.520  0.00  0.00    -0.089 HD
ENDBRANCH   4  28
TORSDOF 4
ENDMDL
MODEL 7
REMARK VINA RESULT:     -10.0      4.304      6.773
REMARK  Name = 46209133
REMARK  4 active torsions:
REMARK  status: ('A' for Active; 'I' for Inactive)
REMARK    1  A    between atoms: C_2  and  N_7
REMARK    2  A    between atoms: C_4  and  N_28
REMARK    3  A    between atoms: C_6  and  C_22
REMARK    4  A    between atoms: N_8  and  S_16
REMARK                            x       y       z     vdW  Elec       q    Type
REMARK                         _______ _______ _______ _____ _____    ______ ____
ROOT
ATOM      1  O   UNL     1      33.918 -14.713 -23.845  0.00  0.00    -0.356 OA
ATOM      2  C   UNL     1      34.554 -16.499 -22.333  0.00  0.00    -0.029 C 
ATOM      3  C   UNL     1      33.749 -15.846 -21.206  0.00  0.00    -0.038 C 
ATOM      4  C   UNL     1      33.624 -14.334 -21.445  0.00  0.00    -0.036 C 
ATOM      5  C   UNL     1      33.953 -16.131 -23.686  0.00  0.00    +0.122 C 
ATOM      6  C   UNL     1      33.089 -14.062 -22.869  0.00  0.00    +0.120 C 
ENDROOT
BRANCH   2   7
ATOM      7  N   UNL     1      34.582 -17.943 -22.166  0.00  0.00    +0.396 N 
ATOM      8  N   UNL     1      34.375 -21.280 -19.663  0.00  0.00    -0.092 N 
ATOM      9  N   UNL     1      35.510 -20.563 -19.878  0.00  0.00    -0.165 NA
ATOM     10  C   UNL     1      33.263 -18.499 -21.715  0.00  0.00    -0.047 C 
ATOM     11  C   UNL     1      35.677 -18.399 -21.249  0.00  0.00    -0.028 C 
ATOM     12  C   UNL     1      33.693 -19.629 -20.889  0.00  0.00    -0.012 C 
ATOM     13  C   UNL     1      35.053 -19.570 -20.628  0.00  0.00    +0.053 C 
ATOM     14  C   UNL     1      33.249 -20.751 -20.256  0.00  0.00    +0.104 C 
ATOM     15  H   UNL     1      34.776 -18.316 -23.095  0.00  0.00    -0.078 HD
BRANCH   8  16
ATOM     16  S   UNL     1      34.315 -22.696 -18.764  0.00  0.00    +0.077 S 
ATOM     17  O   UNL     1      34.147 -23.881 -19.634  0.00  0.00    -0.153 OA
ATOM     18  O   UNL     1      35.427 -22.736 -17.790  0.00  0.00    -0.153 OA
ATOM     19  C   UNL     1      32.807 -22.618 -17.790  0.00  0.00    +0.202 C 
ENDBRANCH   8  16
ENDBRANCH   2   7
BRANCH   6  22
ATOM     20  F   UNL     1      31.225 -12.199 -21.850  0.00  0.00    -0.204 F 
ATOM     21  F   UNL     1      35.099 -10.296 -25.209  0.00  0.00    -0.204 F 
ATOM     22  C   UNL     1      33.127 -12.609 -23.210  0.00  0.00    +0.032 C 
ATOM     23  C   UNL     1      32.177 -11.739 -22.674  0.00  0.00    +0.138 C 
ATOM     24  C   UNL     1      34.114 -12.122 -24.067  0.00  0.00    +0.030 C 
ATOM     25  C   UNL     1      34.151 -10.764 -24.387  0.00  0.00    +0.140 C 
ATOM     26  C   UNL     1      32.215 -10.382 -22.994  0.00  0.00    +0.032 C 
ATOM     27  C   UNL     1      33.202  -9.895 -23.850  0.00  0.00    +0.032 C 
ENDBRANCH   6  22
BRANCH   4  28
ATOM     28  N   UNL     1      32.762 -13.759 -20.411  0.00  0.00    +0.384 N 
ATOM     29  H   UNL     1      32.067 -13.153 -20.846  0.00  0.00    -0.089 HD
ATOM     30  H   UNL     1      33.328 -13.215 -19.760  0.00  0.00    -0.089 HD
ATOM     31  H   UNL     1      32.291 -14.510 -19.907  0.00  0.00    -0.089 HD
ENDBRANCH   4  28
TORSDOF 4
ENDMDL
MODEL 8
REMARK VINA RESULT:      -9.8      7.397     12.222
REMARK  Name = 46209133
REMARK  4 active torsions:
REMARK  status: ('A' for Active; 'I' for Inactive)
REMARK    1  A    between atoms: C_2  and  N_7
REMARK    2  A    between atoms: C_4  and  N_28
REMARK    3  A    between atoms: C_6  and  C_22
REMARK    4  A    between atoms: N_8  and  S_16
REMARK                            x       y       z     vdW  Elec       q    Type
REMARK                         _______ _______ _______ _____ _____    ______ ____
ROOT
ATOM      1  O   UNL     1      33.900 -16.696 -23.192  0.00  0.00    -0.356 OA
ATOM      2  C   UNL     1      32.869 -14.529 -22.844  0.00  0.00    -0.029 C 
ATOM      3  C   UNL     1      33.597 -14.385 -21.506  0.00  0.00    -0.038 C 
ATOM      4  C   UNL     1      33.931 -15.768 -20.927  0.00  0.00    -0.036 C 
ATOM      5  C   UNL     1      33.677 -15.417 -23.786  0.00  0.00    +0.122 C 
ATOM      6  C   UNL     1      34.671 -16.622 -21.981  0.00  0.00    +0.120 C 
ENDROOT
BRANCH   2   7
ATOM      7  N   UNL     1      32.648 -13.222 -23.445  0.00  0.00    +0.396 N 
ATOM      8  N   UNL     1      33.213  -9.085 -23.365  0.00  0.00    -0.092 N 
ATOM      9  N   UNL     1      32.234  -9.730 -22.677  0.00  0.00    -0.165 NA
ATOM     10  C   UNL     1      33.915 -12.599 -23.954  0.00  0.00    -0.047 C 
ATOM     11  C   UNL     1      31.937 -12.276 -22.525  0.00  0.00    -0.028 C 
ATOM     12  C   UNL     1      33.646 -11.176 -23.730  0.00  0.00    -0.012 C 
ATOM     13  C   UNL     1      32.532 -10.998 -22.925  0.00  0.00    +0.053 C 
ATOM     14  C   UNL     1      34.092  -9.922 -24.018  0.00  0.00    +0.104 C 
ATOM     15  H   UNL     1      32.042 -13.395 -24.247  0.00  0.00    -0.078 HD
BRANCH   8  16
ATOM     16  S   UNL     1      33.363  -7.416 -23.442  0.00  0.00    +0.077 S 
ATOM     17  O   UNL     1      33.157  -6.794 -22.115  0.00  0.00    -0.153 OA
ATOM     18  O   UNL     1      34.594  -7.040 -24.170  0.00  0.00    -0.153 OA
ATOM     19  C   UNL     1      31.995  -6.826 -24.447  0.00  0.00    +0.202 C 
ENDBRANCH   8  16
ENDBRANCH   2   7
BRANCH   6  22
ATOM     20  F   UNL     1      37.149 -17.973 -22.120  0.00  0.00    -0.204 F 
ATOM     21  F   UNL     1      32.889 -20.740 -20.092  0.00  0.00    -0.204 F 
ATOM     22  C   UNL     1      34.850 -18.034 -21.530  0.00  0.00    +0.032 C 
ATOM     23  C   UNL     1      36.101 -18.645 -21.624  0.00  0.00    +0.138 C 
ATOM     24  C   UNL     1      33.765 -18.741 -21.012  0.00  0.00    +0.030 C 
ATOM     25  C   UNL     1      33.931 -20.061 -20.589  0.00  0.00    +0.140 C 
ATOM     26  C   UNL     1      36.266 -19.964 -21.200  0.00  0.00    +0.032 C 
ATOM     27  C   UNL     1      35.182 -20.671 -20.683  0.00  0.00    +0.032 C 
ENDBRANCH   6  22
BRANCH   4  28
ATOM     28  N   UNL     1      34.718 -15.595 -19.705  0.00  0.00    +0.384 N 
ATOM     29  H   UNL     1      34.455 -16.311 -19.028  0.00  0.00    -0.089 HD
ATOM     30  H   UNL     1      34.537 -14.672 -19.312  0.00  0.00    -0.089 HD
ATOM     31  H   UNL     1      35.710 -15.683 -19.925  0.00  0.00    -0.089 HD
ENDBRANCH   4  28
TORSDOF 4
ENDMDL
MODEL 9
REMARK VINA RESULT:      -9.6     10.806     15.551
REMARK  Name = 46209133
REMARK  4 active torsions:
REMARK  status: ('A' for Active; 'I' for Inactive)
REMARK    1  A    between atoms: C_2  and  N_7
REMARK    2  A    between atoms: C_4  and  N_28
REMARK    3  A    between atoms: C_6  and  C_22
REMARK    4  A    between atoms: N_8  and  S_16
REMARK                            x       y       z     vdW  Elec       q    Type
REMARK                         _______ _______ _______ _____ _____    ______ ____
ROOT
ATOM      1  O   UNL     1      33.994 -11.520 -24.422  0.00  0.00    -0.356 OA
ATOM      2  C   UNL     1      32.655  -9.719 -23.502  0.00  0.00    -0.029 C 
ATOM      3  C   UNL     1      32.144 -10.649 -22.399  0.00  0.00    -0.038 C 
ATOM      4  C   UNL     1      32.204 -12.112 -22.862  0.00  0.00    -0.036 C 
ATOM      5  C   UNL     1      34.038 -10.168 -23.965  0.00  0.00    +0.122 C 
ATOM      6  C   UNL     1      33.617 -12.446 -23.391  0.00  0.00    +0.120 C 
ENDROOT
BRANCH   2   7
ATOM      7  N   UNL     1      32.701  -8.345 -23.027  0.00  0.00    +0.396 N 
ATOM      8  N   UNL     1      31.417  -4.384 -23.350  0.00  0.00    -0.092 N 
ATOM      9  N   UNL     1      32.423  -4.918 -24.093  0.00  0.00    -0.165 NA
ATOM     10  C   UNL     1      31.399  -7.896 -22.430  0.00  0.00    -0.047 C 
ATOM     11  C   UNL     1      33.144  -7.382 -24.087  0.00  0.00    -0.028 C 
ATOM     12  C   UNL     1      31.393  -6.475 -22.786  0.00  0.00    -0.012 C 
ATOM     13  C   UNL     1      32.376  -6.189 -23.720  0.00  0.00    +0.053 C 
ATOM     14  C   UNL     1      30.764  -5.291 -22.544  0.00  0.00    +0.104 C 
ATOM     15  H   UNL     1      33.402  -8.340 -22.287  0.00  0.00    -0.078 HD
BRANCH   8  16
ATOM     16  S   UNL     1      30.986  -2.763 -23.381  0.00  0.00    +0.077 S 
ATOM     17  O   UNL     1      29.846  -2.489 -22.478  0.00  0.00    -0.153 OA
ATOM     18  O   UNL     1      32.181  -1.907 -23.224  0.00  0.00    -0.153 OA
ATOM     19  C   UNL     1      30.358  -2.434 -25.033  0.00  0.00    +0.202 C 
ENDBRANCH   8  16
ENDBRANCH   2   7
BRANCH   6  22
ATOM     20  F   UNL     1      34.944 -14.640 -22.204  0.00  0.00    -0.204 F 
ATOM     21  F   UNL     1      32.500 -15.490 -27.022  0.00  0.00    -0.204 F 
ATOM     22  C   UNL     1      33.671 -13.798 -24.022  0.00  0.00    +0.032 C 
ATOM     23  C   UNL     1      34.343 -14.842 -23.385  0.00  0.00    +0.138 C 
ATOM     24  C   UNL     1      33.048 -14.017 -25.251  0.00  0.00    +0.030 C 
ATOM     25  C   UNL     1      33.097 -15.280 -25.842  0.00  0.00    +0.140 C 
ATOM     26  C   UNL     1      34.392 -16.104 -23.976  0.00  0.00    +0.032 C 
ATOM     27  C   UNL     1      33.769 -16.323 -25.204  0.00  0.00    +0.032 C 
ENDBRANCH   6  22
BRANCH   4  28
ATOM     28  N   UNL     1      31.810 -12.980 -21.750  0.00  0.00    +0.384 N 
ATOM     29  H   UNL     1      32.035 -13.948 -21.979  0.00  0.00    -0.089 HD
ATOM     30  H   UNL     1      30.807 -12.892 -21.589  0.00  0.00    -0.089 HD
ATOM     31  H   UNL     1      32.315 -12.702 -20.909  0.00  0.00    -0.089 HD
ENDBRANCH   4  28
TORSDOF 4
ENDMDL
