MODEL 1
REMARK VINA RESULT:      -9.9      0.000      0.000
REMARK  Name = 2354
REMARK  6 active torsions:
REMARK  status: ('A' for Active; 'I' for Inactive)
REMARK    1  A    between atoms: N_1  and  C_3
REMARK    2  A    between atoms: N_1  and  N_16
REMARK    3  A    between atoms: C_4  and  C_11
REMARK    4  A    between atoms: N_15  and  N_16
REMARK    5  A    between atoms: N_15  and  C_18
REMARK    6  A    between atoms: C_17  and  C_25
REMARK                            x       y       z     vdW  Elec       q    Type
REMARK                         _______ _______ _______ _____ _____    ______ ____
ROOT
ATOM      1  N   UNL     1      34.157 -23.148 -16.716  0.00  0.00    -0.243 N 
ATOM      2  H   UNL     1      33.201 -23.251 -16.926  0.00  0.00    +0.170 HD
ENDROOT
BRANCH   1   3
ATOM      3  C   UNL     1      34.602 -23.384 -15.407  0.00  0.00    +0.061 C 
ATOM      4  C   UNL     1      35.490 -23.859 -12.796  0.00  0.00    +0.031 C 
ATOM      5  C   UNL     1      35.896 -23.016 -15.023  0.00  0.00    +0.016 C 
ATOM      6  C   UNL     1      33.756 -23.992 -14.473  0.00  0.00    +0.016 C 
ATOM      7  C   UNL     1      36.339 -23.252 -13.722  0.00  0.00    +0.004 C 
ATOM      8  C   UNL     1      34.198 -24.229 -13.172  0.00  0.00    +0.004 C 
BRANCH   4  11
ATOM      9  N   UNL     1      37.059 -23.440 -10.918  0.00  0.00    -0.343 N 
ATOM     10  N   UNL     1      35.320 -24.983 -10.679  0.00  0.00    -0.285 NA
ATOM     11  C   UNL     1      35.952 -24.107 -11.440  0.00  0.00    +0.117 C 
ATOM     12  H   UNL     1      37.354 -23.623  -9.996  0.00  0.00    +0.144 HD
ATOM     13  H   UNL     1      37.545 -22.786 -11.470  0.00  0.00    +0.144 HD
ATOM     14  H   UNL     1      35.630 -25.152  -9.760  0.00  0.00    +0.188 HD
ENDBRANCH   4  11
ENDBRANCH   1   3
BRANCH   1  15
ATOM     15  N   UNL     1      35.010 -22.784 -17.687  0.00  0.00    -0.018 NA
BRANCH  15  16
ATOM     16  N   UNL     1      34.369 -22.787 -18.760  0.00  0.00    -0.129 NA
BRANCH  16  18
ATOM     17  C   UNL     1      35.223 -19.322 -20.953  0.00  0.00    +0.031 C 
ATOM     18  C   UNL     1      34.655 -21.630 -19.492  0.00  0.00    +0.087 C 
ATOM     19  C   UNL     1      36.263 -20.083 -20.418  0.00  0.00    +0.004 C 
ATOM     20  C   UNL     1      33.899 -19.717 -20.757  0.00  0.00    +0.004 C 
ATOM     21  C   UNL     1      35.979 -21.236 -19.687  0.00  0.00    +0.018 C 
ATOM     22  C   UNL     1      33.615 -20.870 -20.027  0.00  0.00    +0.018 C 
BRANCH  17  25
ATOM     23  N   UNL     1      35.009 -16.878 -21.333  0.00  0.00    -0.343 N 
ATOM     24  N   UNL     1      36.285 -18.190 -22.787  0.00  0.00    -0.285 NA
ATOM     25  C   UNL     1      35.520 -18.118 -21.712  0.00  0.00    +0.117 C 
ATOM     26  H   UNL     1      35.224 -16.075 -21.862  0.00  0.00    +0.144 HD
ATOM     27  H   UNL     1      34.435 -16.805 -20.538  0.00  0.00    +0.144 HD
ATOM     28  H   UNL     1      36.488 -17.376 -23.303  0.00  0.00    +0.188 HD
ENDBRANCH  17  25
ENDBRANCH  16  18
ENDBRANCH  15  16
ENDBRANCH   1  15
TORSDOF 6
ENDMDL
MODEL 2
REMARK VINA RESULT:      -9.8      4.303      9.959
REMARK  Name = 2354
REMARK  6 active torsions:
REMARK  status: ('A' for Active; 'I' for Inactive)
REMARK    1  A    between atoms: N_1  and  C_3
REMARK    2  A    between atoms: N_1  and  N_16
REMARK    3  A    between atoms: C_4  and  C_11
REMARK    4  A    between atoms: N_15  and  N_16
REMARK    5  A    between atoms: N_15  and  C_18
REMARK    6  A    between atoms: C_17  and  C_25
REMARK                            x       y       z     vdW  Elec       q    Type
REMARK                         _______ _______ _______ _____ _____    ______ ____
ROOT
ATOM      1  N   UNL     1      34.931 -16.411 -22.299  0.00  0.00    -0.243 N 
ATOM      2  H   UNL     1      35.226 -16.564 -23.226  0.00  0.00    +0.170 HD
ENDROOT
BRANCH   1   3
ATOM      3  C   UNL     1      34.088 -15.328 -22.015  0.00  0.00    +0.061 C 
ATOM      4  C   UNL     1      32.402 -13.167 -21.450  0.00  0.00    +0.031 C 
ATOM      5  C   UNL     1      33.542 -15.174 -20.736  0.00  0.00    +0.016 C 
ATOM      6  C   UNL     1      33.783 -14.392 -23.009  0.00  0.00    +0.016 C 
ATOM      7  C   UNL     1      32.701 -14.096 -20.454  0.00  0.00    +0.004 C 
ATOM      8  C   UNL     1      32.943 -13.315 -22.728  0.00  0.00    +0.004 C 
BRANCH   4  11
ATOM      9  N   UNL     1      31.478 -11.474 -19.887  0.00  0.00    -0.343 N 
ATOM     10  N   UNL     1      30.748 -11.551 -22.106  0.00  0.00    -0.285 NA
ATOM     11  C   UNL     1      31.524 -12.045 -21.157  0.00  0.00    +0.117 C 
ATOM     12  H   UNL     1      30.876 -10.714 -19.711  0.00  0.00    +0.144 HD
ATOM     13  H   UNL     1      32.046 -11.830 -19.166  0.00  0.00    +0.144 HD
ATOM     14  H   UNL     1      30.153 -10.792 -21.910  0.00  0.00    +0.188 HD
ENDBRANCH   4  11
ENDBRANCH   1   3
BRANCH   1  15
ATOM     15  N   UNL     1      35.345 -17.246 -21.331  0.00  0.00    -0.018 NA
BRANCH  15  16
ATOM     16  N   UNL     1      35.579 -18.349 -21.870  0.00  0.00    -0.129 NA
BRANCH  16  18
ATOM     17  C   UNL     1      33.923 -21.443 -19.583  0.00  0.00    +0.031 C 
ATOM     18  C   UNL     1      35.026 -19.382 -21.107  0.00  0.00    +0.087 C 
ATOM     19  C   UNL     1      35.308 -21.307 -19.674  0.00  0.00    +0.004 C 
ATOM     20  C   UNL     1      33.090 -20.546 -20.254  0.00  0.00    +0.004 C 
ATOM     21  C   UNL     1      35.860 -20.278 -20.437  0.00  0.00    +0.018 C 
ATOM     22  C   UNL     1      33.641 -19.517 -21.015  0.00  0.00    +0.018 C 
BRANCH  17  25
ATOM     23  N   UNL     1      32.221 -22.312 -17.999  0.00  0.00    -0.343 N 
ATOM     24  N   UNL     1      33.901 -23.718 -18.812  0.00  0.00    -0.285 NA
ATOM     25  C   UNL     1      33.348 -22.518 -18.791  0.00  0.00    +0.117 C 
ATOM     26  H   UNL     1      31.848 -23.055 -17.471  0.00  0.00    +0.144 HD
ATOM     27  H   UNL     1      31.797 -21.424 -17.967  0.00  0.00    +0.144 HD
ATOM     28  H   UNL     1      33.513 -24.448 -18.277  0.00  0.00    +0.188 HD
ENDBRANCH  17  25
ENDBRANCH  16  18
ENDBRANCH  15  16
ENDBRANCH   1  15
TORSDOF 6
ENDMDL
MODEL 3
REMARK VINA RESULT:      -9.8      4.335      7.371
REMARK  Name = 2354
REMARK  6 active torsions:
REMARK  status: ('A' for Active; 'I' for Inactive)
REMARK    1  A    between atoms: N_1  and  C_3
REMARK    2  A    between atoms: N_1  and  N_16
REMARK    3  A    between atoms: C_4  and  C_11
REMARK    4  A    between atoms: N_15  and  N_16
REMARK    5  A    between atoms: N_15  and  C_18
REMARK    6  A    between atoms: C_17  and  C_25
REMARK                            x       y       z     vdW  Elec       q    Type
REMARK                         _______ _______ _______ _____ _____    ______ ____
ROOT
ATOM      1  N   UNL     1      35.623 -18.230 -21.749  0.00  0.00    -0.243 N 
ATOM      2  H   UNL     1      36.266 -18.412 -22.473  0.00  0.00    +0.170 HD
ENDROOT
BRANCH   1   3
ATOM      3  C   UNL     1      35.071 -19.303 -21.036  0.00  0.00    +0.061 C 
ATOM      4  C   UNL     1      33.968 -21.442 -19.609  0.00  0.00    +0.031 C 
ATOM      5  C   UNL     1      33.684 -19.482 -20.991  0.00  0.00    +0.016 C 
ATOM      6  C   UNL     1      35.901 -20.204 -20.361  0.00  0.00    +0.016 C 
ATOM      7  C   UNL     1      33.134 -20.549 -20.280  0.00  0.00    +0.004 C 
ATOM      8  C   UNL     1      35.352 -21.270 -19.649  0.00  0.00    +0.004 C 
BRANCH   4  11
ATOM      9  N   UNL     1      32.321 -22.367 -17.996  0.00  0.00    -0.343 N 
ATOM     10  N   UNL     1      33.895 -23.768 -19.007  0.00  0.00    -0.285 NA
ATOM     11  C   UNL     1      33.394 -22.554 -18.866  0.00  0.00    +0.117 C 
ATOM     12  H   UNL     1      31.949 -23.134 -17.503  0.00  0.00    +0.144 HD
ATOM     13  H   UNL     1      31.937 -21.469 -17.875  0.00  0.00    +0.144 HD
ATOM     14  H   UNL     1      33.509 -24.522 -18.506  0.00  0.00    +0.188 HD
ENDBRANCH   4  11
ENDBRANCH   1   3
BRANCH   1  15
ATOM     15  N   UNL     1      35.294 -16.960 -21.465  0.00  0.00    -0.018 NA
BRANCH  15  16
ATOM     16  N   UNL     1      34.744 -16.485 -22.482  0.00  0.00    -0.129 NA
BRANCH  16  18
ATOM     17  C   UNL     1      32.344 -13.219 -21.424  0.00  0.00    +0.031 C 
ATOM     18  C   UNL     1      33.943 -15.394 -22.129  0.00  0.00    +0.087 C 
ATOM     19  C   UNL     1      32.819 -13.341 -22.730  0.00  0.00    +0.004 C 
ATOM     20  C   UNL     1      32.669 -14.186 -20.471  0.00  0.00    +0.004 C 
ATOM     21  C   UNL     1      33.620 -14.428 -23.082  0.00  0.00    +0.018 C 
ATOM     22  C   UNL     1      33.468 -15.272 -20.823  0.00  0.00    +0.018 C 
BRANCH  17  25
ATOM     23  N   UNL     1      31.587 -11.512 -19.789  0.00  0.00    -0.343 N 
ATOM     24  N   UNL     1      30.663 -11.580 -21.934  0.00  0.00    -0.285 NA
ATOM     25  C   UNL     1      31.513 -12.085 -21.057  0.00  0.00    +0.117 C 
ATOM     26  H   UNL     1      31.015 -10.743 -19.561  0.00  0.00    +0.144 HD
ATOM     27  H   UNL     1      32.211 -11.875 -19.120  0.00  0.00    +0.144 HD
ATOM     28  H   UNL     1      30.099 -10.811 -21.688  0.00  0.00    +0.188 HD
ENDBRANCH  17  25
ENDBRANCH  16  18
ENDBRANCH  15  16
ENDBRANCH   1  15
TORSDOF 6
ENDMDL
MODEL 4
REMARK VINA RESULT:      -9.8      0.221      1.505
REMARK  Name = 2354
REMARK  6 active torsions:
REMARK  status: ('A' for Active; 'I' for Inactive)
REMARK    1  A    between atoms: N_1  and  C_3
REMARK    2  A    between atoms: N_1  and  N_16
REMARK    3  A    between atoms: C_4  and  C_11
REMARK    4  A    between atoms: N_15  and  N_16
REMARK    5  A    between atoms: N_15  and  C_18
REMARK    6  A    between atoms: C_17  and  C_25
REMARK                            x       y       z     vdW  Elec       q    Type
REMARK                         _______ _______ _______ _____ _____    ______ ____
ROOT
ATOM      1  N   UNL     1      34.160 -23.336 -16.722  0.00  0.00    -0.243 N 
ATOM      2  H   UNL     1      33.271 -23.670 -16.983  0.00  0.00    +0.170 HD
ENDROOT
BRANCH   1   3
ATOM      3  C   UNL     1      34.604 -23.523 -15.405  0.00  0.00    +0.061 C 
ATOM      4  C   UNL     1      35.491 -23.892 -12.777  0.00  0.00    +0.031 C 
ATOM      5  C   UNL     1      33.725 -23.988 -14.422  0.00  0.00    +0.016 C 
ATOM      6  C   UNL     1      35.932 -23.244 -15.063  0.00  0.00    +0.016 C 
ATOM      7  C   UNL     1      34.167 -24.172 -13.111  0.00  0.00    +0.004 C 
ATOM      8  C   UNL     1      36.374 -23.428 -13.753  0.00  0.00    +0.004 C 
BRANCH   4  11
ATOM      9  N   UNL     1      37.011 -23.340 -10.893  0.00  0.00    -0.343 N 
ATOM     10  N   UNL     1      35.364 -24.978 -10.637  0.00  0.00    -0.285 NA
ATOM     11  C   UNL     1      35.952 -24.083 -11.411  0.00  0.00    +0.117 C 
ATOM     12  H   UNL     1      37.307 -23.485  -9.964  0.00  0.00    +0.144 HD
ATOM     13  H   UNL     1      37.464 -22.671 -11.455  0.00  0.00    +0.144 HD
ATOM     14  H   UNL     1      35.674 -25.109  -9.712  0.00  0.00    +0.188 HD
ENDBRANCH   4  11
ENDBRANCH   1   3
BRANCH   1  15
ATOM     15  N   UNL     1      34.922 -22.710 -17.633  0.00  0.00    -0.018 NA
BRANCH  15  16
ATOM     16  N   UNL     1      34.336 -22.806 -18.733  0.00  0.00    -0.129 NA
BRANCH  16  18
ATOM     17  C   UNL     1      35.011 -19.364 -21.022  0.00  0.00    +0.031 C 
ATOM     18  C   UNL     1      34.561 -21.657 -19.497  0.00  0.00    +0.087 C 
ATOM     19  C   UNL     1      33.706 -19.768 -20.738  0.00  0.00    +0.004 C 
ATOM     20  C   UNL     1      36.090 -20.108 -20.543  0.00  0.00    +0.004 C 
ATOM     21  C   UNL     1      33.482 -20.915 -19.977  0.00  0.00    +0.018 C 
ATOM     22  C   UNL     1      35.866 -21.254 -19.782  0.00  0.00    +0.018 C 
BRANCH  17  25
ATOM     23  N   UNL     1      34.415 -17.056 -21.716  0.00  0.00    -0.343 N 
ATOM     24  N   UNL     1      36.260 -18.133 -22.665  0.00  0.00    -0.285 NA
ATOM     25  C   UNL     1      35.245 -18.171 -21.819  0.00  0.00    +0.117 C 
ATOM     26  H   UNL     1      34.593 -16.258 -22.265  0.00  0.00    +0.144 HD
ATOM     27  H   UNL     1      33.653 -17.066 -21.094  0.00  0.00    +0.144 HD
ATOM     28  H   UNL     1      36.420 -17.325 -23.205  0.00  0.00    +0.188 HD
ENDBRANCH  17  25
ENDBRANCH  16  18
ENDBRANCH  15  16
ENDBRANCH   1  15
TORSDOF 6
ENDMDL
MODEL 5
REMARK VINA RESULT:      -9.7      0.616      8.632
REMARK  Name = 2354
REMARK  6 active torsions:
REMARK  status: ('A' for Active; 'I' for Inactive)
REMARK    1  A    between atoms: N_1  and  C_3
REMARK    2  A    between atoms: N_1  and  N_16
REMARK    3  A    between atoms: C_4  and  C_11
REMARK    4  A    between atoms: N_15  and  N_16
REMARK    5  A    between atoms: N_15  and  C_18
REMARK    6  A    between atoms: C_17  and  C_25
REMARK                            x       y       z     vdW  Elec       q    Type
REMARK                         _______ _______ _______ _____ _____    ______ ____
ROOT
ATOM      1  N   UNL     1      33.515 -22.999 -18.627  0.00  0.00    -0.243 N 
ATOM      2  H   UNL     1      32.742 -23.513 -18.954  0.00  0.00    +0.170 HD
ENDROOT
BRANCH   1   3
ATOM      3  C   UNL     1      33.943 -21.871 -19.342  0.00  0.00    +0.061 C 
ATOM      4  C   UNL     1      34.796 -19.622 -20.771  0.00  0.00    +0.031 C 
ATOM      5  C   UNL     1      33.009 -20.979 -19.879  0.00  0.00    +0.016 C 
ATOM      6  C   UNL     1      35.308 -21.628 -19.526  0.00  0.00    +0.016 C 
ATOM      7  C   UNL     1      33.434 -19.857 -20.591  0.00  0.00    +0.004 C 
ATOM      8  C   UNL     1      35.734 -20.507 -20.238  0.00  0.00    +0.004 C 
BRANCH   4  11
ATOM      9  N   UNL     1      35.660 -18.554 -22.840  0.00  0.00    -0.343 N 
ATOM     10  N   UNL     1      35.252 -17.267 -20.932  0.00  0.00    -0.285 NA
ATOM     11  C   UNL     1      35.240 -18.453 -21.515  0.00  0.00    +0.117 C 
ATOM     12  H   UNL     1      35.956 -17.750 -23.325  0.00  0.00    +0.144 HD
ATOM     13  H   UNL     1      35.662 -19.430 -23.290  0.00  0.00    +0.144 HD
ATOM     14  H   UNL     1      35.552 -16.475 -21.434  0.00  0.00    +0.188 HD
ENDBRANCH   4  11
ENDBRANCH   1   3
BRANCH   1  15
ATOM     15  N   UNL     1      34.141 -23.392 -17.506  0.00  0.00    -0.018 NA
BRANCH  15  16
ATOM     16  N   UNL     1      33.321 -23.285 -16.569  0.00  0.00    -0.129 NA
BRANCH  16  18
ATOM     17  C   UNL     1      35.248 -23.892 -12.900  0.00  0.00    +0.031 C 
ATOM     18  C   UNL     1      33.965 -23.488 -15.344  0.00  0.00    +0.087 C 
ATOM     19  C   UNL     1      35.941 -23.315 -13.964  0.00  0.00    +0.004 C 
ATOM     20  C   UNL     1      33.913 -24.266 -13.058  0.00  0.00    +0.004 C 
ATOM     21  C   UNL     1      35.299 -23.114 -15.186  0.00  0.00    +0.018 C 
ATOM     22  C   UNL     1      33.272 -24.065 -14.280  0.00  0.00    +0.018 C 
BRANCH  17  25
ATOM     23  N   UNL     1      37.091 -23.428 -11.303  0.00  0.00    -0.343 N 
ATOM     24  N   UNL     1      35.412 -24.958 -10.752  0.00  0.00    -0.285 NA
ATOM     25  C   UNL     1      35.917 -24.105 -11.627  0.00  0.00    +0.117 C 
ATOM     26  H   UNL     1      37.528 -23.588 -10.435  0.00  0.00    +0.144 HD
ATOM     27  H   UNL     1      37.485 -22.792 -11.942  0.00  0.00    +0.144 HD
ATOM     28  H   UNL     1      35.864 -25.103  -9.889  0.00  0.00    +0.188 HD
ENDBRANCH  17  25
ENDBRANCH  16  18
ENDBRANCH  15  16
ENDBRANCH   1  15
TORSDOF 6
ENDMDL
MODEL 6
REMARK VINA RESULT:      -9.7      2.368      8.815
REMARK  Name = 2354
REMARK  6 active torsions:
REMARK  status: ('A' for Active; 'I' for Inactive)
REMARK    1  A    between atoms: N_1  and  C_3
REMARK    2  A    between atoms: N_1  and  N_16
REMARK    3  A    between atoms: C_4  and  C_11
REMARK    4  A    between atoms: N_15  and  N_16
REMARK    5  A    between atoms: N_15  and  C_18
REMARK    6  A    between atoms: C_17  and  C_25
REMARK                            x       y       z     vdW  Elec       q    Type
REMARK                         _______ _______ _______ _____ _____    ______ ____
ROOT
ATOM      1  N   UNL     1      35.506 -22.183 -19.001  0.00  0.00    -0.243 N 
ATOM      2  H   UNL     1      36.347 -22.694 -18.972  0.00  0.00    +0.170 HD
ENDROOT
BRANCH   1   3
ATOM      3  C   UNL     1      35.437 -21.014 -19.772  0.00  0.00    +0.061 C 
ATOM      4  C   UNL     1      35.299 -18.680 -21.308  0.00  0.00    +0.031 C 
ATOM      5  C   UNL     1      36.605 -20.325 -20.116  0.00  0.00    +0.016 C 
ATOM      6  C   UNL     1      34.199 -20.526 -20.204  0.00  0.00    +0.016 C 
ATOM      7  C   UNL     1      36.536 -19.161 -20.882  0.00  0.00    +0.004 C 
ATOM      8  C   UNL     1      34.130 -19.362 -20.969  0.00  0.00    +0.004 C 
BRANCH   4  11
ATOM      9  N   UNL     1      34.696 -16.287 -21.585  0.00  0.00    -0.343 N 
ATOM     10  N   UNL     1      35.669 -17.469 -23.351  0.00  0.00    -0.285 NA
ATOM     11  C   UNL     1      35.227 -17.465 -22.106  0.00  0.00    +0.117 C 
ATOM     12  H   UNL     1      34.657 -15.476 -22.143  0.00  0.00    +0.144 HD
ATOM     13  H   UNL     1      34.358 -16.266 -20.661  0.00  0.00    +0.144 HD
ATOM     14  H   UNL     1      35.622 -16.648 -23.893  0.00  0.00    +0.188 HD
ENDBRANCH   4  11
ENDBRANCH   1   3
BRANCH   1  15
ATOM     15  N   UNL     1      34.446 -22.620 -18.300  0.00  0.00    -0.018 NA
BRANCH  15  16
ATOM     16  N   UNL     1      34.846 -22.866 -17.142  0.00  0.00    -0.129 NA
BRANCH  16  18
ATOM     17  C   UNL     1      31.666 -24.244 -14.790  0.00  0.00    +0.031 C 
ATOM     18  C   UNL     1      33.784 -23.326 -16.357  0.00  0.00    +0.087 C 
ATOM     19  C   UNL     1      31.415 -23.686 -16.043  0.00  0.00    +0.004 C 
ATOM     20  C   UNL     1      32.977 -24.343 -14.320  0.00  0.00    +0.004 C 
ATOM     21  C   UNL     1      32.474 -23.226 -16.826  0.00  0.00    +0.018 C 
ATOM     22  C   UNL     1      34.035 -23.884 -15.103  0.00  0.00    +0.018 C 
BRANCH  17  25
ATOM     23  N   UNL     1      29.492 -25.415 -14.533  0.00  0.00    -0.343 N 
ATOM     24  N   UNL     1      30.561 -24.493 -12.670  0.00  0.00    -0.285 NA
ATOM     25  C   UNL     1      30.562 -24.721 -13.972  0.00  0.00    +0.117 C 
ATOM     26  H   UNL     1      28.754 -25.729 -13.960  0.00  0.00    +0.144 HD
ATOM     27  H   UNL     1      29.473 -25.591 -15.501  0.00  0.00    +0.144 HD
ATOM     28  H   UNL     1      29.815 -24.815 -12.115  0.00  0.00    +0.188 HD
ENDBRANCH  17  25
ENDBRANCH  16  18
ENDBRANCH  15  16
ENDBRANCH   1  15
TORSDOF 6
ENDMDL
MODEL 7
REMARK VINA RESULT:      -9.7      3.846     10.146
REMARK  Name = 2354
REMARK  6 active torsions:
REMARK  status: ('A' for Active; 'I' for Inactive)
REMARK    1  A    between atoms: N_1  and  C_3
REMARK    2  A    between atoms: N_1  and  N_16
REMARK    3  A    between atoms: C_4  and  C_11
REMARK    4  A    between atoms: N_15  and  N_16
REMARK    5  A    between atoms: N_15  and  C_18
REMARK    6  A    between atoms: C_17  and  C_25
REMARK                            x       y       z     vdW  Elec       q    Type
REMARK                         _______ _______ _______ _____ _____    ______ ____
ROOT
ATOM      1  N   UNL     1      35.534 -18.073 -23.619  0.00  0.00    -0.243 N 
ATOM      2  H   UNL     1      36.311 -18.210 -24.208  0.00  0.00    +0.170 HD
ENDROOT
BRANCH   1   3
ATOM      3  C   UNL     1      34.939 -16.806 -23.549  0.00  0.00    +0.061 C 
ATOM      4  C   UNL     1      33.753 -14.275 -23.410  0.00  0.00    +0.031 C 
ATOM      5  C   UNL     1      34.285 -16.270 -24.663  0.00  0.00    +0.016 C 
ATOM      6  C   UNL     1      34.994 -16.065 -22.364  0.00  0.00    +0.016 C 
ATOM      7  C   UNL     1      33.693 -15.009 -24.594  0.00  0.00    +0.004 C 
ATOM      8  C   UNL     1      34.404 -14.804 -22.294  0.00  0.00    +0.004 C 
BRANCH   4  11
ATOM      9  N   UNL     1      33.777 -11.832 -23.851  0.00  0.00    -0.343 N 
ATOM     10  N   UNL     1      31.951 -12.817 -22.775  0.00  0.00    -0.285 NA
ATOM     11  C   UNL     1      33.138 -12.959 -23.338  0.00  0.00    +0.117 C 
ATOM     12  H   UNL     1      33.342 -10.950 -23.792  0.00  0.00    +0.144 HD
ATOM     13  H   UNL     1      34.663 -11.917 -24.271  0.00  0.00    +0.144 HD
ATOM     14  H   UNL     1      31.533 -11.928 -22.725  0.00  0.00    +0.188 HD
ENDBRANCH   4  11
ENDBRANCH   1   3
BRANCH   1  15
ATOM     15  N   UNL     1      35.066 -19.105 -22.897  0.00  0.00    -0.018 NA
BRANCH  15  16
ATOM     16  N   UNL     1      35.754 -19.168 -21.855  0.00  0.00    -0.129 NA
BRANCH  16  18
ATOM     17  C   UNL     1      33.954 -21.763 -19.104  0.00  0.00    +0.031 C 
ATOM     18  C   UNL     1      35.153 -20.035 -20.937  0.00  0.00    +0.087 C 
ATOM     19  C   UNL     1      35.336 -21.792 -19.288  0.00  0.00    +0.004 C 
ATOM     20  C   UNL     1      33.172 -20.869 -19.836  0.00  0.00    +0.004 C 
ATOM     21  C   UNL     1      35.935 -20.929 -20.206  0.00  0.00    +0.018 C 
ATOM     22  C   UNL     1      33.771 -20.006 -20.752  0.00  0.00    +0.018 C 
BRANCH  17  25
ATOM     23  N   UNL     1      31.977 -22.559 -17.830  0.00  0.00    -0.343 N 
ATOM     24  N   UNL     1      34.049 -23.608 -17.566  0.00  0.00    -0.285 NA
ATOM     25  C   UNL     1      33.329 -22.666 -18.150  0.00  0.00    +0.117 C 
ATOM     26  H   UNL     1      31.574 -23.181 -17.181  0.00  0.00    +0.144 HD
ATOM     27  H   UNL     1      31.425 -21.862 -18.251  0.00  0.00    +0.144 HD
ATOM     28  H   UNL     1      33.628 -24.220 -16.920  0.00  0.00    +0.188 HD
ENDBRANCH  17  25
ENDBRANCH  16  18
ENDBRANCH  15  16
ENDBRANCH   1  15
TORSDOF 6
ENDMDL
MODEL 8
REMARK VINA RESULT:      -9.6      2.422      3.440
REMARK  Name = 2354
REMARK  6 active torsions:
REMARK  status: ('A' for Active; 'I' for Inactive)
REMARK    1  A    between atoms: N_1  and  C_3
REMARK    2  A    between atoms: N_1  and  N_16
REMARK    3  A    between atoms: C_4  and  C_11
REMARK    4  A    between atoms: N_15  and  N_16
REMARK    5  A    between atoms: N_15  and  C_18
REMARK    6  A    between atoms: C_17  and  C_25
REMARK                            x       y       z     vdW  Elec       q    Type
REMARK                         _______ _______ _______ _____ _____    ______ ____
ROOT
ATOM      1  N   UNL     1      34.583 -22.861 -17.167  0.00  0.00    -0.243 N 
ATOM      2  H   UNL     1      35.477 -22.734 -16.775  0.00  0.00    +0.170 HD
ENDROOT
BRANCH   1   3
ATOM      3  C   UNL     1      33.537 -23.323 -16.356  0.00  0.00    +0.061 C 
ATOM      4  C   UNL     1      31.449 -24.241 -14.735  0.00  0.00    +0.031 C 
ATOM      5  C   UNL     1      32.211 -23.232 -16.792  0.00  0.00    +0.016 C 
ATOM      6  C   UNL     1      33.809 -23.877 -15.100  0.00  0.00    +0.016 C 
ATOM      7  C   UNL     1      31.170 -23.691 -15.985  0.00  0.00    +0.004 C 
ATOM      8  C   UNL     1      32.769 -24.335 -14.292  0.00  0.00    +0.004 C 
BRANCH   4  11
ATOM      9  N   UNL     1      29.212 -25.279 -14.440  0.00  0.00    -0.343 N 
ATOM     10  N   UNL     1      30.458 -24.618 -12.577  0.00  0.00    -0.285 NA
ATOM     11  C   UNL     1      30.363 -24.717 -13.891  0.00  0.00    +0.117 C 
ATOM     12  H   UNL     1      28.489 -25.595 -13.850  0.00  0.00    +0.144 HD
ATOM     13  H   UNL     1      29.121 -25.358 -15.417  0.00  0.00    +0.144 HD
ATOM     14  H   UNL     1      29.725 -24.939 -12.004  0.00  0.00    +0.188 HD
ENDBRANCH   4  11
ENDBRANCH   1   3
BRANCH   1  15
ATOM     15  N   UNL     1      34.389 -22.590 -18.467  0.00  0.00    -0.018 NA
BRANCH  15  16
ATOM     16  N   UNL     1      35.502 -22.294 -18.952  0.00  0.00    -0.129 NA
BRANCH  16  18
ATOM     17  C   UNL     1      35.186 -18.806 -21.250  0.00  0.00    +0.031 C 
ATOM     18  C   UNL     1      35.397 -21.130 -19.720  0.00  0.00    +0.087 C 
ATOM     19  C   UNL     1      34.038 -19.514 -20.895  0.00  0.00    +0.004 C 
ATOM     20  C   UNL     1      36.440 -19.261 -20.839  0.00  0.00    +0.004 C 
ATOM     21  C   UNL     1      34.143 -20.676 -20.131  0.00  0.00    +0.018 C 
ATOM     22  C   UNL     1      36.545 -20.422 -20.074  0.00  0.00    +0.018 C 
BRANCH  17  25
ATOM     23  N   UNL     1      34.206 -16.569 -21.693  0.00  0.00    -0.343 N 
ATOM     24  N   UNL     1      35.809 -17.461 -23.141  0.00  0.00    -0.285 NA
ATOM     25  C   UNL     1      35.076 -17.597 -22.049  0.00  0.00    +0.117 C 
ATOM     26  H   UNL     1      34.148 -15.758 -22.249  0.00  0.00    +0.144 HD
ATOM     27  H   UNL     1      33.649 -16.653 -20.886  0.00  0.00    +0.144 HD
ATOM     28  H   UNL     1      35.736 -16.642 -23.684  0.00  0.00    +0.188 HD
ENDBRANCH  17  25
ENDBRANCH  16  18
ENDBRANCH  15  16
ENDBRANCH   1  15
TORSDOF 6
ENDMDL
MODEL 9
REMARK VINA RESULT:      -9.6      6.381     12.252
REMARK  Name = 2354
REMARK  6 active torsions:
REMARK  status: ('A' for Active; 'I' for Inactive)
REMARK    1  A    between atoms: N_1  and  C_3
REMARK    2  A    between atoms: N_1  and  N_16
REMARK    3  A    between atoms: C_4  and  C_11
REMARK    4  A    between atoms: N_15  and  N_16
REMARK    5  A    between atoms: N_15  and  C_18
REMARK    6  A    between atoms: C_17  and  C_25
REMARK                            x       y       z     vdW  Elec       q    Type
REMARK                         _______ _______ _______ _____ _____    ______ ____
ROOT
ATOM      1  N   UNL     1      33.003 -15.110 -26.601  0.00  0.00    -0.243 N 
ATOM      2  H   UNL     1      32.700 -15.089 -27.538  0.00  0.00    +0.170 HD
ENDROOT
BRANCH   1   3
ATOM      3  C   UNL     1      33.265 -13.904 -25.936  0.00  0.00    +0.061 C 
ATOM      4  C   UNL     1      33.787 -11.495 -24.611  0.00  0.00    +0.031 C 
ATOM      5  C   UNL     1      33.068 -13.801 -24.555  0.00  0.00    +0.016 C 
ATOM      6  C   UNL     1      33.726 -12.792 -26.649  0.00  0.00    +0.016 C 
ATOM      7  C   UNL     1      33.328 -12.600 -23.894  0.00  0.00    +0.004 C 
ATOM      8  C   UNL     1      33.986 -11.591 -25.989  0.00  0.00    +0.004 C 
BRANCH   4  11
ATOM      9  N   UNL     1      33.083  -9.620 -23.144  0.00  0.00    -0.343 N 
ATOM     10  N   UNL     1      35.244  -9.674 -24.031  0.00  0.00    -0.285 NA
ATOM     11  C   UNL     1      34.056 -10.243 -23.922  0.00  0.00    +0.117 C 
ATOM     12  H   UNL     1      33.287  -8.772 -22.686  0.00  0.00    +0.144 HD
ATOM     13  H   UNL     1      32.191 -10.026 -23.054  0.00  0.00    +0.144 HD
ATOM     14  H   UNL     1      35.429  -8.827 -23.566  0.00  0.00    +0.188 HD
ENDBRANCH   4  11
ENDBRANCH   1   3
BRANCH   1  15
ATOM     15  N   UNL     1      33.156 -16.294 -25.985  0.00  0.00    -0.018 NA
BRANCH  15  16
ATOM     16  N   UNL     1      34.384 -16.490 -25.864  0.00  0.00    -0.129 NA
BRANCH  16  18
ATOM     17  C   UNL     1      35.158 -18.618 -22.340  0.00  0.00    +0.031 C 
ATOM     18  C   UNL     1      34.642 -17.201 -24.688  0.00  0.00    +0.087 C 
ATOM     19  C   UNL     1      34.832 -19.303 -23.511  0.00  0.00    +0.004 C 
ATOM     20  C   UNL     1      35.226 -17.224 -22.344  0.00  0.00    +0.004 C 
ATOM     21  C   UNL     1      34.573 -18.594 -24.685  0.00  0.00    +0.018 C 
ATOM     22  C   UNL     1      34.968 -16.516 -23.517  0.00  0.00    +0.018 C 
BRANCH  17  25
ATOM     23  N   UNL     1      34.436 -20.125 -20.504  0.00  0.00    -0.343 N 
ATOM     24  N   UNL     1      36.623 -19.303 -20.564  0.00  0.00    -0.285 NA
ATOM     25  C   UNL     1      35.424 -19.357 -21.117  0.00  0.00    +0.117 C 
ATOM     26  H   UNL     1      34.638 -20.618 -19.675  0.00  0.00    +0.144 HD
ATOM     27  H   UNL     1      33.536 -20.175 -20.899  0.00  0.00    +0.144 HD
ATOM     28  H   UNL     1      36.806 -19.803 -19.735  0.00  0.00    +0.188 HD
ENDBRANCH  17  25
ENDBRANCH  16  18
ENDBRANCH  15  16
ENDBRANCH   1  15
TORSDOF 6
ENDMDL
