MODEL 1
REMARK VINA RESULT:     -11.2      0.000      0.000
REMARK  Name = 444394
REMARK  9 active torsions:
REMARK  status: ('A' for Active; 'I' for Inactive)
REMARK    1  A    between atoms: C_1  and  C_7
REMARK    2  A    between atoms: C_6  and  C_23
REMARK    3  A    between atoms: C_8  and  C_13
REMARK    4  A    between atoms: C_9  and  O_19
REMARK    5  A    between atoms: N_22  and  C_25
REMARK    6  A    between atoms: C_25  and  C_26
REMARK    7  A    between atoms: C_26  and  C_27
REMARK    8  A    between atoms: C_27  and  C_29
REMARK    9  A    between atoms: C_29  and  O_30
REMARK                            x       y       z     vdW  Elec       q    Type
REMARK                         _______ _______ _______ _____ _____    ______ ____
ROOT
ATOM      1  C   UNL     1      34.644 -18.982 -21.266  0.00  0.00    -0.020 C 
ATOM      2  C   UNL     1      35.797 -19.641 -20.852  0.00  0.00    -0.004 C 
ATOM      3  C   UNL     1      33.388 -19.476 -20.929  0.00  0.00    -0.004 C 
ATOM      4  C   UNL     1      35.693 -20.806 -20.092  0.00  0.00    +0.004 C 
ATOM      5  C   UNL     1      33.283 -20.640 -20.169  0.00  0.00    +0.004 C 
ATOM      6  C   UNL     1      34.436 -21.306 -19.750  0.00  0.00    +0.053 C 
ENDROOT
BRANCH   1   7
ATOM      7  C   UNL     1      34.758 -17.710 -22.094  0.00  0.00    +0.049 C 
ATOM      8  C   UNL     1      33.595 -15.432 -23.613  0.00  0.00    +0.025 C 
ATOM      9  C   UNL     1      34.167 -16.483 -21.371  0.00  0.00    +0.115 C 
ATOM     10  C   UNL     1      34.250 -15.223 -22.240  0.00  0.00    +0.034 C 
ATOM     11  C   UNL     1      34.118 -17.904 -23.480  0.00  0.00    +0.007 C 
ATOM     12  C   UNL     1      34.217 -16.640 -24.333  0.00  0.00    +0.005 C 
BRANCH   8  13
ATOM     13  C   UNL     1      33.654 -14.177 -24.464  0.00  0.00    -0.022 C 
ATOM     14  C   UNL     1      33.422 -14.257 -25.836  0.00  0.00    -0.004 C 
ATOM     15  C   UNL     1      33.942 -12.949 -23.871  0.00  0.00    -0.004 C 
ATOM     16  C   UNL     1      33.478 -13.104 -26.619  0.00  0.00    -0.000 C 
ATOM     17  C   UNL     1      33.997 -11.796 -24.654  0.00  0.00    -0.000 C 
ATOM     18  C   UNL     1      33.766 -11.873 -26.027  0.00  0.00    -0.000 C 
ENDBRANCH   8  13
BRANCH   9  19
ATOM     19  O   UNL     1      34.906 -16.250 -20.171  0.00  0.00    -0.384 OA
ATOM     20  H   UNL     1      35.763 -16.701 -20.226  0.00  0.00    +0.210 HD
ENDBRANCH   9  19
ENDBRANCH   1   7
BRANCH   6  23
ATOM     21  O   UNL     1      34.143 -23.621 -19.513  0.00  0.00    -0.270 OA
ATOM     22  N   UNL     1      34.460 -22.391 -17.572  0.00  0.00    -0.301 N 
ATOM     23  C   UNL     1      34.326 -22.521 -18.959  0.00  0.00    +0.246 C 
ATOM     24  H   UNL     1      34.603 -21.490 -17.201  0.00  0.00    +0.150 HD
BRANCH  22  25
ATOM     25  C   UNL     1      34.399 -23.507 -16.656  0.00  0.00    +0.090 C 
BRANCH  25  26
ATOM     26  C   UNL     1      35.084 -23.216 -15.321  0.00  0.00    +0.033 C 
BRANCH  26  27
ATOM     27  C   UNL     1      36.504 -23.777 -15.212  0.00  0.00    +0.111 C 
BRANCH  27  29
ATOM     28  O   UNL     1      37.353 -21.760 -16.284  0.00  0.00    -0.250 OA
ATOM     29  C   UNL     1      37.548 -22.886 -15.851  0.00  0.00    +0.314 C 
BRANCH  29  30
ATOM     30  O   UNL     1      38.767 -23.487 -15.870  0.00  0.00    -0.480 OA
ATOM     31  H   UNL     1      39.533 -22.985 -16.067  0.00  0.00    +0.295 HD
ENDBRANCH  29  30
ENDBRANCH  27  29
ENDBRANCH  26  27
ENDBRANCH  25  26
ENDBRANCH  22  25
ENDBRANCH   6  23
TORSDOF 9
ENDMDL
MODEL 2
REMARK VINA RESULT:     -11.2      2.567      4.631
REMARK  Name = 444394
REMARK  9 active torsions:
REMARK  status: ('A' for Active; 'I' for Inactive)
REMARK    1  A    between atoms: C_1  and  C_7
REMARK    2  A    between atoms: C_6  and  C_23
REMARK    3  A    between atoms: C_8  and  C_13
REMARK    4  A    between atoms: C_9  and  O_19
REMARK    5  A    between atoms: N_22  and  C_25
REMARK    6  A    between atoms: C_25  and  C_26
REMARK    7  A    between atoms: C_26  and  C_27
REMARK    8  A    between atoms: C_27  and  C_29
REMARK    9  A    between atoms: C_29  and  O_30
REMARK                            x       y       z     vdW  Elec       q    Type
REMARK                         _______ _______ _______ _____ _____    ______ ____
ROOT
ATOM      1  C   UNL     1      34.842 -22.119 -18.382  0.00  0.00    -0.020 C 
ATOM      2  C   UNL     1      35.984 -22.048 -17.590  0.00  0.00    -0.004 C 
ATOM      3  C   UNL     1      33.734 -22.848 -17.959  0.00  0.00    -0.004 C 
ATOM      4  C   UNL     1      36.018 -22.710 -16.363  0.00  0.00    +0.004 C 
ATOM      5  C   UNL     1      33.768 -23.510 -16.732  0.00  0.00    +0.004 C 
ATOM      6  C   UNL     1      34.910 -23.442 -15.934  0.00  0.00    +0.053 C 
ENDROOT
BRANCH   1   7
ATOM      7  C   UNL     1      34.804 -21.395 -19.719  0.00  0.00    +0.049 C 
ATOM      8  C   UNL     1      34.715 -18.936 -21.391  0.00  0.00    +0.025 C 
ATOM      9  C   UNL     1      36.068 -20.546 -19.964  0.00  0.00    +0.115 C 
ATOM     10  C   UNL     1      35.989 -19.789 -21.294  0.00  0.00    +0.034 C 
ATOM     11  C   UNL     1      33.527 -20.545 -19.842  0.00  0.00    +0.007 C 
ATOM     12  C   UNL     1      33.464 -19.803 -21.176  0.00  0.00    +0.005 C 
BRANCH   8  13
ATOM     13  C   UNL     1      34.649 -18.166 -22.698  0.00  0.00    -0.022 C 
ATOM     14  C   UNL     1      34.669 -16.773 -22.684  0.00  0.00    -0.004 C 
ATOM     15  C   UNL     1      34.567 -18.856 -23.906  0.00  0.00    -0.004 C 
ATOM     16  C   UNL     1      34.606 -16.065 -23.885  0.00  0.00    -0.000 C 
ATOM     17  C   UNL     1      34.506 -18.148 -25.107  0.00  0.00    -0.000 C 
ATOM     18  C   UNL     1      34.525 -16.753 -25.096  0.00  0.00    -0.000 C 
ENDBRANCH   8  13
BRANCH   9  19
ATOM     19  O   UNL     1      37.206 -21.408 -20.004  0.00  0.00    -0.384 OA
ATOM     20  H   UNL     1      37.073 -22.087 -20.684  0.00  0.00    +0.210 HD
ENDBRANCH   9  19
ENDBRANCH   1   7
BRANCH   6  23
ATOM     21  O   UNL     1      33.891 -24.444 -14.075  0.00  0.00    -0.270 OA
ATOM     22  N   UNL     1      36.209 -24.447 -14.138  0.00  0.00    -0.301 N 
ATOM     23  C   UNL     1      34.947 -24.134 -14.656  0.00  0.00    +0.246 C 
ATOM     24  H   UNL     1      37.004 -24.171 -14.651  0.00  0.00    +0.150 HD
BRANCH  22  25
ATOM     25  C   UNL     1      36.410 -25.152 -12.893  0.00  0.00    +0.090 C 
BRANCH  25  26
ATOM     26  C   UNL     1      37.693 -25.982 -12.882  0.00  0.00    +0.033 C 
BRANCH  26  27
ATOM     27  C   UNL     1      38.957 -25.182 -13.205  0.00  0.00    +0.111 C 
BRANCH  27  29
ATOM     28  O   UNL     1      40.825 -25.610 -14.710  0.00  0.00    -0.250 OA
ATOM     29  C   UNL     1      39.622 -25.611 -14.495  0.00  0.00    +0.314 C 
BRANCH  29  30
ATOM     30  O   UNL     1      38.707 -26.033 -15.408  0.00  0.00    -0.480 OA
ATOM     31  H   UNL     1      38.598 -25.566 -16.212  0.00  0.00    +0.295 HD
ENDBRANCH  29  30
ENDBRANCH  27  29
ENDBRANCH  26  27
ENDBRANCH  25  26
ENDBRANCH  22  25
ENDBRANCH   6  23
TORSDOF 9
ENDMDL
MODEL 3
REMARK VINA RESULT:     -11.1      1.011      1.538
REMARK  Name = 444394
REMARK  9 active torsions:
REMARK  status: ('A' for Active; 'I' for Inactive)
REMARK    1  A    between atoms: C_1  and  C_7
REMARK    2  A    between atoms: C_6  and  C_23
REMARK    3  A    between atoms: C_8  and  C_13
REMARK    4  A    between atoms: C_9  and  O_19
REMARK    5  A    between atoms: N_22  and  C_25
REMARK    6  A    between atoms: C_25  and  C_26
REMARK    7  A    between atoms: C_26  and  C_27
REMARK    8  A    between atoms: C_27  and  C_29
REMARK    9  A    between atoms: C_29  and  O_30
REMARK                            x       y       z     vdW  Elec       q    Type
REMARK                         _______ _______ _______ _____ _____    ______ ____
ROOT
ATOM      1  C   UNL     1      34.732 -18.958 -21.253  0.00  0.00    -0.020 C 
ATOM      2  C   UNL     1      33.486 -19.473 -20.907  0.00  0.00    -0.004 C 
ATOM      3  C   UNL     1      35.899 -19.586 -20.828  0.00  0.00    -0.004 C 
ATOM      4  C   UNL     1      33.406 -20.627 -20.130  0.00  0.00    +0.004 C 
ATOM      5  C   UNL     1      35.818 -20.741 -20.050  0.00  0.00    +0.004 C 
ATOM      6  C   UNL     1      34.573 -21.262 -19.701  0.00  0.00    +0.053 C 
ENDROOT
BRANCH   1   7
ATOM      7  C   UNL     1      34.819 -17.698 -22.103  0.00  0.00    +0.049 C 
ATOM      8  C   UNL     1      33.606 -15.473 -23.661  0.00  0.00    +0.025 C 
ATOM      9  C   UNL     1      34.201 -16.472 -21.401  0.00  0.00    +0.115 C 
ATOM     10  C   UNL     1      34.256 -15.226 -22.292  0.00  0.00    +0.034 C 
ATOM     11  C   UNL     1      34.184 -17.930 -23.485  0.00  0.00    +0.007 C 
ATOM     12  C   UNL     1      34.254 -16.679 -24.360  0.00  0.00    +0.005 C 
BRANCH   8  13
ATOM     13  C   UNL     1      33.638 -14.232 -24.534  0.00  0.00    -0.022 C 
ATOM     14  C   UNL     1      33.366 -14.335 -25.897  0.00  0.00    -0.004 C 
ATOM     15  C   UNL     1      33.941 -12.994 -23.970  0.00  0.00    -0.004 C 
ATOM     16  C   UNL     1      33.397 -13.195 -26.700  0.00  0.00    -0.000 C 
ATOM     17  C   UNL     1      33.971 -11.854 -24.772  0.00  0.00    -0.000 C 
ATOM     18  C   UNL     1      33.700 -11.954 -26.137  0.00  0.00    -0.000 C 
ENDBRANCH   8  13
BRANCH   9  19
ATOM     19  O   UNL     1      34.934 -16.202 -20.205  0.00  0.00    -0.384 OA
ATOM     20  H   UNL     1      34.901 -15.252 -20.012  0.00  0.00    +0.210 HD
ENDBRANCH   9  19
ENDBRANCH   1   7
BRANCH   6  23
ATOM     21  O   UNL     1      34.118 -23.541 -19.389  0.00  0.00    -0.270 OA
ATOM     22  N   UNL     1      34.866 -22.352 -17.545  0.00  0.00    -0.301 N 
ATOM     23  C   UNL     1      34.489 -22.465 -18.888  0.00  0.00    +0.246 C 
ATOM     24  H   UNL     1      35.150 -21.469 -17.214  0.00  0.00    +0.150 HD
BRANCH  22  25
ATOM     25  C   UNL     1      34.860 -23.460 -16.617  0.00  0.00    +0.090 C 
BRANCH  25  26
ATOM     26  C   UNL     1      35.887 -23.301 -15.497  0.00  0.00    +0.033 C 
BRANCH  26  27
ATOM     27  C   UNL     1      35.978 -24.506 -14.557  0.00  0.00    +0.111 C 
BRANCH  27  29
ATOM     28  O   UNL     1      36.140 -26.679 -15.646  0.00  0.00    -0.250 OA
ATOM     29  C   UNL     1      36.686 -25.693 -15.174  0.00  0.00    +0.314 C 
BRANCH  29  30
ATOM     30  O   UNL     1      38.035 -25.525 -15.165  0.00  0.00    -0.480 OA
ATOM     31  H   UNL     1      38.598 -26.262 -15.031  0.00  0.00    +0.295 HD
ENDBRANCH  29  30
ENDBRANCH  27  29
ENDBRANCH  26  27
ENDBRANCH  25  26
ENDBRANCH  22  25
ENDBRANCH   6  23
TORSDOF 9
ENDMDL
MODEL 4
REMARK VINA RESULT:     -11.0      1.876      2.399
REMARK  Name = 444394
REMARK  9 active torsions:
REMARK  status: ('A' for Active; 'I' for Inactive)
REMARK    1  A    between atoms: C_1  and  C_7
REMARK    2  A    between atoms: C_6  and  C_23
REMARK    3  A    between atoms: C_8  and  C_13
REMARK    4  A    between atoms: C_9  and  O_19
REMARK    5  A    between atoms: N_22  and  C_25
REMARK    6  A    between atoms: C_25  and  C_26
REMARK    7  A    between atoms: C_26  and  C_27
REMARK    8  A    between atoms: C_27  and  C_29
REMARK    9  A    between atoms: C_29  and  O_30
REMARK                            x       y       z     vdW  Elec       q    Type
REMARK                         _______ _______ _______ _____ _____    ______ ____
ROOT
ATOM      1  C   UNL     1      34.766 -18.932 -21.285  0.00  0.00    -0.020 C 
ATOM      2  C   UNL     1      33.524 -19.433 -20.907  0.00  0.00    -0.004 C 
ATOM      3  C   UNL     1      35.937 -19.568 -20.884  0.00  0.00    -0.004 C 
ATOM      4  C   UNL     1      33.452 -20.582 -20.121  0.00  0.00    +0.004 C 
ATOM      5  C   UNL     1      35.865 -20.717 -20.098  0.00  0.00    +0.004 C 
ATOM      6  C   UNL     1      34.623 -21.225 -19.716  0.00  0.00    +0.053 C 
ENDROOT
BRANCH   1   7
ATOM      7  C   UNL     1      34.844 -17.678 -22.145  0.00  0.00    +0.049 C 
ATOM      8  C   UNL     1      33.616 -15.479 -23.727  0.00  0.00    +0.025 C 
ATOM      9  C   UNL     1      34.209 -16.453 -21.457  0.00  0.00    +0.115 C 
ATOM     10  C   UNL     1      34.256 -15.214 -22.357  0.00  0.00    +0.034 C 
ATOM     11  C   UNL     1      34.219 -17.928 -23.529  0.00  0.00    +0.007 C 
ATOM     12  C   UNL     1      34.281 -16.684 -24.413  0.00  0.00    +0.005 C 
BRANCH   8  13
ATOM     13  C   UNL     1      33.639 -14.245 -24.611  0.00  0.00    -0.022 C 
ATOM     14  C   UNL     1      33.386 -14.363 -25.976  0.00  0.00    -0.004 C 
ATOM     15  C   UNL     1      33.916 -12.998 -24.053  0.00  0.00    -0.004 C 
ATOM     16  C   UNL     1      33.409 -13.229 -26.788  0.00  0.00    -0.000 C 
ATOM     17  C   UNL     1      33.938 -11.864 -24.865  0.00  0.00    -0.000 C 
ATOM     18  C   UNL     1      33.686 -11.979 -26.232  0.00  0.00    -0.000 C 
ENDBRANCH   8  13
BRANCH   9  19
ATOM     19  O   UNL     1      34.934 -16.166 -20.259  0.00  0.00    -0.384 OA
ATOM     20  H   UNL     1      35.579 -15.462 -20.432  0.00  0.00    +0.210 HD
ENDBRANCH   9  19
ENDBRANCH   1   7
BRANCH   6  23
ATOM     21  O   UNL     1      34.148 -23.496 -19.377  0.00  0.00    -0.270 OA
ATOM     22  N   UNL     1      34.966 -22.306 -17.563  0.00  0.00    -0.301 N 
ATOM     23  C   UNL     1      34.548 -22.422 -18.894  0.00  0.00    +0.246 C 
ATOM     24  H   UNL     1      35.271 -21.425 -17.246  0.00  0.00    +0.150 HD
BRANCH  22  25
ATOM     25  C   UNL     1      34.973 -23.409 -16.629  0.00  0.00    +0.090 C 
BRANCH  25  26
ATOM     26  C   UNL     1      33.686 -23.501 -15.810  0.00  0.00    +0.033 C 
BRANCH  26  27
ATOM     27  C   UNL     1      33.873 -24.110 -14.418  0.00  0.00    +0.111 C 
BRANCH  27  29
ATOM     28  O   UNL     1      31.992 -23.407 -13.039  0.00  0.00    -0.250 OA
ATOM     29  C   UNL     1      32.573 -24.283 -13.662  0.00  0.00    +0.314 C 
BRANCH  29  30
ATOM     30  O   UNL     1      32.098 -25.551 -13.777  0.00  0.00    -0.480 OA
ATOM     31  H   UNL     1      31.270 -25.777 -13.402  0.00  0.00    +0.295 HD
ENDBRANCH  29  30
ENDBRANCH  27  29
ENDBRANCH  26  27
ENDBRANCH  25  26
ENDBRANCH  22  25
ENDBRANCH   6  23
TORSDOF 9
ENDMDL
MODEL 5
REMARK VINA RESULT:     -10.4      2.590      4.660
REMARK  Name = 444394
REMARK  9 active torsions:
REMARK  status: ('A' for Active; 'I' for Inactive)
REMARK    1  A    between atoms: C_1  and  C_7
REMARK    2  A    between atoms: C_6  and  C_23
REMARK    3  A    between atoms: C_8  and  C_13
REMARK    4  A    between atoms: C_9  and  O_19
REMARK    5  A    between atoms: N_22  and  C_25
REMARK    6  A    between atoms: C_25  and  C_26
REMARK    7  A    between atoms: C_26  and  C_27
REMARK    8  A    between atoms: C_27  and  C_29
REMARK    9  A    between atoms: C_29  and  O_30
REMARK                            x       y       z     vdW  Elec       q    Type
REMARK                         _______ _______ _______ _____ _____    ______ ____
ROOT
ATOM      1  C   UNL     1      34.936 -21.989 -18.527  0.00  0.00    -0.020 C 
ATOM      2  C   UNL     1      33.840 -22.735 -18.104  0.00  0.00    -0.004 C 
ATOM      3  C   UNL     1      36.091 -21.931 -17.754  0.00  0.00    -0.004 C 
ATOM      4  C   UNL     1      33.900 -23.429 -16.897  0.00  0.00    +0.004 C 
ATOM      5  C   UNL     1      36.151 -22.625 -16.546  0.00  0.00    +0.004 C 
ATOM      6  C   UNL     1      35.056 -23.375 -16.117  0.00  0.00    +0.053 C 
ENDROOT
BRANCH   1   7
ATOM      7  C   UNL     1      34.871 -21.232 -19.846  0.00  0.00    +0.049 C 
ATOM      8  C   UNL     1      34.725 -18.734 -21.455  0.00  0.00    +0.025 C 
ATOM      9  C   UNL     1      36.119 -20.358 -20.084  0.00  0.00    +0.115 C 
ATOM     10  C   UNL     1      36.012 -19.570 -21.394  0.00  0.00    +0.034 C 
ATOM     11  C   UNL     1      33.580 -20.399 -19.931  0.00  0.00    +0.007 C 
ATOM     12  C   UNL     1      33.489 -19.625 -21.246  0.00  0.00    +0.005 C 
BRANCH   8  13
ATOM     13  C   UNL     1      34.631 -17.933 -22.740  0.00  0.00    -0.022 C 
ATOM     14  C   UNL     1      34.546 -16.543 -22.688  0.00  0.00    -0.004 C 
ATOM     15  C   UNL     1      34.629 -18.591 -23.969  0.00  0.00    -0.004 C 
ATOM     16  C   UNL     1      34.458 -15.807 -23.870  0.00  0.00    -0.000 C 
ATOM     17  C   UNL     1      34.542 -17.855 -25.151  0.00  0.00    -0.000 C 
ATOM     18  C   UNL     1      34.456 -16.463 -25.101  0.00  0.00    -0.000 C 
ENDBRANCH   8  13
BRANCH   9  19
ATOM     19  O   UNL     1      37.269 -21.202 -20.160  0.00  0.00    -0.384 OA
ATOM     20  H   UNL     1      37.334 -21.734 -19.352  0.00  0.00    +0.210 HD
ENDBRANCH   9  19
ENDBRANCH   1   7
BRANCH   6  23
ATOM     21  O   UNL     1      34.323 -23.833 -13.937  0.00  0.00    -0.270 OA
ATOM     22  N   UNL     1      36.086 -25.102 -14.747  0.00  0.00    -0.301 N 
ATOM     23  C   UNL     1      35.118 -24.098 -14.857  0.00  0.00    +0.246 C 
ATOM     24  H   UNL     1      36.684 -25.259 -15.514  0.00  0.00    +0.150 HD
BRANCH  22  25
ATOM     25  C   UNL     1      36.257 -25.922 -13.569  0.00  0.00    +0.090 C 
BRANCH  25  26
ATOM     26  C   UNL     1      37.532 -25.590 -12.796  0.00  0.00    +0.033 C 
BRANCH  26  27
ATOM     27  C   UNL     1      37.834 -24.092 -12.701  0.00  0.00    +0.111 C 
BRANCH  27  29
ATOM     28  O   UNL     1      36.754 -24.042 -10.518  0.00  0.00    -0.250 OA
ATOM     29  C   UNL     1      37.275 -23.448 -11.451  0.00  0.00    +0.314 C 
BRANCH  29  30
ATOM     30  O   UNL     1      37.443 -22.100 -11.470  0.00  0.00    -0.480 OA
ATOM     31  H   UNL     1      36.885 -21.551 -10.955  0.00  0.00    +0.295 HD
ENDBRANCH  29  30
ENDBRANCH  27  29
ENDBRANCH  26  27
ENDBRANCH  25  26
ENDBRANCH  22  25
ENDBRANCH   6  23
TORSDOF 9
ENDMDL
MODEL 6
REMARK VINA RESULT:     -10.4      3.683      6.356
REMARK  Name = 444394
REMARK  9 active torsions:
REMARK  status: ('A' for Active; 'I' for Inactive)
REMARK    1  A    between atoms: C_1  and  C_7
REMARK    2  A    between atoms: C_6  and  C_23
REMARK    3  A    between atoms: C_8  and  C_13
REMARK    4  A    between atoms: C_9  and  O_19
REMARK    5  A    between atoms: N_22  and  C_25
REMARK    6  A    between atoms: C_25  and  C_26
REMARK    7  A    between atoms: C_26  and  C_27
REMARK    8  A    between atoms: C_27  and  C_29
REMARK    9  A    between atoms: C_29  and  O_30
REMARK                            x       y       z     vdW  Elec       q    Type
REMARK                         _______ _______ _______ _____ _____    ______ ____
ROOT
ATOM      1  C   UNL     1      33.339 -13.686 -23.094  0.00  0.00    -0.020 C 
ATOM      2  C   UNL     1      33.511 -14.507 -24.205  0.00  0.00    -0.004 C 
ATOM      3  C   UNL     1      33.678 -14.139 -21.823  0.00  0.00    -0.004 C 
ATOM      4  C   UNL     1      34.029 -15.791 -24.043  0.00  0.00    +0.004 C 
ATOM      5  C   UNL     1      34.195 -15.424 -21.660  0.00  0.00    +0.004 C 
ATOM      6  C   UNL     1      34.371 -16.250 -22.770  0.00  0.00    +0.053 C 
ENDROOT
BRANCH   1   7
ATOM      7  C   UNL     1      32.775 -12.284 -23.272  0.00  0.00    +0.049 C 
ATOM      8  C   UNL     1      32.471  -9.437 -22.465  0.00  0.00    +0.025 C 
ATOM      9  C   UNL     1      33.874 -11.244 -23.573  0.00  0.00    +0.115 C 
ATOM     10  C   UNL     1      33.291  -9.832 -23.702  0.00  0.00    +0.034 C 
ATOM     11  C   UNL     1      31.938 -11.875 -22.047  0.00  0.00    +0.007 C 
ATOM     12  C   UNL     1      31.362 -10.468 -22.198  0.00  0.00    +0.005 C 
BRANCH   8  13
ATOM     13  C   UNL     1      31.915  -8.029 -22.582  0.00  0.00    -0.022 C 
ATOM     14  C   UNL     1      31.950  -7.176 -21.480  0.00  0.00    -0.004 C 
ATOM     15  C   UNL     1      31.371  -7.595 -23.789  0.00  0.00    -0.004 C 
ATOM     16  C   UNL     1      31.437  -5.883 -21.587  0.00  0.00    -0.000 C 
ATOM     17  C   UNL     1      30.860  -6.302 -23.896  0.00  0.00    -0.000 C 
ATOM     18  C   UNL     1      30.893  -5.446 -22.795  0.00  0.00    -0.000 C 
ENDBRANCH   8  13
BRANCH   9  19
ATOM     19  O   UNL     1      34.509 -11.582 -24.807  0.00  0.00    -0.384 OA
ATOM     20  H   UNL     1      33.994 -11.221 -25.545  0.00  0.00    +0.210 HD
ENDBRANCH   9  19
ENDBRANCH   1   7
BRANCH   6  23
ATOM     21  O   UNL     1      35.210 -18.280 -23.591  0.00  0.00    -0.270 OA
ATOM     22  N   UNL     1      35.086 -18.043 -21.287  0.00  0.00    -0.301 N 
ATOM     23  C   UNL     1      34.909 -17.591 -22.600  0.00  0.00    +0.246 C 
ATOM     24  H   UNL     1      34.825 -17.444 -20.550  0.00  0.00    +0.150 HD
BRANCH  22  25
ATOM     25  C   UNL     1      35.630 -19.340 -20.956  0.00  0.00    +0.090 C 
BRANCH  25  26
ATOM     26  C   UNL     1      34.548 -20.387 -20.692  0.00  0.00    +0.033 C 
BRANCH  26  27
ATOM     27  C   UNL     1      34.850 -21.314 -19.512  0.00  0.00    +0.111 C 
BRANCH  27  29
ATOM     28  O   UNL     1      32.619 -21.994 -18.810  0.00  0.00    -0.250 OA
ATOM     29  C   UNL     1      33.732 -22.291 -19.219  0.00  0.00    +0.314 C 
BRANCH  29  30
ATOM     30  O   UNL     1      34.105 -23.569 -19.491  0.00  0.00    -0.480 OA
ATOM     31  H   UNL     1      35.013 -23.800 -19.499  0.00  0.00    +0.295 HD
ENDBRANCH  29  30
ENDBRANCH  27  29
ENDBRANCH  26  27
ENDBRANCH  25  26
ENDBRANCH  22  25
ENDBRANCH   6  23
TORSDOF 9
ENDMDL
MODEL 7
REMARK VINA RESULT:     -10.3      3.597      6.115
REMARK  Name = 444394
REMARK  9 active torsions:
REMARK  status: ('A' for Active; 'I' for Inactive)
REMARK    1  A    between atoms: C_1  and  C_7
REMARK    2  A    between atoms: C_6  and  C_23
REMARK    3  A    between atoms: C_8  and  C_13
REMARK    4  A    between atoms: C_9  and  O_19
REMARK    5  A    between atoms: N_22  and  C_25
REMARK    6  A    between atoms: C_25  and  C_26
REMARK    7  A    between atoms: C_26  and  C_27
REMARK    8  A    between atoms: C_27  and  C_29
REMARK    9  A    between atoms: C_29  and  O_30
REMARK                            x       y       z     vdW  Elec       q    Type
REMARK                         _______ _______ _______ _____ _____    ______ ____
ROOT
ATOM      1  C   UNL     1      33.358 -13.867 -23.041  0.00  0.00    -0.020 C 
ATOM      2  C   UNL     1      33.687 -14.307 -21.763  0.00  0.00    -0.004 C 
ATOM      3  C   UNL     1      33.550 -14.695 -24.144  0.00  0.00    -0.004 C 
ATOM      4  C   UNL     1      34.211 -15.586 -21.584  0.00  0.00    +0.004 C 
ATOM      5  C   UNL     1      34.075 -15.974 -23.965  0.00  0.00    +0.004 C 
ATOM      6  C   UNL     1      34.406 -16.421 -22.686  0.00  0.00    +0.053 C 
ENDROOT
BRANCH   1   7
ATOM      7  C   UNL     1      32.784 -12.471 -23.235  0.00  0.00    +0.049 C 
ATOM      8  C   UNL     1      32.490  -9.608 -22.486  0.00  0.00    +0.025 C 
ATOM      9  C   UNL     1      33.868 -11.434 -23.591  0.00  0.00    +0.115 C 
ATOM     10  C   UNL     1      33.276 -10.028 -23.736  0.00  0.00    +0.034 C 
ATOM     11  C   UNL     1      31.980 -12.037 -21.997  0.00  0.00    +0.007 C 
ATOM     12  C   UNL     1      31.393 -10.636 -22.164  0.00  0.00    +0.005 C 
BRANCH   8  13
ATOM     13  C   UNL     1      31.925  -8.205 -22.619  0.00  0.00    -0.022 C 
ATOM     14  C   UNL     1      31.412  -7.776 -23.842  0.00  0.00    -0.004 C 
ATOM     15  C   UNL     1      31.922  -7.351 -21.518  0.00  0.00    -0.004 C 
ATOM     16  C   UNL     1      30.894  -6.487 -23.965  0.00  0.00    -0.000 C 
ATOM     17  C   UNL     1      31.404  -6.062 -21.641  0.00  0.00    -0.000 C 
ATOM     18  C   UNL     1      30.890  -5.629 -22.863  0.00  0.00    -0.000 C 
ENDBRANCH   8  13
BRANCH   9  19
ATOM     19  O   UNL     1      34.470 -11.799 -24.835  0.00  0.00    -0.384 OA
ATOM     20  H   UNL     1      34.151 -11.207 -25.534  0.00  0.00    +0.210 HD
ENDBRANCH   9  19
ENDBRANCH   1   7
BRANCH   6  23
ATOM     21  O   UNL     1      35.442 -18.376 -23.461  0.00  0.00    -0.270 OA
ATOM     22  N   UNL     1      34.928 -18.278 -21.202  0.00  0.00    -0.301 N 
ATOM     23  C   UNL     1      34.955 -17.754 -22.500  0.00  0.00    +0.246 C 
ATOM     24  H   UNL     1      34.527 -17.731 -20.488  0.00  0.00    +0.150 HD
BRANCH  22  25
ATOM     25  C   UNL     1      35.455 -19.577 -20.854  0.00  0.00    +0.090 C 
BRANCH  25  26
ATOM     26  C   UNL     1      34.389 -20.520 -20.296  0.00  0.00    +0.033 C 
BRANCH  26  27
ATOM     27  C   UNL     1      34.951 -21.682 -19.474  0.00  0.00    +0.111 C 
BRANCH  27  29
ATOM     28  O   UNL     1      34.086 -23.390 -17.967  0.00  0.00    -0.250 OA
ATOM     29  C   UNL     1      33.884 -22.463 -18.738  0.00  0.00    +0.314 C 
BRANCH  29  30
ATOM     30  O   UNL     1      32.641 -21.991 -19.018  0.00  0.00    -0.480 OA
ATOM     31  H   UNL     1      31.927 -22.180 -18.443  0.00  0.00    +0.295 HD
ENDBRANCH  29  30
ENDBRANCH  27  29
ENDBRANCH  26  27
ENDBRANCH  25  26
ENDBRANCH  22  25
ENDBRANCH   6  23
TORSDOF 9
ENDMDL
MODEL 8
REMARK VINA RESULT:     -10.0      2.816     11.053
REMARK  Name = 444394
REMARK  9 active torsions:
REMARK  status: ('A' for Active; 'I' for Inactive)
REMARK    1  A    between atoms: C_1  and  C_7
REMARK    2  A    between atoms: C_6  and  C_23
REMARK    3  A    between atoms: C_8  and  C_13
REMARK    4  A    between atoms: C_9  and  O_19
REMARK    5  A    between atoms: N_22  and  C_25
REMARK    6  A    between atoms: C_25  and  C_26
REMARK    7  A    between atoms: C_26  and  C_27
REMARK    8  A    between atoms: C_27  and  C_29
REMARK    9  A    between atoms: C_29  and  O_30
REMARK                            x       y       z     vdW  Elec       q    Type
REMARK                         _______ _______ _______ _____ _____    ______ ____
ROOT
ATOM      1  C   UNL     1      35.730 -20.942 -19.553  0.00  0.00    -0.020 C 
ATOM      2  C   UNL     1      36.788 -20.211 -20.083  0.00  0.00    -0.004 C 
ATOM      3  C   UNL     1      34.436 -20.762 -20.031  0.00  0.00    -0.004 C 
ATOM      4  C   UNL     1      36.550 -19.290 -21.103  0.00  0.00    +0.004 C 
ATOM      5  C   UNL     1      34.198 -19.841 -21.051  0.00  0.00    +0.004 C 
ATOM      6  C   UNL     1      35.254 -19.105 -21.588  0.00  0.00    +0.053 C 
ENDROOT
BRANCH   1   7
ATOM      7  C   UNL     1      35.991 -21.948 -18.441  0.00  0.00    +0.049 C 
ATOM      8  C   UNL     1      35.905 -22.828 -15.601  0.00  0.00    +0.025 C 
ATOM      9  C   UNL     1      34.687 -22.469 -17.802  0.00  0.00    +0.115 C 
ATOM     10  C   UNL     1      34.973 -23.444 -16.654  0.00  0.00    +0.034 C 
ATOM     11  C   UNL     1      36.935 -21.354 -17.380  0.00  0.00    +0.007 C 
ATOM     12  C   UNL     1      37.212 -22.342 -16.249  0.00  0.00    +0.005 C 
BRANCH   8  13
ATOM     13  C   UNL     1      36.168 -23.784 -14.451  0.00  0.00    -0.022 C 
ATOM     14  C   UNL     1      35.768 -23.445 -13.160  0.00  0.00    -0.004 C 
ATOM     15  C   UNL     1      36.811 -24.998 -14.691  0.00  0.00    -0.004 C 
ATOM     16  C   UNL     1      36.011 -24.323 -12.104  0.00  0.00    -0.000 C 
ATOM     17  C   UNL     1      37.053 -25.876 -13.635  0.00  0.00    -0.000 C 
ATOM     18  C   UNL     1      36.654 -25.538 -12.341  0.00  0.00    -0.000 C 
ENDBRANCH   8  13
BRANCH   9  19
ATOM     19  O   UNL     1      33.925 -23.155 -18.795  0.00  0.00    -0.384 OA
ATOM     20  H   UNL     1      32.995 -23.191 -18.522  0.00  0.00    +0.210 HD
ENDBRANCH   9  19
ENDBRANCH   1   7
BRANCH   6  23
ATOM     21  O   UNL     1      34.578 -18.521 -23.756  0.00  0.00    -0.270 OA
ATOM     22  N   UNL     1      35.245 -16.796 -22.356  0.00  0.00    -0.301 N 
ATOM     23  C   UNL     1      35.005 -18.143 -22.650  0.00  0.00    +0.246 C 
ATOM     24  H   UNL     1      35.583 -16.568 -21.460  0.00  0.00    +0.150 HD
BRANCH  22  25
ATOM     25  C   UNL     1      35.024 -15.722 -23.298  0.00  0.00    +0.090 C 
BRANCH  25  26
ATOM     26  C   UNL     1      33.547 -15.351 -23.437  0.00  0.00    +0.033 C 
BRANCH  26  27
ATOM     27  C   UNL     1      33.261 -14.329 -24.540  0.00  0.00    +0.111 C 
BRANCH  27  29
ATOM     28  O   UNL     1      33.568 -15.993 -26.292  0.00  0.00    -0.250 OA
ATOM     29  C   UNL     1      33.046 -14.961 -25.898  0.00  0.00    +0.314 C 
BRANCH  29  30
ATOM     30  O   UNL     1      32.164 -14.244 -26.644  0.00  0.00    -0.480 OA
ATOM     31  H   UNL     1      31.483 -13.757 -26.225  0.00  0.00    +0.295 HD
ENDBRANCH  29  30
ENDBRANCH  27  29
ENDBRANCH  26  27
ENDBRANCH  25  26
ENDBRANCH  22  25
ENDBRANCH   6  23
TORSDOF 9
ENDMDL
MODEL 9
REMARK VINA RESULT:     -10.0      5.299      8.921
REMARK  Name = 444394
REMARK  9 active torsions:
REMARK  status: ('A' for Active; 'I' for Inactive)
REMARK    1  A    between atoms: C_1  and  C_7
REMARK    2  A    between atoms: C_6  and  C_23
REMARK    3  A    between atoms: C_8  and  C_13
REMARK    4  A    between atoms: C_9  and  O_19
REMARK    5  A    between atoms: N_22  and  C_25
REMARK    6  A    between atoms: C_25  and  C_26
REMARK    7  A    between atoms: C_26  and  C_27
REMARK    8  A    between atoms: C_27  and  C_29
REMARK    9  A    between atoms: C_29  and  O_30
REMARK                            x       y       z     vdW  Elec       q    Type
REMARK                         _______ _______ _______ _____ _____    ______ ____
ROOT
ATOM      1  C   UNL     1      32.682 -11.186 -23.143  0.00  0.00    -0.020 C 
ATOM      2  C   UNL     1      33.535 -12.084 -23.777  0.00  0.00    -0.004 C 
ATOM      3  C   UNL     1      31.965 -11.571 -22.014  0.00  0.00    -0.004 C 
ATOM      4  C   UNL     1      33.673 -13.379 -23.278  0.00  0.00    +0.004 C 
ATOM      5  C   UNL     1      32.103 -12.865 -21.515  0.00  0.00    +0.004 C 
ATOM      6  C   UNL     1      32.956 -13.770 -22.146  0.00  0.00    +0.053 C 
ENDROOT
BRANCH   1   7
ATOM      7  C   UNL     1      32.534  -9.773 -23.688  0.00  0.00    +0.049 C 
ATOM      8  C   UNL     1      32.181  -6.838 -23.358  0.00  0.00    +0.025 C 
ATOM      9  C   UNL     1      33.714  -8.863 -23.291  0.00  0.00    +0.115 C 
ATOM     10  C   UNL     1      33.523  -7.434 -23.809  0.00  0.00    +0.034 C 
ATOM     11  C   UNL     1      31.188  -9.163 -23.257  0.00  0.00    +0.007 C 
ATOM     12  C   UNL     1      31.014  -7.741 -23.788  0.00  0.00    +0.005 C 
BRANCH   8  13
ATOM     13  C   UNL     1      32.002  -5.413 -23.850  0.00  0.00    -0.022 C 
ATOM     14  C   UNL     1      31.443  -4.453 -23.008  0.00  0.00    -0.004 C 
ATOM     15  C   UNL     1      32.396  -5.070 -25.142  0.00  0.00    -0.004 C 
ATOM     16  C   UNL     1      31.277  -3.144 -23.461  0.00  0.00    -0.000 C 
ATOM     17  C   UNL     1      32.230  -3.761 -25.594  0.00  0.00    -0.000 C 
ATOM     18  C   UNL     1      31.671  -2.798 -24.754  0.00  0.00    -0.000 C 
ENDBRANCH   8  13
BRANCH   9  19
ATOM     19  O   UNL     1      34.916  -9.389 -23.856  0.00  0.00    -0.384 OA
ATOM     20  H   UNL     1      35.442  -9.813 -23.160  0.00  0.00    +0.210 HD
ENDBRANCH   9  19
ENDBRANCH   1   7
BRANCH   6  23
ATOM     21  O   UNL     1      32.116 -15.722 -21.155  0.00  0.00    -0.270 OA
ATOM     22  N   UNL     1      34.369 -15.702 -21.705  0.00  0.00    -0.301 N 
ATOM     23  C   UNL     1      33.098 -15.121 -21.626  0.00  0.00    +0.246 C 
ATOM     24  H   UNL     1      35.102 -15.168 -22.090  0.00  0.00    +0.150 HD
BRANCH  22  25
ATOM     25  C   UNL     1      34.663 -17.043 -21.253  0.00  0.00    +0.090 C 
BRANCH  25  26
ATOM     26  C   UNL     1      35.542 -17.819 -22.233  0.00  0.00    +0.033 C 
BRANCH  26  27
ATOM     27  C   UNL     1      34.773 -18.461 -23.389  0.00  0.00    +0.111 C 
BRANCH  27  29
ATOM     28  O   UNL     1      33.998 -17.789 -25.599  0.00  0.00    -0.250 OA
ATOM     29  C   UNL     1      34.695 -17.580 -24.617  0.00  0.00    +0.314 C 
BRANCH  29  30
ATOM     30  O   UNL     1      35.491 -16.485 -24.494  0.00  0.00    -0.480 OA
ATOM     31  H   UNL     1      36.409 -16.589 -24.338  0.00  0.00    +0.295 HD
ENDBRANCH  29  30
ENDBRANCH  27  29
ENDBRANCH  26  27
ENDBRANCH  25  26
ENDBRANCH  22  25
ENDBRANCH   6  23
TORSDOF 9
ENDMDL
