MODEL 1
REMARK VINA RESULT:      -8.2      0.000      0.000
REMARK  Name = 5287841
REMARK  5 active torsions:
REMARK  status: ('A' for Active; 'I' for Inactive)
REMARK    1  A    between atoms: C2*_2  and  O2*_15
REMARK    2  A    between atoms: C3*_3  and  O3*_17
REMARK    3  A    between atoms: C1*_4  and  N_7
REMARK    4  A    between atoms: C4*_5  and  C5*_19
REMARK    5  A    between atoms: C5*_19  and  O5*_20
REMARK                            x       y       z     vdW  Elec       q    Type
REMARK                         _______ _______ _______ _____ _____    ______ ____
ROOT
ATOM      1  O4* UNL     1      35.205 -17.039 -20.810  0.00  0.00    -0.333 OA
ATOM      2  C2* UNL     1      34.563 -18.018 -22.870  0.00  0.00    +0.187 C 
ATOM      3  C3* UNL     1      34.551 -16.512 -23.026  0.00  0.00    +0.171 C 
ATOM      4  C1* UNL     1      35.418 -18.201 -21.629  0.00  0.00    +0.229 C 
ATOM      5  C4* UNL     1      34.494 -16.042 -21.578  0.00  0.00    +0.175 C 
ENDROOT
BRANCH   4   7
ATOM      6  O   UNL     1      37.291 -19.757 -20.495  0.00  0.00    -0.252 OA
ATOM      7  N   UNL     1      35.056 -19.370 -20.880  0.00  0.00    -0.217 N 
ATOM      8  N   UNL     1      35.934 -21.263 -19.588  0.00  0.00    -0.267 N 
ATOM      9  C   UNL     1      36.116 -20.121 -20.326  0.00  0.00    +0.313 C 
ATOM     10  C   UNL     1      33.690 -19.651 -20.775  0.00  0.00    +0.071 C 
ATOM     11  C   UNL     1      33.026 -20.634 -20.169  0.00  0.00    +0.018 C 
ATOM     12  C   UNL     1      34.843 -21.974 -19.186  0.00  0.00    +0.065 C 
ATOM     13  C   UNL     1      33.559 -21.726 -19.423  0.00  0.00    +0.017 C 
ATOM     14  H   UNL     1      36.782 -21.657 -19.279  0.00  0.00    +0.156 HD
ENDBRANCH   4   7
BRANCH   2  15
ATOM     15  O2* UNL     1      35.101 -18.670 -24.002  0.00  0.00    -0.378 OA
ATOM     16  H2* UNL     1      34.545 -19.432 -24.232  0.00  0.00    +0.211 HD
ENDBRANCH   2  15
BRANCH   3  17
ATOM     17  O3* UNL     1      35.784 -16.063 -23.586  0.00  0.00    -0.379 OA
ATOM     18  H3* UNL     1      36.208 -15.439 -22.976  0.00  0.00    +0.211 HD
ENDBRANCH   3  17
BRANCH   5  19
ATOM     19  C5* UNL     1      33.076 -15.946 -21.032  0.00  0.00    +0.169 C 
BRANCH  19  20
ATOM     20  O5* UNL     1      32.342 -15.036 -21.833  0.00  0.00    -0.379 OA
ATOM     21  H5* UNL     1      31.552 -14.746 -21.353  0.00  0.00    +0.211 HD
ENDBRANCH  19  20
ENDBRANCH   5  19
TORSDOF 5
ENDMDL
MODEL 2
REMARK VINA RESULT:      -7.4      6.892      8.935
REMARK  Name = 5287841
REMARK  5 active torsions:
REMARK  status: ('A' for Active; 'I' for Inactive)
REMARK    1  A    between atoms: C2*_2  and  O2*_15
REMARK    2  A    between atoms: C3*_3  and  O3*_17
REMARK    3  A    between atoms: C1*_4  and  N_7
REMARK    4  A    between atoms: C4*_5  and  C5*_19
REMARK    5  A    between atoms: C5*_19  and  O5*_20
REMARK                            x       y       z     vdW  Elec       q    Type
REMARK                         _______ _______ _______ _____ _____    ______ ____
ROOT
ATOM      1  O4* UNL     1      35.200 -24.918 -14.541  0.00  0.00    -0.333 OA
ATOM      2  C2* UNL     1      35.942 -22.810 -15.329  0.00  0.00    +0.187 C 
ATOM      3  C3* UNL     1      37.074 -23.468 -14.569  0.00  0.00    +0.171 C 
ATOM      4  C1* UNL     1      35.032 -23.990 -15.625  0.00  0.00    +0.229 C 
ATOM      5  C4* UNL     1      36.338 -24.517 -13.746  0.00  0.00    +0.175 C 
ENDROOT
BRANCH   4   7
ATOM      6  O   UNL     1      33.889 -23.398 -17.982  0.00  0.00    -0.252 OA
ATOM      7  N   UNL     1      33.651 -23.611 -15.704  0.00  0.00    -0.217 N 
ATOM      8  N   UNL     1      31.850 -22.940 -17.231  0.00  0.00    -0.267 N 
ATOM      9  C   UNL     1      33.146 -23.319 -16.991  0.00  0.00    +0.313 C 
ATOM     10  C   UNL     1      32.941 -23.568 -14.500  0.00  0.00    +0.071 C 
ATOM     11  C   UNL     1      31.675 -23.262 -14.221  0.00  0.00    +0.018 C 
ATOM     12  C   UNL     1      30.754 -22.741 -16.445  0.00  0.00    +0.065 C 
ATOM     13  C   UNL     1      30.644 -22.873 -15.127  0.00  0.00    +0.017 C 
ATOM     14  H   UNL     1      31.671 -22.777 -18.185  0.00  0.00    +0.156 HD
ENDBRANCH   4   7
BRANCH   2  15
ATOM     15  O2* UNL     1      36.389 -22.161 -16.501  0.00  0.00    -0.378 OA
ATOM     16  H2* UNL     1      36.604 -22.823 -17.176  0.00  0.00    +0.211 HD
ENDBRANCH   2  15
BRANCH   3  17
ATOM     17  O3* UNL     1      37.945 -24.149 -15.470  0.00  0.00    -0.379 OA
ATOM     18  H3* UNL     1      38.200 -23.550 -16.189  0.00  0.00    +0.211 HD
ENDBRANCH   3  17
BRANCH   5  19
ATOM     19  C5* UNL     1      35.822 -23.986 -12.415  0.00  0.00    +0.169 C 
BRANCH  19  20
ATOM     20  O5* UNL     1      34.903 -24.921 -11.878  0.00  0.00    -0.379 OA
ATOM     21  H5* UNL     1      34.935 -24.887 -10.910  0.00  0.00    +0.211 HD
ENDBRANCH  19  20
ENDBRANCH   5  19
TORSDOF 5
ENDMDL
MODEL 3
REMARK VINA RESULT:      -7.3      7.539      9.464
REMARK  Name = 5287841
REMARK  5 active torsions:
REMARK  status: ('A' for Active; 'I' for Inactive)
REMARK    1  A    between atoms: C2*_2  and  O2*_15
REMARK    2  A    between atoms: C3*_3  and  O3*_17
REMARK    3  A    between atoms: C1*_4  and  N_7
REMARK    4  A    between atoms: C4*_5  and  C5*_19
REMARK    5  A    between atoms: C5*_19  and  O5*_20
REMARK                            x       y       z     vdW  Elec       q    Type
REMARK                         _______ _______ _______ _____ _____    ______ ____
ROOT
ATOM      1  O4* UNL     1      35.860 -23.349 -13.882  0.00  0.00    -0.333 OA
ATOM      2  C2* UNL     1      35.987 -25.371 -15.111  0.00  0.00    +0.187 C 
ATOM      3  C3* UNL     1      37.369 -25.029 -14.598  0.00  0.00    +0.171 C 
ATOM      4  C1* UNL     1      35.099 -24.521 -14.219  0.00  0.00    +0.229 C 
ATOM      5  C4* UNL     1      37.235 -23.545 -14.281  0.00  0.00    +0.175 C 
ENDROOT
BRANCH   4   7
ATOM      6  O   UNL     1      32.719 -24.744 -12.995  0.00  0.00    -0.252 OA
ATOM      7  N   UNL     1      33.888 -24.118 -14.874  0.00  0.00    -0.217 N 
ATOM      8  N   UNL     1      31.452 -23.941 -14.633  0.00  0.00    -0.267 N 
ATOM      9  C   UNL     1      32.689 -24.277 -14.145  0.00  0.00    +0.313 C 
ATOM     10  C   UNL     1      34.015 -23.607 -16.171  0.00  0.00    +0.071 C 
ATOM     11  C   UNL     1      33.115 -23.154 -17.042  0.00  0.00    +0.018 C 
ATOM     12  C   UNL     1      31.001 -23.417 -15.807  0.00  0.00    +0.065 C 
ATOM     13  C   UNL     1      31.702 -23.062 -16.880  0.00  0.00    +0.017 C 
ATOM     14  H   UNL     1      30.728 -24.118 -13.990  0.00  0.00    +0.156 HD
ENDBRANCH   4   7
BRANCH   2  15
ATOM     15  O2* UNL     1      35.701 -26.750 -15.007  0.00  0.00    -0.378 OA
ATOM     16  H2* UNL     1      34.820 -26.927 -15.373  0.00  0.00    +0.211 HD
ENDBRANCH   2  15
BRANCH   3  17
ATOM     17  O3* UNL     1      37.627 -25.717 -13.374  0.00  0.00    -0.379 OA
ATOM     18  H3* UNL     1      37.943 -25.086 -12.708  0.00  0.00    +0.211 HD
ENDBRANCH   3  17
BRANCH   5  19
ATOM     19  C5* UNL     1      37.514 -22.647 -15.478  0.00  0.00    +0.169 C 
BRANCH  19  20
ATOM     20  O5* UNL     1      38.620 -23.172 -16.191  0.00  0.00    -0.379 OA
ATOM     21  H5* UNL     1      38.926 -22.520 -16.841  0.00  0.00    +0.211 HD
ENDBRANCH  19  20
ENDBRANCH   5  19
TORSDOF 5
ENDMDL
MODEL 4
REMARK VINA RESULT:      -7.3      7.429      9.753
REMARK  Name = 5287841
REMARK  5 active torsions:
REMARK  status: ('A' for Active; 'I' for Inactive)
REMARK    1  A    between atoms: C2*_2  and  O2*_15
REMARK    2  A    between atoms: C3*_3  and  O3*_17
REMARK    3  A    between atoms: C1*_4  and  N_7
REMARK    4  A    between atoms: C4*_5  and  C5*_19
REMARK    5  A    between atoms: C5*_19  and  O5*_20
REMARK                            x       y       z     vdW  Elec       q    Type
REMARK                         _______ _______ _______ _____ _____    ______ ____
ROOT
ATOM      1  O4* UNL     1      35.893 -24.541 -15.765  0.00  0.00    -0.333 OA
ATOM      2  C2* UNL     1      35.704 -24.174 -13.431  0.00  0.00    +0.187 C 
ATOM      3  C3* UNL     1      37.125 -24.597 -13.741  0.00  0.00    +0.171 C 
ATOM      4  C1* UNL     1      35.200 -23.738 -14.796  0.00  0.00    +0.229 C 
ATOM      5  C4* UNL     1      36.973 -25.245 -15.111  0.00  0.00    +0.175 C 
ENDROOT
BRANCH   4   7
ATOM      6  O   UNL     1      33.893 -22.816 -16.954  0.00  0.00    -0.252 OA
ATOM      7  N   UNL     1      33.788 -23.939 -14.949  0.00  0.00    -0.217 N 
ATOM      8  N   UNL     1      31.859 -23.522 -16.409  0.00  0.00    -0.267 N 
ATOM      9  C   UNL     1      33.196 -23.414 -16.119  0.00  0.00    +0.313 C 
ATOM     10  C   UNL     1      33.137 -24.634 -13.924  0.00  0.00    +0.071 C 
ATOM     11  C   UNL     1      31.863 -24.983 -13.752  0.00  0.00    +0.018 C 
ATOM     12  C   UNL     1      30.790 -24.083 -15.778  0.00  0.00    +0.065 C 
ATOM     13  C   UNL     1      30.758 -24.729 -14.616  0.00  0.00    +0.017 C 
ATOM     14  H   UNL     1      31.619 -23.101 -17.265  0.00  0.00    +0.156 HD
ENDBRANCH   4   7
BRANCH   2  15
ATOM     15  O2* UNL     1      35.650 -23.136 -12.474  0.00  0.00    -0.378 OA
ATOM     16  H2* UNL     1      36.548 -22.936 -12.163  0.00  0.00    +0.211 HD
ENDBRANCH   2  15
BRANCH   3  17
ATOM     17  O3* UNL     1      37.962 -23.451 -13.887  0.00  0.00    -0.379 OA
ATOM     18  H3* UNL     1      38.892 -23.727 -13.886  0.00  0.00    +0.211 HD
ENDBRANCH   3  17
BRANCH   5  19
ATOM     19  C5* UNL     1      36.603 -26.720 -15.042  0.00  0.00    +0.169 C 
BRANCH  19  20
ATOM     20  O5* UNL     1      36.838 -27.307 -16.310  0.00  0.00    -0.379 OA
ATOM     21  H5* UNL     1      36.036 -27.238 -16.852  0.00  0.00    +0.211 HD
ENDBRANCH  19  20
ENDBRANCH   5  19
TORSDOF 5
ENDMDL
MODEL 5
REMARK VINA RESULT:      -7.2      3.156      4.252
REMARK  Name = 5287841
REMARK  5 active torsions:
REMARK  status: ('A' for Active; 'I' for Inactive)
REMARK    1  A    between atoms: C2*_2  and  O2*_15
REMARK    2  A    between atoms: C3*_3  and  O3*_17
REMARK    3  A    between atoms: C1*_4  and  N_7
REMARK    4  A    between atoms: C4*_5  and  C5*_19
REMARK    5  A    between atoms: C5*_19  and  O5*_20
REMARK                            x       y       z     vdW  Elec       q    Type
REMARK                         _______ _______ _______ _____ _____    ______ ____
ROOT
ATOM      1  O4* UNL     1      34.482 -14.089 -22.839  0.00  0.00    -0.333 OA
ATOM      2  C2* UNL     1      33.113 -14.663 -24.686  0.00  0.00    +0.187 C 
ATOM      3  C3* UNL     1      32.907 -13.197 -24.368  0.00  0.00    +0.171 C 
ATOM      4  C1* UNL     1      34.427 -14.958 -23.983  0.00  0.00    +0.229 C 
ATOM      5  C4* UNL     1      33.430 -13.104 -22.941  0.00  0.00    +0.175 C 
ENDROOT
BRANCH   4   7
ATOM      6  O   UNL     1      34.952 -16.947 -25.709  0.00  0.00    -0.252 OA
ATOM      7  N   UNL     1      34.518 -16.319 -23.539  0.00  0.00    -0.217 N 
ATOM      8  N   UNL     1      34.913 -18.631 -24.262  0.00  0.00    -0.267 N 
ATOM      9  C   UNL     1      34.797 -17.290 -24.526  0.00  0.00    +0.313 C 
ATOM     10  C   UNL     1      34.322 -16.549 -22.173  0.00  0.00    +0.071 C 
ATOM     11  C   UNL     1      34.335 -17.665 -21.447  0.00  0.00    +0.018 C 
ATOM     12  C   UNL     1      34.818 -19.392 -23.136  0.00  0.00    +0.065 C 
ATOM     13  C   UNL     1      34.566 -19.001 -21.890  0.00  0.00    +0.017 C 
ATOM     14  H   UNL     1      35.111 -19.163 -25.067  0.00  0.00    +0.156 HD
ENDBRANCH   4   7
BRANCH   2  15
ATOM     15  O2* UNL     1      33.174 -14.907 -26.076  0.00  0.00    -0.378 OA
ATOM     16  H2* UNL     1      32.557 -14.315 -26.536  0.00  0.00    +0.211 HD
ENDBRANCH   2  15
BRANCH   3  17
ATOM     17  O3* UNL     1      33.743 -12.389 -25.195  0.00  0.00    -0.379 OA
ATOM     18  H3* UNL     1      34.661 -12.693 -25.123  0.00  0.00    +0.211 HD
ENDBRANCH   3  17
BRANCH   5  19
ATOM     19  C5* UNL     1      32.376 -13.427 -21.891  0.00  0.00    +0.169 C 
BRANCH  19  20
ATOM     20  O5* UNL     1      31.370 -12.429 -21.936  0.00  0.00    -0.379 OA
ATOM     21  H5* UNL     1      31.635 -11.729 -22.553  0.00  0.00    +0.211 HD
ENDBRANCH  19  20
ENDBRANCH   5  19
TORSDOF 5
ENDMDL
MODEL 6
REMARK VINA RESULT:      -7.0      6.470      9.973
REMARK  Name = 5287841
REMARK  5 active torsions:
REMARK  status: ('A' for Active; 'I' for Inactive)
REMARK    1  A    between atoms: C2*_2  and  O2*_15
REMARK    2  A    between atoms: C3*_3  and  O3*_17
REMARK    3  A    between atoms: C1*_4  and  N_7
REMARK    4  A    between atoms: C4*_5  and  C5*_19
REMARK    5  A    between atoms: C5*_19  and  O5*_20
REMARK                            x       y       z     vdW  Elec       q    Type
REMARK                         _______ _______ _______ _____ _____    ______ ____
ROOT
ATOM      1  O4* UNL     1      37.618 -24.371 -14.061  0.00  0.00    -0.333 OA
ATOM      2  C2* UNL     1      35.545 -24.259 -12.920  0.00  0.00    +0.187 C 
ATOM      3  C3* UNL     1      36.506 -25.088 -12.096  0.00  0.00    +0.171 C 
ATOM      4  C1* UNL     1      36.487 -23.511 -13.848  0.00  0.00    +0.229 C 
ATOM      5  C4* UNL     1      37.561 -25.470 -13.126  0.00  0.00    +0.175 C 
ENDROOT
BRANCH   4   7
ATOM      6  O   UNL     1      37.833 -22.154 -15.734  0.00  0.00    -0.252 OA
ATOM      7  N   UNL     1      35.885 -23.209 -15.114  0.00  0.00    -0.217 N 
ATOM      8  N   UNL     1      36.244 -22.125 -17.287  0.00  0.00    -0.267 N 
ATOM      9  C   UNL     1      36.676 -22.490 -16.037  0.00  0.00    +0.313 C 
ATOM     10  C   UNL     1      34.574 -23.656 -15.310  0.00  0.00    +0.071 C 
ATOM     11  C   UNL     1      33.739 -23.548 -16.342  0.00  0.00    +0.018 C 
ATOM     12  C   UNL     1      35.084 -22.293 -17.980  0.00  0.00    +0.065 C 
ATOM     13  C   UNL     1      33.970 -22.910 -17.597  0.00  0.00    +0.017 C 
ATOM     14  H   UNL     1      36.926 -21.630 -17.796  0.00  0.00    +0.156 HD
ENDBRANCH   4   7
BRANCH   2  15
ATOM     15  O2* UNL     1      34.765 -23.392 -12.123  0.00  0.00    -0.378 OA
ATOM     16  H2* UNL     1      35.172 -22.511 -12.108  0.00  0.00    +0.211 HD
ENDBRANCH   2  15
BRANCH   3  17
ATOM     17  O3* UNL     1      37.134 -24.278 -11.103  0.00  0.00    -0.379 OA
ATOM     18  H3* UNL     1      36.906 -24.611 -10.221  0.00  0.00    +0.211 HD
ENDBRANCH   3  17
BRANCH   5  19
ATOM     19  C5* UNL     1      37.216 -26.734 -13.901  0.00  0.00    +0.169 C 
BRANCH  19  20
ATOM     20  O5* UNL     1      38.336 -27.107 -14.684  0.00  0.00    -0.379 OA
ATOM     21  H5* UNL     1      39.143 -27.035 -14.150  0.00  0.00    +0.211 HD
ENDBRANCH  19  20
ENDBRANCH   5  19
TORSDOF 5
ENDMDL
MODEL 7
REMARK VINA RESULT:      -6.9      4.003      6.686
REMARK  Name = 5287841
REMARK  5 active torsions:
REMARK  status: ('A' for Active; 'I' for Inactive)
REMARK    1  A    between atoms: C2*_2  and  O2*_15
REMARK    2  A    between atoms: C3*_3  and  O3*_17
REMARK    3  A    between atoms: C1*_4  and  N_7
REMARK    4  A    between atoms: C4*_5  and  C5*_19
REMARK    5  A    between atoms: C5*_19  and  O5*_20
REMARK                            x       y       z     vdW  Elec       q    Type
REMARK                         _______ _______ _______ _____ _____    ______ ____
ROOT
ATOM      1  O4* UNL     1      32.604 -15.352 -22.466  0.00  0.00    -0.333 OA
ATOM      2  C2* UNL     1      34.932 -15.715 -22.714  0.00  0.00    +0.187 C 
ATOM      3  C3* UNL     1      34.506 -16.220 -21.351  0.00  0.00    +0.171 C 
ATOM      4  C1* UNL     1      33.607 -15.643 -23.453  0.00  0.00    +0.229 C 
ATOM      5  C4* UNL     1      33.176 -15.506 -21.148  0.00  0.00    +0.175 C 
ENDROOT
BRANCH   4   7
ATOM      6  O   UNL     1      33.208 -16.228 -26.044  0.00  0.00    -0.252 OA
ATOM      7  N   UNL     1      33.591 -14.612 -24.451  0.00  0.00    -0.217 N 
ATOM      8  N   UNL     1      33.334 -14.162 -26.850  0.00  0.00    -0.267 N 
ATOM      9  C   UNL     1      33.375 -15.025 -25.784  0.00  0.00    +0.313 C 
ATOM     10  C   UNL     1      33.792 -13.302 -24.005  0.00  0.00    +0.071 C 
ATOM     11  C   UNL     1      33.838 -12.138 -24.650  0.00  0.00    +0.018 C 
ATOM     12  C   UNL     1      33.466 -12.813 -26.989  0.00  0.00    +0.065 C 
ATOM     13  C   UNL     1      33.687 -11.900 -26.048  0.00  0.00    +0.017 C 
ATOM     14  H   UNL     1      33.173 -14.620 -27.706  0.00  0.00    +0.156 HD
ENDBRANCH   4   7
BRANCH   2  15
ATOM     15  O2* UNL     1      35.858 -16.578 -23.340  0.00  0.00    -0.378 OA
ATOM     16  H2* UNL     1      35.491 -16.889 -24.183  0.00  0.00    +0.211 HD
ENDBRANCH   2  15
BRANCH   3  17
ATOM     17  O3* UNL     1      34.248 -17.622 -21.402  0.00  0.00    -0.379 OA
ATOM     18  H3* UNL     1      35.039 -18.107 -21.115  0.00  0.00    +0.211 HD
ENDBRANCH   3  17
BRANCH   5  19
ATOM     19  C5* UNL     1      33.324 -14.122 -20.532  0.00  0.00    +0.169 C 
BRANCH  19  20
ATOM     20  O5* UNL     1      32.195 -13.343 -20.889  0.00  0.00    -0.379 OA
ATOM     21  H5* UNL     1      31.868 -12.870 -20.108  0.00  0.00    +0.211 HD
ENDBRANCH  19  20
ENDBRANCH   5  19
TORSDOF 5
ENDMDL
MODEL 8
REMARK VINA RESULT:      -6.9      7.820      9.979
REMARK  Name = 5287841
REMARK  5 active torsions:
REMARK  status: ('A' for Active; 'I' for Inactive)
REMARK    1  A    between atoms: C2*_2  and  O2*_15
REMARK    2  A    between atoms: C3*_3  and  O3*_17
REMARK    3  A    between atoms: C1*_4  and  N_7
REMARK    4  A    between atoms: C4*_5  and  C5*_19
REMARK    5  A    between atoms: C5*_19  and  O5*_20
REMARK                            x       y       z     vdW  Elec       q    Type
REMARK                         _______ _______ _______ _____ _____    ______ ____
ROOT
ATOM      1  O4* UNL     1      33.423  -7.979 -21.800  0.00  0.00    -0.333 OA
ATOM      2  C2* UNL     1      31.408  -7.933 -23.045  0.00  0.00    +0.187 C 
ATOM      3  C3* UNL     1      31.491  -6.671 -22.213  0.00  0.00    +0.171 C 
ATOM      4  C1* UNL     1      32.851  -8.407 -23.047  0.00  0.00    +0.229 C 
ATOM      5  C4* UNL     1      32.520  -7.053 -21.157  0.00  0.00    +0.175 C 
ENDROOT
BRANCH   4   7
ATOM      6  O   UNL     1      34.775  -9.553 -24.529  0.00  0.00    -0.252 OA
ATOM      7  N   UNL     1      32.959  -9.834 -23.145  0.00  0.00    -0.217 N 
ATOM      8  N   UNL     1      34.239 -11.674 -24.146  0.00  0.00    -0.267 N 
ATOM      9  C   UNL     1      34.005 -10.336 -23.950  0.00  0.00    +0.313 C 
ATOM     10  C   UNL     1      32.019 -10.586 -22.433  0.00  0.00    +0.071 C 
ATOM     11  C   UNL     1      31.837 -11.899 -22.309  0.00  0.00    +0.018 C 
ATOM     12  C   UNL     1      33.645 -12.819 -23.706  0.00  0.00    +0.065 C 
ATOM     13  C   UNL     1      32.594 -12.952 -22.903  0.00  0.00    +0.017 C 
ATOM     14  H   UNL     1      35.008 -11.844 -24.736  0.00  0.00    +0.156 HD
ENDBRANCH   4   7
BRANCH   2  15
ATOM     15  O2* UNL     1      30.915  -7.686 -24.346  0.00  0.00    -0.378 OA
ATOM     16  H2* UNL     1      31.241  -6.826 -24.658  0.00  0.00    +0.211 HD
ENDBRANCH   2  15
BRANCH   3  17
ATOM     17  O3* UNL     1      32.034  -5.602 -22.987  0.00  0.00    -0.379 OA
ATOM     18  H3* UNL     1      32.777  -5.931 -23.517  0.00  0.00    +0.211 HD
ENDBRANCH   3  17
BRANCH   5  19
ATOM     19  C5* UNL     1      31.910  -7.749 -19.947  0.00  0.00    +0.169 C 
BRANCH  19  20
ATOM     20  O5* UNL     1      32.802  -8.758 -19.507  0.00  0.00    -0.379 OA
ATOM     21  H5* UNL     1      33.112  -8.549 -18.612  0.00  0.00    +0.211 HD
ENDBRANCH  19  20
ENDBRANCH   5  19
TORSDOF 5
ENDMDL
MODEL 9
REMARK VINA RESULT:      -6.9      6.621      8.700
REMARK  Name = 5287841
REMARK  5 active torsions:
REMARK  status: ('A' for Active; 'I' for Inactive)
REMARK    1  A    between atoms: C2*_2  and  O2*_15
REMARK    2  A    between atoms: C3*_3  and  O3*_17
REMARK    3  A    between atoms: C1*_4  and  N_7
REMARK    4  A    between atoms: C4*_5  and  C5*_19
REMARK    5  A    between atoms: C5*_19  and  O5*_20
REMARK                            x       y       z     vdW  Elec       q    Type
REMARK                         _______ _______ _______ _____ _____    ______ ____
ROOT
ATOM      1  O4* UNL     1      31.069 -24.316 -15.871  0.00  0.00    -0.333 OA
ATOM      2  C2* UNL     1      31.909 -23.019 -14.075  0.00  0.00    +0.187 C 
ATOM      3  C3* UNL     1      30.507 -23.474 -13.728  0.00  0.00    +0.171 C 
ATOM      4  C1* UNL     1      32.288 -23.980 -15.188  0.00  0.00    +0.229 C 
ATOM      5  C4* UNL     1      29.945 -23.843 -15.095  0.00  0.00    +0.175 C 
ENDROOT
BRANCH   4   7
ATOM      6  O   UNL     1      34.898 -23.729 -14.606  0.00  0.00    -0.252 OA
ATOM      7  N   UNL     1      33.203 -23.400 -16.127  0.00  0.00    -0.217 N 
ATOM      8  N   UNL     1      35.548 -22.781 -16.506  0.00  0.00    -0.267 N 
ATOM      9  C   UNL     1      34.554 -23.312 -15.724  0.00  0.00    +0.313 C 
ATOM     10  C   UNL     1      32.668 -22.977 -17.348  0.00  0.00    +0.071 C 
ATOM     11  C   UNL     1      33.223 -22.407 -18.416  0.00  0.00    +0.018 C 
ATOM     12  C   UNL     1      35.589 -22.233 -17.753  0.00  0.00    +0.065 C 
ATOM     13  C   UNL     1      34.591 -22.055 -18.614  0.00  0.00    +0.017 C 
ATOM     14  H   UNL     1      36.430 -22.800 -16.069  0.00  0.00    +0.156 HD
ENDBRANCH   4   7
BRANCH   2  15
ATOM     15  O2* UNL     1      32.786 -23.095 -12.969  0.00  0.00    -0.378 OA
ATOM     16  H2* UNL     1      32.832 -24.012 -12.655  0.00  0.00    +0.211 HD
ENDBRANCH   2  15
BRANCH   3  17
ATOM     17  O3* UNL     1      30.553 -24.661 -12.937  0.00  0.00    -0.379 OA
ATOM     18  H3* UNL     1      29.967 -25.330 -13.324  0.00  0.00    +0.211 HD
ENDBRANCH   3  17
BRANCH   5  19
ATOM     19  C5* UNL     1      29.325 -22.663 -15.830  0.00  0.00    +0.169 C 
BRANCH  19  20
ATOM     20  O5* UNL     1      29.056 -23.050 -17.166  0.00  0.00    -0.379 OA
ATOM     21  H5* UNL     1      28.116 -22.910 -17.360  0.00  0.00    +0.211 HD
ENDBRANCH  19  20
ENDBRANCH   5  19
TORSDOF 5
ENDMDL
