MODEL 1
REMARK VINA RESULT:      -8.6      0.000      0.000
REMARK  Name = 6433090
REMARK  6 active torsions:
REMARK  status: ('A' for Active; 'I' for Inactive)
REMARK    1  A    between atoms: C_1  and  C_2
REMARK    2  A    between atoms: C_1  and  C_8
REMARK    3  A    between atoms: C_1  and  C_16
REMARK    4  A    between atoms: C_1  and  C_19
REMARK    5  A    between atoms: C_19  and  C_20
REMARK    6  A    between atoms: C_20  and  N_21
REMARK                            x       y       z     vdW  Elec       q    Type
REMARK                         _______ _______ _______ _____ _____    ______ ____
ROOT
ATOM      1  C   UNL     1      35.732 -24.711 -14.638  0.00  0.00    +0.108 C 
ENDROOT
BRANCH   1   2
ATOM      2  C   UNL     1      36.172 -23.601 -15.634  0.00  0.00    -0.011 C 
ATOM      3  C   UNL     1      35.216 -23.058 -16.440  0.00  0.00    -0.004 C 
ATOM      4  C   UNL     1      37.487 -23.240 -15.640  0.00  0.00    -0.004 C 
ATOM      5  C   UNL     1      35.610 -22.062 -17.334  0.00  0.00    -0.000 C 
ATOM      6  C   UNL     1      37.883 -22.244 -16.534  0.00  0.00    -0.000 C 
ATOM      7  C   UNL     1      36.944 -21.655 -17.381  0.00  0.00    -0.000 C 
ENDBRANCH   1   2
BRANCH   1   8
ATOM      8  C   UNL     1      36.089 -24.204 -13.210  0.00  0.00    -0.011 C 
ATOM      9  C   UNL     1      35.386 -24.721 -12.162  0.00  0.00    -0.004 C 
ATOM     10  C   UNL     1      37.082 -23.275 -13.099  0.00  0.00    -0.004 C 
ATOM     11  C   UNL     1      35.706 -24.266 -10.882  0.00  0.00    -0.000 C 
ATOM     12  C   UNL     1      37.402 -22.822 -11.819  0.00  0.00    -0.000 C 
ATOM     13  C   UNL     1      36.714 -23.318 -10.711  0.00  0.00    -0.000 C 
ENDBRANCH   1   8
BRANCH   1  16
ATOM     14  O   UNL     1      36.193 -26.756 -15.940  0.00  0.00    -0.275 OA
ATOM     15  N   UNL     1      37.321 -26.501 -13.974  0.00  0.00    -0.328 N 
ATOM     16  C   UNL     1      36.440 -26.071 -14.948  0.00  0.00    +0.226 C 
ATOM     17  H   UNL     1      37.809 -27.348 -14.093  0.00  0.00    +0.145 HD
ATOM     18  H   UNL     1      37.461 -25.961 -13.164  0.00  0.00    +0.145 HD
ENDBRANCH   1  16
BRANCH   1  19
ATOM     19  C   UNL     1      34.193 -25.061 -14.738  0.00  0.00    +0.039 C 
BRANCH  19  20
ATOM     20  C   UNL     1      33.236 -23.904 -14.396  0.00  0.00    +0.098 C 
BRANCH  20  21
ATOM     21  N   UNL     1      31.843 -24.257 -14.670  0.00  0.00    -0.273 N 
ATOM     22  N   UNL     1      29.880 -24.321 -15.669  0.00  0.00    -0.232 NA
ATOM     23  C   UNL     1      31.094 -23.815 -15.710  0.00  0.00    +0.113 C 
ATOM     24  C   UNL     1      31.088 -25.090 -13.912  0.00  0.00    +0.087 C 
ATOM     25  C   UNL     1      29.870 -25.116 -14.550  0.00  0.00    +0.116 C 
ATOM     26  C   UNL     1      31.613 -22.887 -16.735  0.00  0.00    +0.069 C 
ENDBRANCH  20  21
ENDBRANCH  19  20
ENDBRANCH   1  19
TORSDOF 6
ENDMDL
MODEL 2
REMARK VINA RESULT:      -8.4      2.388      5.170
REMARK  Name = 6433090
REMARK  6 active torsions:
REMARK  status: ('A' for Active; 'I' for Inactive)
REMARK    1  A    between atoms: C_1  and  C_2
REMARK    2  A    between atoms: C_1  and  C_8
REMARK    3  A    between atoms: C_1  and  C_16
REMARK    4  A    between atoms: C_1  and  C_19
REMARK    5  A    between atoms: C_19  and  C_20
REMARK    6  A    between atoms: C_20  and  N_21
REMARK                            x       y       z     vdW  Elec       q    Type
REMARK                         _______ _______ _______ _____ _____    ______ ____
ROOT
ATOM      1  C   UNL     1      34.405 -23.966 -14.956  0.00  0.00    +0.108 C 
ENDROOT
BRANCH   1   2
ATOM      2  C   UNL     1      34.605 -23.298 -16.346  0.00  0.00    -0.011 C 
ATOM      3  C   UNL     1      33.616 -23.456 -17.273  0.00  0.00    -0.004 C 
ATOM      4  C   UNL     1      35.756 -22.597 -16.553  0.00  0.00    -0.004 C 
ATOM      5  C   UNL     1      33.795 -22.858 -18.520  0.00  0.00    -0.000 C 
ATOM      6  C   UNL     1      35.936 -21.998 -17.801  0.00  0.00    -0.000 C 
ATOM      7  C   UNL     1      34.954 -22.129 -18.784  0.00  0.00    -0.000 C 
ENDBRANCH   1   2
BRANCH   1   8
ATOM      8  C   UNL     1      32.880 -23.917 -14.647  0.00  0.00    -0.011 C 
ATOM      9  C   UNL     1      32.287 -25.065 -14.210  0.00  0.00    -0.004 C 
ATOM     10  C   UNL     1      32.235 -22.730 -14.832  0.00  0.00    -0.004 C 
ATOM     11  C   UNL     1      30.921 -25.021 -13.933  0.00  0.00    -0.000 C 
ATOM     12  C   UNL     1      30.870 -22.686 -14.554  0.00  0.00    -0.000 C 
ATOM     13  C   UNL     1      30.212 -23.832 -14.104  0.00  0.00    -0.000 C 
ENDBRANCH   1   8
BRANCH   1  16
ATOM     14  O   UNL     1      36.175 -22.480 -14.087  0.00  0.00    -0.275 OA
ATOM     15  N   UNL     1      34.875 -23.556 -12.552  0.00  0.00    -0.328 N 
ATOM     16  C   UNL     1      35.231 -23.233 -13.847  0.00  0.00    +0.226 C 
ATOM     17  H   UNL     1      35.346 -23.138 -11.794  0.00  0.00    +0.145 HD
ATOM     18  H   UNL     1      34.152 -24.202 -12.386  0.00  0.00    +0.145 HD
ENDBRANCH   1  16
BRANCH   1  19
ATOM     19  C   UNL     1      34.940 -25.452 -14.898  0.00  0.00    +0.039 C 
BRANCH  19  20
ATOM     20  C   UNL     1      36.372 -25.653 -15.428  0.00  0.00    +0.098 C 
BRANCH  20  21
ATOM     21  N   UNL     1      37.363 -25.559 -14.356  0.00  0.00    -0.273 N 
ATOM     22  N   UNL     1      39.192 -24.986 -13.270  0.00  0.00    -0.232 NA
ATOM     23  C   UNL     1      38.528 -24.866 -14.399  0.00  0.00    +0.113 C 
ATOM     24  C   UNL     1      37.258 -26.160 -13.145  0.00  0.00    +0.087 C 
ATOM     25  C   UNL     1      38.407 -25.792 -12.485  0.00  0.00    +0.116 C 
ATOM     26  C   UNL     1      38.956 -24.090 -15.580  0.00  0.00    +0.069 C 
ENDBRANCH  20  21
ENDBRANCH  19  20
ENDBRANCH   1  19
TORSDOF 6
ENDMDL
MODEL 3
REMARK VINA RESULT:      -8.4      6.756      9.413
REMARK  Name = 6433090
REMARK  6 active torsions:
REMARK  status: ('A' for Active; 'I' for Inactive)
REMARK    1  A    between atoms: C_1  and  C_2
REMARK    2  A    between atoms: C_1  and  C_8
REMARK    3  A    between atoms: C_1  and  C_16
REMARK    4  A    between atoms: C_1  and  C_19
REMARK    5  A    between atoms: C_19  and  C_20
REMARK    6  A    between atoms: C_20  and  N_21
REMARK                            x       y       z     vdW  Elec       q    Type
REMARK                         _______ _______ _______ _____ _____    ______ ____
ROOT
ATOM      1  C   UNL     1      34.803 -18.415 -21.617  0.00  0.00    +0.108 C 
ENDROOT
BRANCH   1   2
ATOM      2  C   UNL     1      34.677 -18.418 -23.166  0.00  0.00    -0.011 C 
ATOM      3  C   UNL     1      34.632 -19.627 -23.796  0.00  0.00    -0.004 C 
ATOM      4  C   UNL     1      34.619 -17.212 -23.800  0.00  0.00    -0.004 C 
ATOM      5  C   UNL     1      34.518 -19.631 -25.186  0.00  0.00    -0.000 C 
ATOM      6  C   UNL     1      34.506 -17.215 -25.191  0.00  0.00    -0.000 C 
ATOM      7  C   UNL     1      34.455 -18.425 -25.884  0.00  0.00    -0.000 C 
ENDBRANCH   1   2
BRANCH   1   8
ATOM      8  C   UNL     1      34.132 -17.104 -21.112  0.00  0.00    -0.011 C 
ATOM      9  C   UNL     1      32.780 -17.116 -20.932  0.00  0.00    -0.004 C 
ATOM     10  C   UNL     1      34.938 -16.029 -20.883  0.00  0.00    -0.004 C 
ATOM     11  C   UNL     1      32.178 -15.942 -20.479  0.00  0.00    -0.000 C 
ATOM     12  C   UNL     1      34.336 -14.855 -20.430  0.00  0.00    -0.000 C 
ATOM     13  C   UNL     1      32.956 -14.812 -20.228  0.00  0.00    -0.000 C 
ENDBRANCH   1   8
BRANCH   1  16
ATOM     14  O   UNL     1      36.651 -18.623 -19.993  0.00  0.00    -0.275 OA
ATOM     15  N   UNL     1      37.221 -18.322 -22.181  0.00  0.00    -0.328 N 
ATOM     16  C   UNL     1      36.299 -18.493 -21.166  0.00  0.00    +0.226 C 
ATOM     17  H   UNL     1      38.184 -18.358 -21.981  0.00  0.00    +0.145 HD
ATOM     18  H   UNL     1      36.914 -18.166 -23.103  0.00  0.00    +0.145 HD
ENDBRANCH   1  16
BRANCH   1  19
ATOM     19  C   UNL     1      34.142 -19.680 -20.937  0.00  0.00    +0.039 C 
BRANCH  19  20
ATOM     20  C   UNL     1      35.120 -20.814 -20.577  0.00  0.00    +0.098 C 
BRANCH  20  21
ATOM     21  N   UNL     1      34.625 -21.619 -19.460  0.00  0.00    -0.273 N 
ATOM     22  N   UNL     1      34.603 -22.733 -17.560  0.00  0.00    -0.232 NA
ATOM     23  C   UNL     1      35.343 -22.022 -18.382  0.00  0.00    +0.113 C 
ATOM     24  C   UNL     1      33.359 -22.087 -19.340  0.00  0.00    +0.087 C 
ATOM     25  C   UNL     1      33.366 -22.778 -18.151  0.00  0.00    +0.116 C 
ATOM     26  C   UNL     1      36.768 -21.682 -18.196  0.00  0.00    +0.069 C 
ENDBRANCH  20  21
ENDBRANCH  19  20
ENDBRANCH   1  19
TORSDOF 6
ENDMDL
MODEL 4
REMARK VINA RESULT:      -8.2      0.480      1.588
REMARK  Name = 6433090
REMARK  6 active torsions:
REMARK  status: ('A' for Active; 'I' for Inactive)
REMARK    1  A    between atoms: C_1  and  C_2
REMARK    2  A    between atoms: C_1  and  C_8
REMARK    3  A    between atoms: C_1  and  C_16
REMARK    4  A    between atoms: C_1  and  C_19
REMARK    5  A    between atoms: C_19  and  C_20
REMARK    6  A    between atoms: C_20  and  N_21
REMARK                            x       y       z     vdW  Elec       q    Type
REMARK                         _______ _______ _______ _____ _____    ______ ____
ROOT
ATOM      1  C   UNL     1      35.584 -24.627 -14.642  0.00  0.00    +0.108 C 
ENDROOT
BRANCH   1   2
ATOM      2  C   UNL     1      36.104 -23.556 -15.642  0.00  0.00    -0.011 C 
ATOM      3  C   UNL     1      35.199 -22.993 -16.493  0.00  0.00    -0.004 C 
ATOM      4  C   UNL     1      37.431 -23.247 -15.607  0.00  0.00    -0.004 C 
ATOM      5  C   UNL     1      35.664 -22.032 -17.391  0.00  0.00    -0.000 C 
ATOM      6  C   UNL     1      37.898 -22.285 -16.505  0.00  0.00    -0.000 C 
ATOM      7  C   UNL     1      37.014 -21.678 -17.397  0.00  0.00    -0.000 C 
ENDBRANCH   1   2
BRANCH   1   8
ATOM      8  C   UNL     1      36.002 -24.155 -13.218  0.00  0.00    -0.011 C 
ATOM      9  C   UNL     1      37.028 -23.262 -13.125  0.00  0.00    -0.004 C 
ATOM     10  C   UNL     1      35.316 -24.666 -12.156  0.00  0.00    -0.004 C 
ATOM     11  C   UNL     1      37.403 -22.839 -11.849  0.00  0.00    -0.000 C 
ATOM     12  C   UNL     1      35.690 -24.242 -10.882  0.00  0.00    -0.000 C 
ATOM     13  C   UNL     1      36.733 -23.329 -10.728  0.00  0.00    -0.000 C 
ENDBRANCH   1   8
BRANCH   1  16
ATOM     14  O   UNL     1      36.030 -26.607 -16.047  0.00  0.00    -0.275 OA
ATOM     15  N   UNL     1      36.805 -26.661 -13.903  0.00  0.00    -0.328 N 
ATOM     16  C   UNL     1      36.172 -26.041 -14.963  0.00  0.00    +0.226 C 
ATOM     17  H   UNL     1      37.203 -27.553 -14.021  0.00  0.00    +0.145 HD
ATOM     18  H   UNL     1      36.858 -26.210 -13.030  0.00  0.00    +0.145 HD
ENDBRANCH   1  16
BRANCH   1  19
ATOM     19  C   UNL     1      34.021 -24.847 -14.722  0.00  0.00    +0.039 C 
BRANCH  19  20
ATOM     20  C   UNL     1      33.168 -23.651 -14.258  0.00  0.00    +0.098 C 
BRANCH  20  21
ATOM     21  N   UNL     1      31.877 -23.611 -14.943  0.00  0.00    -0.273 N 
ATOM     22  N   UNL     1      29.731 -23.915 -15.338  0.00  0.00    -0.232 NA
ATOM     23  C   UNL     1      30.706 -24.115 -14.480  0.00  0.00    +0.113 C 
ATOM     24  C   UNL     1      31.659 -23.055 -16.161  0.00  0.00    +0.087 C 
ATOM     25  C   UNL     1      30.318 -23.255 -16.388  0.00  0.00    +0.116 C 
ATOM     26  C   UNL     1      30.587 -24.793 -13.172  0.00  0.00    +0.069 C 
ENDBRANCH  20  21
ENDBRANCH  19  20
ENDBRANCH   1  19
TORSDOF 6
ENDMDL
MODEL 5
REMARK VINA RESULT:      -8.1     16.570     19.134
REMARK  Name = 6433090
REMARK  6 active torsions:
REMARK  status: ('A' for Active; 'I' for Inactive)
REMARK    1  A    between atoms: C_1  and  C_2
REMARK    2  A    between atoms: C_1  and  C_8
REMARK    3  A    between atoms: C_1  and  C_16
REMARK    4  A    between atoms: C_1  and  C_19
REMARK    5  A    between atoms: C_19  and  C_20
REMARK    6  A    between atoms: C_20  and  N_21
REMARK                            x       y       z     vdW  Elec       q    Type
REMARK                         _______ _______ _______ _____ _____    ______ ____
ROOT
ATOM      1  C   UNL     1      32.145  -7.954 -21.804  0.00  0.00    +0.108 C 
ENDROOT
BRANCH   1   2
ATOM      2  C   UNL     1      31.719  -9.272 -21.098  0.00  0.00    -0.011 C 
ATOM      3  C   UNL     1      32.013  -9.404 -19.772  0.00  0.00    -0.004 C 
ATOM      4  C   UNL     1      31.079 -10.215 -21.847  0.00  0.00    -0.004 C 
ATOM      5  C   UNL     1      31.631 -10.586 -19.138  0.00  0.00    -0.000 C 
ATOM      6  C   UNL     1      30.697 -11.398 -21.213  0.00  0.00    -0.000 C 
ATOM      7  C   UNL     1      30.973 -11.583 -19.858  0.00  0.00    -0.000 C 
ENDBRANCH   1   2
BRANCH   1   8
ATOM      8  C   UNL     1      33.280  -8.324 -22.804  0.00  0.00    -0.011 C 
ATOM      9  C   UNL     1      33.258  -9.575 -23.348  0.00  0.00    -0.004 C 
ATOM     10  C   UNL     1      34.222  -7.376 -23.071  0.00  0.00    -0.004 C 
ATOM     11  C   UNL     1      34.275  -9.907 -24.244  0.00  0.00    -0.000 C 
ATOM     12  C   UNL     1      35.237  -7.708 -23.967  0.00  0.00    -0.000 C 
ATOM     13  C   UNL     1      35.264  -8.973 -24.554  0.00  0.00    -0.000 C 
ENDBRANCH   1   8
BRANCH   1  16
ATOM     14  O   UNL     1      33.497  -7.098 -19.925  0.00  0.00    -0.275 OA
ATOM     15  N   UNL     1      31.950  -5.682 -20.819  0.00  0.00    -0.328 N 
ATOM     16  C   UNL     1      32.630  -6.883 -20.771  0.00  0.00    +0.226 C 
ATOM     17  H   UNL     1      32.193  -4.954 -20.203  0.00  0.00    +0.145 HD
ATOM     18  H   UNL     1      31.222  -5.554 -21.469  0.00  0.00    +0.145 HD
ENDBRANCH   1  16
BRANCH   1  19
ATOM     19  C   UNL     1      30.952  -7.237 -22.553  0.00  0.00    +0.039 C 
BRANCH  19  20
ATOM     20  C   UNL     1      31.231  -6.864 -24.021  0.00  0.00    +0.098 C 
BRANCH  20  21
ATOM     21  N   UNL     1      31.385  -5.419 -24.191  0.00  0.00    -0.273 N 
ATOM     22  N   UNL     1      32.113  -3.492 -24.970  0.00  0.00    -0.232 NA
ATOM     23  C   UNL     1      32.212  -4.799 -25.069  0.00  0.00    +0.113 C 
ATOM     24  C   UNL     1      30.714  -4.477 -23.485  0.00  0.00    +0.087 C 
ATOM     25  C   UNL     1      31.181  -3.284 -23.984  0.00  0.00    +0.116 C 
ATOM     26  C   UNL     1      33.093  -5.536 -25.998  0.00  0.00    +0.069 C 
ENDBRANCH  20  21
ENDBRANCH  19  20
ENDBRANCH   1  19
TORSDOF 6
ENDMDL
MODEL 6
REMARK VINA RESULT:      -8.0      1.853      5.940
REMARK  Name = 6433090
REMARK  6 active torsions:
REMARK  status: ('A' for Active; 'I' for Inactive)
REMARK    1  A    between atoms: C_1  and  C_2
REMARK    2  A    between atoms: C_1  and  C_8
REMARK    3  A    between atoms: C_1  and  C_16
REMARK    4  A    between atoms: C_1  and  C_19
REMARK    5  A    between atoms: C_19  and  C_20
REMARK    6  A    between atoms: C_20  and  N_21
REMARK                            x       y       z     vdW  Elec       q    Type
REMARK                         _______ _______ _______ _____ _____    ______ ____
ROOT
ATOM      1  C   UNL     1      34.487 -23.314 -15.615  0.00  0.00    +0.108 C 
ENDROOT
BRANCH   1   2
ATOM      2  C   UNL     1      32.959 -23.163 -15.373  0.00  0.00    -0.011 C 
ATOM      3  C   UNL     1      32.132 -23.280 -16.452  0.00  0.00    -0.004 C 
ATOM      4  C   UNL     1      32.540 -22.923 -14.098  0.00  0.00    -0.004 C 
ATOM      5  C   UNL     1      30.761 -23.145 -16.235  0.00  0.00    -0.000 C 
ATOM      6  C   UNL     1      31.168 -22.788 -13.881  0.00  0.00    -0.000 C 
ATOM      7  C   UNL     1      30.278 -22.899 -14.950  0.00  0.00    -0.000 C 
ENDBRANCH   1   2
BRANCH   1   8
ATOM      8  C   UNL     1      34.761 -22.847 -17.075  0.00  0.00    -0.011 C 
ATOM      9  C   UNL     1      35.890 -22.117 -17.303  0.00  0.00    -0.004 C 
ATOM     10  C   UNL     1      33.855 -23.198 -18.032  0.00  0.00    -0.004 C 
ATOM     11  C   UNL     1      36.136 -21.698 -18.611  0.00  0.00    -0.000 C 
ATOM     12  C   UNL     1      34.102 -22.780 -19.339  0.00  0.00    -0.000 C 
ATOM     13  C   UNL     1      35.242 -22.030 -19.629  0.00  0.00    -0.000 C 
ENDBRANCH   1   8
BRANCH   1  16
ATOM     14  O   UNL     1      35.807 -25.344 -16.094  0.00  0.00    -0.275 OA
ATOM     15  N   UNL     1      34.285 -25.471 -14.400  0.00  0.00    -0.328 N 
ATOM     16  C   UNL     1      34.958 -24.790 -15.397  0.00  0.00    +0.226 C 
ATOM     17  H   UNL     1      34.521 -26.406 -14.199  0.00  0.00    +0.145 HD
ATOM     18  H   UNL     1      33.572 -25.023 -13.893  0.00  0.00    +0.145 HD
ENDBRANCH   1  16
BRANCH   1  19
ATOM     19  C   UNL     1      35.363 -22.488 -14.590  0.00  0.00    +0.039 C 
BRANCH  19  20
ATOM     20  C   UNL     1      36.773 -23.051 -14.333  0.00  0.00    +0.098 C 
BRANCH  20  21
ATOM     21  N   UNL     1      36.892 -23.618 -12.990  0.00  0.00    -0.273 N 
ATOM     22  N   UNL     1      37.659 -24.815 -11.308  0.00  0.00    -0.232 NA
ATOM     23  C   UNL     1      37.831 -24.503 -12.573  0.00  0.00    +0.113 C 
ATOM     24  C   UNL     1      36.066 -23.338 -11.952  0.00  0.00    +0.087 C 
ATOM     25  C   UNL     1      36.560 -24.093 -10.915  0.00  0.00    +0.116 C 
ATOM     26  C   UNL     1      38.893 -25.022 -13.459  0.00  0.00    +0.069 C 
ENDBRANCH  20  21
ENDBRANCH  19  20
ENDBRANCH   1  19
TORSDOF 6
ENDMDL
MODEL 7
REMARK VINA RESULT:      -7.9     15.248     17.675
REMARK  Name = 6433090
REMARK  6 active torsions:
REMARK  status: ('A' for Active; 'I' for Inactive)
REMARK    1  A    between atoms: C_1  and  C_2
REMARK    2  A    between atoms: C_1  and  C_8
REMARK    3  A    between atoms: C_1  and  C_16
REMARK    4  A    between atoms: C_1  and  C_19
REMARK    5  A    between atoms: C_19  and  C_20
REMARK    6  A    between atoms: C_20  and  N_21
REMARK                            x       y       z     vdW  Elec       q    Type
REMARK                         _______ _______ _______ _____ _____    ______ ____
ROOT
ATOM      1  C   UNL     1      33.116  -8.748 -23.511  0.00  0.00    +0.108 C 
ENDROOT
BRANCH   1   2
ATOM      2  C   UNL     1      32.394  -7.472 -24.029  0.00  0.00    -0.011 C 
ATOM      3  C   UNL     1      33.167  -6.469 -24.536  0.00  0.00    -0.004 C 
ATOM      4  C   UNL     1      31.034  -7.434 -23.942  0.00  0.00    -0.004 C 
ATOM      5  C   UNL     1      32.520  -5.324 -25.001  0.00  0.00    -0.000 C 
ATOM      6  C   UNL     1      30.386  -6.288 -24.407  0.00  0.00    -0.000 C 
ATOM      7  C   UNL     1      31.130  -5.233 -24.937  0.00  0.00    -0.000 C 
ENDBRANCH   1   2
BRANCH   1   8
ATOM      8  C   UNL     1      32.601  -9.002 -22.064  0.00  0.00    -0.011 C 
ATOM      9  C   UNL     1      32.828  -8.030 -21.134  0.00  0.00    -0.004 C 
ATOM     10  C   UNL     1      31.958 -10.179 -21.819  0.00  0.00    -0.004 C 
ATOM     11  C   UNL     1      32.367  -8.258 -19.837  0.00  0.00    -0.000 C 
ATOM     12  C   UNL     1      31.497 -10.405 -20.522  0.00  0.00    -0.000 C 
ATOM     13  C   UNL     1      31.701  -9.445 -19.531  0.00  0.00    -0.000 C 
ENDBRANCH   1   8
BRANCH   1  16
ATOM     14  O   UNL     1      35.263  -7.663 -22.956  0.00  0.00    -0.275 OA
ATOM     15  N   UNL     1      35.344  -9.481 -24.331  0.00  0.00    -0.328 N 
ATOM     16  C   UNL     1      34.671  -8.574 -23.535  0.00  0.00    +0.226 C 
ATOM     17  H   UNL     1      36.325  -9.440 -24.401  0.00  0.00    +0.145 HD
ATOM     18  H   UNL     1      34.842 -10.166 -24.828  0.00  0.00    +0.145 HD
ENDBRANCH   1  16
BRANCH   1  19
ATOM     19  C   UNL     1      32.869 -10.015 -24.423  0.00  0.00    +0.039 C 
BRANCH  19  20
ATOM     20  C   UNL     1      33.599 -11.295 -23.976  0.00  0.00    +0.098 C 
BRANCH  20  21
ATOM     21  N   UNL     1      33.422 -12.382 -24.938  0.00  0.00    -0.273 N 
ATOM     22  N   UNL     1      33.037 -14.398 -25.737  0.00  0.00    -0.232 NA
ATOM     23  C   UNL     1      33.128 -13.673 -24.644  0.00  0.00    +0.113 C 
ATOM     24  C   UNL     1      33.528 -12.255 -26.283  0.00  0.00    +0.087 C 
ATOM     25  C   UNL     1      33.285 -13.520 -26.762  0.00  0.00    +0.116 C 
ATOM     26  C   UNL     1      32.943 -14.159 -23.262  0.00  0.00    +0.069 C 
ENDBRANCH  20  21
ENDBRANCH  19  20
ENDBRANCH   1  19
TORSDOF 6
ENDMDL
MODEL 8
REMARK VINA RESULT:      -7.7      7.817     10.782
REMARK  Name = 6433090
REMARK  6 active torsions:
REMARK  status: ('A' for Active; 'I' for Inactive)
REMARK    1  A    between atoms: C_1  and  C_2
REMARK    2  A    between atoms: C_1  and  C_8
REMARK    3  A    between atoms: C_1  and  C_16
REMARK    4  A    between atoms: C_1  and  C_19
REMARK    5  A    between atoms: C_19  and  C_20
REMARK    6  A    between atoms: C_20  and  N_21
REMARK                            x       y       z     vdW  Elec       q    Type
REMARK                         _______ _______ _______ _____ _____    ______ ____
ROOT
ATOM      1  C   UNL     1      35.390 -18.565 -21.465  0.00  0.00    +0.108 C 
ENDROOT
BRANCH   1   2
ATOM      2  C   UNL     1      34.619 -19.704 -20.741  0.00  0.00    -0.011 C 
ATOM      3  C   UNL     1      33.260 -19.608 -20.677  0.00  0.00    -0.004 C 
ATOM      4  C   UNL     1      35.349 -20.728 -20.214  0.00  0.00    -0.004 C 
ATOM      5  C   UNL     1      32.567 -20.629 -20.027  0.00  0.00    -0.000 C 
ATOM      6  C   UNL     1      34.657 -21.751 -19.564  0.00  0.00    -0.000 C 
ATOM      7  C   UNL     1      33.266 -21.701 -19.471  0.00  0.00    -0.000 C 
ENDBRANCH   1   2
BRANCH   1   8
ATOM      8  C   UNL     1      34.975 -18.620 -22.965  0.00  0.00    -0.011 C 
ATOM      9  C   UNL     1      34.971 -19.840 -23.574  0.00  0.00    -0.004 C 
ATOM     10  C   UNL     1      34.641 -17.446 -23.573  0.00  0.00    -0.004 C 
ATOM     11  C   UNL     1      34.600 -19.891 -24.918  0.00  0.00    -0.000 C 
ATOM     12  C   UNL     1      34.269 -17.497 -24.916  0.00  0.00    -0.000 C 
ATOM     13  C   UNL     1      34.248 -18.719 -25.588  0.00  0.00    -0.000 C 
ENDBRANCH   1   8
BRANCH   1  16
ATOM     14  O   UNL     1      37.477 -19.090 -20.256  0.00  0.00    -0.275 OA
ATOM     15  N   UNL     1      37.680 -18.355 -22.405  0.00  0.00    -0.328 N 
ATOM     16  C   UNL     1      36.937 -18.729 -21.302  0.00  0.00    +0.226 C 
ATOM     17  H   UNL     1      38.662 -18.428 -22.385  0.00  0.00    +0.145 HD
ATOM     18  H   UNL     1      37.228 -18.018 -23.212  0.00  0.00    +0.145 HD
ENDBRANCH   1  16
BRANCH   1  19
ATOM     19  C   UNL     1      35.100 -17.134 -20.858  0.00  0.00    +0.039 C 
BRANCH  19  20
ATOM     20  C   UNL     1      35.036 -15.988 -21.885  0.00  0.00    +0.098 C 
BRANCH  20  21
ATOM     21  N   UNL     1      33.963 -15.044 -21.574  0.00  0.00    -0.273 N 
ATOM     22  N   UNL     1      32.518 -13.399 -21.814  0.00  0.00    -0.232 NA
ATOM     23  C   UNL     1      33.483 -14.077 -22.394  0.00  0.00    +0.113 C 
ATOM     24  C   UNL     1      33.282 -14.999 -20.403  0.00  0.00    +0.087 C 
ATOM     25  C   UNL     1      32.388 -13.968 -20.572  0.00  0.00    +0.116 C 
ATOM     26  C   UNL     1      34.006 -13.849 -23.757  0.00  0.00    +0.069 C 
ENDBRANCH  20  21
ENDBRANCH  19  20
ENDBRANCH   1  19
TORSDOF 6
ENDMDL
MODEL 9
REMARK VINA RESULT:      -7.6     15.737     18.266
REMARK  Name = 6433090
REMARK  6 active torsions:
REMARK  status: ('A' for Active; 'I' for Inactive)
REMARK    1  A    between atoms: C_1  and  C_2
REMARK    2  A    between atoms: C_1  and  C_8
REMARK    3  A    between atoms: C_1  and  C_16
REMARK    4  A    between atoms: C_1  and  C_19
REMARK    5  A    between atoms: C_19  and  C_20
REMARK    6  A    between atoms: C_20  and  N_21
REMARK                            x       y       z     vdW  Elec       q    Type
REMARK                         _______ _______ _______ _____ _____    ______ ____
ROOT
ATOM      1  C   UNL     1      32.679  -9.342 -23.159  0.00  0.00    +0.108 C 
ENDROOT
BRANCH   1   2
ATOM      2  C   UNL     1      32.044  -9.749 -21.800  0.00  0.00    -0.011 C 
ATOM      3  C   UNL     1      31.123 -10.756 -21.808  0.00  0.00    -0.004 C 
ATOM      4  C   UNL     1      32.446  -9.076 -20.685  0.00  0.00    -0.004 C 
ATOM      5  C   UNL     1      30.552 -11.122 -20.589  0.00  0.00    -0.000 C 
ATOM      6  C   UNL     1      31.876  -9.442 -19.465  0.00  0.00    -0.000 C 
ATOM      7  C   UNL     1      30.929 -10.465 -19.417  0.00  0.00    -0.000 C 
ENDBRANCH   1   2
BRANCH   1   8
ATOM      8  C   UNL     1      33.157 -10.654 -23.846  0.00  0.00    -0.011 C 
ATOM      9  C   UNL     1      33.274 -11.768 -23.068  0.00  0.00    -0.004 C 
ATOM     10  C   UNL     1      33.430 -10.606 -25.181  0.00  0.00    -0.004 C 
ATOM     11  C   UNL     1      33.703 -12.944 -23.683  0.00  0.00    -0.000 C 
ATOM     12  C   UNL     1      33.858 -11.782 -25.796  0.00  0.00    -0.000 C 
ATOM     13  C   UNL     1      33.995 -12.951 -25.046  0.00  0.00    -0.000 C 
ENDBRANCH   1   8
BRANCH   1  16
ATOM     14  O   UNL     1      33.837  -7.400 -22.168  0.00  0.00    -0.275 OA
ATOM     15  N   UNL     1      34.943  -8.546 -23.801  0.00  0.00    -0.328 N 
ATOM     16  C   UNL     1      33.867  -8.344 -22.958  0.00  0.00    +0.226 C 
ATOM     17  H   UNL     1      35.733  -7.961 -23.738  0.00  0.00    +0.145 HD
ATOM     18  H   UNL     1      34.921  -9.274 -24.462  0.00  0.00    +0.145 HD
ENDBRANCH   1  16
BRANCH   1  19
ATOM     19  C   UNL     1      31.683  -8.550 -24.098  0.00  0.00    +0.039 C 
BRANCH  19  20
ATOM     20  C   UNL     1      30.766  -7.544 -23.378  0.00  0.00    +0.098 C 
BRANCH  20  21
ATOM     21  N   UNL     1      31.146  -6.162 -23.669  0.00  0.00    -0.273 N 
ATOM     22  N   UNL     1      31.432  -3.994 -23.407  0.00  0.00    -0.232 NA
ATOM     23  C   UNL     1      30.986  -5.096 -22.846  0.00  0.00    +0.113 C 
ATOM     24  C   UNL     1      31.722  -5.740 -24.821  0.00  0.00    +0.087 C 
ATOM     25  C   UNL     1      31.891  -4.388 -24.638  0.00  0.00    +0.116 C 
ATOM     26  C   UNL     1      30.385  -5.205 -21.501  0.00  0.00    +0.069 C 
ENDBRANCH  20  21
ENDBRANCH  19  20
ENDBRANCH   1  19
TORSDOF 6
ENDMDL
