MODEL 1
REMARK VINA RESULT:     -10.0      0.000      0.000
REMARK  Name = 5459374
REMARK  7 active torsions:
REMARK  status: ('A' for Active; 'I' for Inactive)
REMARK    1  A    between atoms: C_1  and  C_8
REMARK    2  A    between atoms: C_1  and  N_14
REMARK    3  A    between atoms: C_1  and  C_18
REMARK    4  A    between atoms: C_4  and  C_9
REMARK    5  A    between atoms: C_9  and  N_10
REMARK    6  A    between atoms: C_18  and  C_19
REMARK    7  A    between atoms: C_22  and  C_25
REMARK                            x       y       z     vdW  Elec       q    Type
REMARK                         _______ _______ _______ _____ _____    ______ ____
ROOT
ATOM      1  C   UNL     1      33.446 -15.268 -24.750  0.00  0.00    +0.017 C 
ENDROOT
BRANCH   1   8
ATOM      2  O   UNL     1      33.526 -13.102 -25.734  0.00  0.00    -0.277 OA
ATOM      3  N   UNL     1      32.815 -13.238 -23.535  0.00  0.00    -0.285 N 
ATOM      4  C   UNL     1      32.498 -11.817 -23.374  0.00  0.00    +0.054 C 
ATOM      5  C   UNL     1      31.649 -11.776 -22.102  0.00  0.00    +0.019 C 
ATOM      6  C   UNL     1      32.196 -12.933 -21.275  0.00  0.00    +0.023 C 
ATOM      7  C   UNL     1      32.499 -13.992 -22.325  0.00  0.00    +0.093 C 
ATOM      8  C   UNL     1      33.269 -13.770 -24.732  0.00  0.00    +0.205 C 
BRANCH   4   9
ATOM      9  C   UNL     1      33.765 -10.972 -23.250  0.00  0.00    -0.066 C 
BRANCH   9  10
ATOM     10  N   UNL     1      34.105 -10.358 -24.523  0.00  0.00    +0.382 N 
ATOM     11  H   UNL     1      35.058 -10.613 -24.780  0.00  0.00    -0.089 HD
ATOM     12  H   UNL     1      34.035  -9.343 -24.441  0.00  0.00    -0.089 HD
ATOM     13  H   UNL     1      33.460 -10.686 -25.243  0.00  0.00    -0.089 HD
ENDBRANCH   9  10
ENDBRANCH   4   9
ENDBRANCH   1   8
BRANCH   1  14
ATOM     14  N   UNL     1      33.233 -15.665 -26.136  0.00  0.00    +0.388 N 
ATOM     15  H   UNL     1      32.240 -15.834 -26.292  0.00  0.00    -0.089 HD
ATOM     16  H   UNL     1      33.758 -16.519 -26.329  0.00  0.00    -0.089 HD
ATOM     17  H   UNL     1      33.554 -14.922 -26.756  0.00  0.00    -0.089 HD
ENDBRANCH   1  14
BRANCH   1  18
ATOM     18  C   UNL     1      34.843 -15.665 -24.272  0.00  0.00    +0.013 C 
BRANCH  18  19
ATOM     19  C   UNL     1      34.820 -16.830 -23.310  0.00  0.00    -0.024 C 
ATOM     20  C   UNL     1      34.679 -18.116 -23.806  0.00  0.00    -0.004 C 
ATOM     21  C   UNL     1      34.939 -16.590 -21.951  0.00  0.00    -0.004 C 
ATOM     22  C   UNL     1      34.776 -18.967 -21.548  0.00  0.00    -0.000 C 
ATOM     23  C   UNL     1      34.657 -19.192 -22.919  0.00  0.00    -0.000 C 
ATOM     24  C   UNL     1      34.917 -17.666 -21.064  0.00  0.00    -0.000 C 
BRANCH  22  25
ATOM     25  C   UNL     1      34.754 -20.082 -20.626  0.00  0.00    -0.000 C 
ATOM     26  C   UNL     1      33.536 -20.619 -20.210  0.00  0.00    -0.000 C 
ATOM     27  C   UNL     1      35.951 -20.622 -20.156  0.00  0.00    -0.000 C 
ATOM     28  C   UNL     1      33.514 -21.695 -19.322  0.00  0.00    +0.000 C 
ATOM     29  C   UNL     1      35.930 -21.699 -19.269  0.00  0.00    +0.000 C 
ATOM     30  C   UNL     1      34.712 -22.234 -18.851  0.00  0.00    +0.000 C 
ENDBRANCH  22  25
ENDBRANCH  18  19
ENDBRANCH   1  18
TORSDOF 7
ENDMDL
MODEL 2
REMARK VINA RESULT:      -9.9      6.113     10.360
REMARK  Name = 5459374
REMARK  7 active torsions:
REMARK  status: ('A' for Active; 'I' for Inactive)
REMARK    1  A    between atoms: C_1  and  C_8
REMARK    2  A    between atoms: C_1  and  N_14
REMARK    3  A    between atoms: C_1  and  C_18
REMARK    4  A    between atoms: C_4  and  C_9
REMARK    5  A    between atoms: C_9  and  N_10
REMARK    6  A    between atoms: C_18  and  C_19
REMARK    7  A    between atoms: C_22  and  C_25
REMARK                            x       y       z     vdW  Elec       q    Type
REMARK                         _______ _______ _______ _____ _____    ______ ____
ROOT
ATOM      1  C   UNL     1      36.438 -21.538 -17.119  0.00  0.00    +0.017 C 
ENDROOT
BRANCH   1   8
ATOM      2  O   UNL     1      38.122 -22.852 -16.066  0.00  0.00    -0.277 OA
ATOM      3  N   UNL     1      35.928 -23.252 -15.446  0.00  0.00    -0.285 N 
ATOM      4  C   UNL     1      36.226 -24.243 -14.409  0.00  0.00    +0.054 C 
ATOM      5  C   UNL     1      34.921 -24.344 -13.616  0.00  0.00    +0.019 C 
ATOM      6  C   UNL     1      33.850 -24.060 -14.663  0.00  0.00    +0.023 C 
ATOM      7  C   UNL     1      34.494 -22.989 -15.531  0.00  0.00    +0.093 C 
ATOM      8  C   UNL     1      36.919 -22.604 -16.165  0.00  0.00    +0.205 C 
BRANCH   4   9
ATOM      9  C   UNL     1      36.636 -25.583 -15.018  0.00  0.00    -0.066 C 
BRANCH   9  10
ATOM     10  N   UNL     1      38.083 -25.700 -15.086  0.00  0.00    +0.382 N 
ATOM     11  H   UNL     1      38.371 -26.593 -14.684  0.00  0.00    -0.089 HD
ATOM     12  H   UNL     1      38.512 -24.937 -14.561  0.00  0.00    -0.089 HD
ATOM     13  H   UNL     1      38.384 -25.654 -16.059  0.00  0.00    -0.089 HD
ENDBRANCH   9  10
ENDBRANCH   4   9
ENDBRANCH   1   8
BRANCH   1  14
ATOM     14  N   UNL     1      37.449 -20.489 -17.068  0.00  0.00    +0.388 N 
ATOM     15  H   UNL     1      36.992 -19.581 -16.986  0.00  0.00    -0.089 HD
ATOM     16  H   UNL     1      38.007 -20.514 -17.921  0.00  0.00    -0.089 HD
ATOM     17  H   UNL     1      38.055 -20.639 -16.261  0.00  0.00    -0.089 HD
ENDBRANCH   1  14
BRANCH   1  18
ATOM     18  C   UNL     1      36.290 -22.092 -18.536  0.00  0.00    +0.013 C 
BRANCH  18  19
ATOM     19  C   UNL     1      35.956 -21.020 -19.548  0.00  0.00    -0.024 C 
ATOM     20  C   UNL     1      34.638 -20.837 -19.932  0.00  0.00    -0.004 C 
ATOM     21  C   UNL     1      36.976 -20.242 -20.072  0.00  0.00    -0.004 C 
ATOM     22  C   UNL     1      35.344 -19.057 -21.403  0.00  0.00    -0.000 C 
ATOM     23  C   UNL     1      34.330 -19.849 -20.866  0.00  0.00    -0.000 C 
ATOM     24  C   UNL     1      36.668 -19.254 -21.007  0.00  0.00    -0.000 C 
BRANCH  22  25
ATOM     25  C   UNL     1      35.026 -18.031 -22.373  0.00  0.00    -0.000 C 
ATOM     26  C   UNL     1      34.794 -16.721 -21.952  0.00  0.00    -0.000 C 
ATOM     27  C   UNL     1      34.953 -18.351 -23.728  0.00  0.00    -0.000 C 
ATOM     28  C   UNL     1      34.489 -15.732 -22.887  0.00  0.00    +0.000 C 
ATOM     29  C   UNL     1      34.648 -17.361 -24.663  0.00  0.00    +0.000 C 
ATOM     30  C   UNL     1      34.415 -16.052 -24.242  0.00  0.00    +0.000 C 
ENDBRANCH  22  25
ENDBRANCH  18  19
ENDBRANCH   1  18
TORSDOF 7
ENDMDL
MODEL 3
REMARK VINA RESULT:      -9.8      6.532     10.374
REMARK  Name = 5459374
REMARK  7 active torsions:
REMARK  status: ('A' for Active; 'I' for Inactive)
REMARK    1  A    between atoms: C_1  and  C_8
REMARK    2  A    between atoms: C_1  and  N_14
REMARK    3  A    between atoms: C_1  and  C_18
REMARK    4  A    between atoms: C_4  and  C_9
REMARK    5  A    between atoms: C_9  and  N_10
REMARK    6  A    between atoms: C_18  and  C_19
REMARK    7  A    between atoms: C_22  and  C_25
REMARK                            x       y       z     vdW  Elec       q    Type
REMARK                         _______ _______ _______ _____ _____    ______ ____
ROOT
ATOM      1  C   UNL     1      33.931 -22.926 -16.372  0.00  0.00    +0.017 C 
ENDROOT
BRANCH   1   8
ATOM      2  O   UNL     1      33.479 -24.399 -14.557  0.00  0.00    -0.277 OA
ATOM      3  N   UNL     1      31.662 -23.397 -15.583  0.00  0.00    -0.285 N 
ATOM      4  C   UNL     1      30.643 -23.938 -14.680  0.00  0.00    +0.054 C 
ATOM      5  C   UNL     1      29.410 -23.076 -14.966  0.00  0.00    +0.019 C 
ATOM      6  C   UNL     1      29.568 -22.714 -16.438  0.00  0.00    +0.023 C 
ATOM      7  C   UNL     1      31.069 -22.515 -16.584  0.00  0.00    +0.093 C 
ATOM      8  C   UNL     1      33.015 -23.646 -15.414  0.00  0.00    +0.205 C 
BRANCH   4   9
ATOM      9  C   UNL     1      30.386 -25.419 -14.949  0.00  0.00    -0.066 C 
BRANCH   9  10
ATOM     10  N   UNL     1      29.076 -25.816 -14.458  0.00  0.00    +0.382 N 
ATOM     11  H   UNL     1      29.159 -26.690 -13.939  0.00  0.00    -0.089 HD
ATOM     12  H   UNL     1      28.442 -25.947 -15.246  0.00  0.00    -0.089 HD
ATOM     13  H   UNL     1      28.709 -25.089 -13.843  0.00  0.00    -0.089 HD
ENDBRANCH   9  10
ENDBRANCH   4   9
ENDBRANCH   1   8
BRANCH   1  14
ATOM     14  N   UNL     1      35.281 -23.301 -15.970  0.00  0.00    +0.388 N 
ATOM     15  H   UNL     1      35.944 -22.611 -16.323  0.00  0.00    -0.089 HD
ATOM     16  H   UNL     1      35.508 -24.218 -16.353  0.00  0.00    -0.089 HD
ATOM     17  H   UNL     1      35.336 -23.335 -14.952  0.00  0.00    -0.089 HD
ENDBRANCH   1  14
BRANCH   1  18
ATOM     18  C   UNL     1      33.653 -23.339 -17.818  0.00  0.00    +0.013 C 
BRANCH  18  19
ATOM     19  C   UNL     1      33.922 -22.226 -18.803  0.00  0.00    -0.024 C 
ATOM     20  C   UNL     1      32.859 -21.490 -19.302  0.00  0.00    -0.004 C 
ATOM     21  C   UNL     1      35.226 -21.963 -19.189  0.00  0.00    -0.004 C 
ATOM     22  C   UNL     1      34.415 -20.185 -20.610  0.00  0.00    -0.000 C 
ATOM     23  C   UNL     1      33.108 -20.463 -20.212  0.00  0.00    -0.000 C 
ATOM     24  C   UNL     1      35.475 -20.935 -20.099  0.00  0.00    -0.000 C 
BRANCH  22  25
ATOM     25  C   UNL     1      34.673 -19.119 -21.555  0.00  0.00    -0.000 C 
ATOM     26  C   UNL     1      34.766 -17.801 -21.110  0.00  0.00    -0.000 C 
ATOM     27  C   UNL     1      34.833 -19.411 -22.909  0.00  0.00    -0.000 C 
ATOM     28  C   UNL     1      35.017 -16.774 -22.020  0.00  0.00    +0.000 C 
ATOM     29  C   UNL     1      35.084 -18.384 -23.819  0.00  0.00    +0.000 C 
ATOM     30  C   UNL     1      35.176 -17.066 -23.375  0.00  0.00    +0.000 C 
ENDBRANCH  22  25
ENDBRANCH  18  19
ENDBRANCH   1  18
TORSDOF 7
ENDMDL
MODEL 4
REMARK VINA RESULT:      -9.7      1.383      1.877
REMARK  Name = 5459374
REMARK  7 active torsions:
REMARK  status: ('A' for Active; 'I' for Inactive)
REMARK    1  A    between atoms: C_1  and  C_8
REMARK    2  A    between atoms: C_1  and  N_14
REMARK    3  A    between atoms: C_1  and  C_18
REMARK    4  A    between atoms: C_4  and  C_9
REMARK    5  A    between atoms: C_9  and  N_10
REMARK    6  A    between atoms: C_18  and  C_19
REMARK    7  A    between atoms: C_22  and  C_25
REMARK                            x       y       z     vdW  Elec       q    Type
REMARK                         _______ _______ _______ _____ _____    ______ ____
ROOT
ATOM      1  C   UNL     1      33.341 -13.356 -23.268  0.00  0.00    +0.017 C 
ENDROOT
BRANCH   1   8
ATOM      2  O   UNL     1      34.159 -11.765 -24.839  0.00  0.00    -0.277 OA
ATOM      3  N   UNL     1      32.778 -10.976 -23.158  0.00  0.00    -0.285 N 
ATOM      4  C   UNL     1      32.717  -9.590 -23.630  0.00  0.00    +0.054 C 
ATOM      5  C   UNL     1      31.535  -8.995 -22.860  0.00  0.00    +0.019 C 
ATOM      6  C   UNL     1      31.550  -9.763 -21.544  0.00  0.00    +0.023 C 
ATOM      7  C   UNL     1      31.952 -11.167 -21.970  0.00  0.00    +0.093 C 
ATOM      8  C   UNL     1      33.470 -11.965 -23.838  0.00  0.00    +0.205 C 
BRANCH   4   9
ATOM      9  C   UNL     1      34.021  -8.846 -23.349  0.00  0.00    -0.066 C 
BRANCH   9  10
ATOM     10  N   UNL     1      34.897  -8.879 -24.510  0.00  0.00    +0.382 N 
ATOM     11  H   UNL     1      34.357  -9.140 -25.335  0.00  0.00    -0.089 HD
ATOM     12  H   UNL     1      35.638  -9.563 -24.358  0.00  0.00    -0.089 HD
ATOM     13  H   UNL     1      35.309  -7.957 -24.652  0.00  0.00    -0.089 HD
ENDBRANCH   9  10
ENDBRANCH   4   9
ENDBRANCH   1   8
BRANCH   1  14
ATOM     14  N   UNL     1      32.017 -13.815 -23.667  0.00  0.00    +0.388 N 
ATOM     15  H   UNL     1      31.944 -14.820 -23.506  0.00  0.00    -0.089 HD
ATOM     16  H   UNL     1      31.873 -13.618 -24.657  0.00  0.00    -0.089 HD
ATOM     17  H   UNL     1      31.308 -13.330 -23.118  0.00  0.00    -0.089 HD
ENDBRANCH   1  14
BRANCH   1  18
ATOM     18  C   UNL     1      34.432 -14.279 -23.812  0.00  0.00    +0.013 C 
BRANCH  18  19
ATOM     19  C   UNL     1      34.520 -15.584 -23.056  0.00  0.00    -0.024 C 
ATOM     20  C   UNL     1      34.632 -16.771 -23.762  0.00  0.00    -0.004 C 
ATOM     21  C   UNL     1      34.486 -15.569 -21.671  0.00  0.00    -0.004 C 
ATOM     22  C   UNL     1      34.681 -17.978 -21.671  0.00  0.00    -0.000 C 
ATOM     23  C   UNL     1      34.713 -17.976 -23.064  0.00  0.00    -0.000 C 
ATOM     24  C   UNL     1      34.567 -16.774 -20.973  0.00  0.00    -0.000 C 
BRANCH  22  25
ATOM     25  C   UNL     1      34.765 -19.227 -20.946  0.00  0.00    -0.000 C 
ATOM     26  C   UNL     1      33.600 -19.897 -20.572  0.00  0.00    -0.000 C 
ATOM     27  C   UNL     1      36.011 -19.763 -20.622  0.00  0.00    -0.000 C 
ATOM     28  C   UNL     1      33.681 -21.102 -19.874  0.00  0.00    +0.000 C 
ATOM     29  C   UNL     1      36.092 -20.969 -19.924  0.00  0.00    +0.000 C 
ATOM     30  C   UNL     1      34.927 -21.638 -19.550  0.00  0.00    +0.000 C 
ENDBRANCH  22  25
ENDBRANCH  18  19
ENDBRANCH   1  18
TORSDOF 7
ENDMDL
MODEL 5
REMARK VINA RESULT:      -9.3      2.750      4.428
REMARK  Name = 5459374
REMARK  7 active torsions:
REMARK  status: ('A' for Active; 'I' for Inactive)
REMARK    1  A    between atoms: C_1  and  C_8
REMARK    2  A    between atoms: C_1  and  N_14
REMARK    3  A    between atoms: C_1  and  C_18
REMARK    4  A    between atoms: C_4  and  C_9
REMARK    5  A    between atoms: C_9  and  N_10
REMARK    6  A    between atoms: C_18  and  C_19
REMARK    7  A    between atoms: C_22  and  C_25
REMARK                            x       y       z     vdW  Elec       q    Type
REMARK                         _______ _______ _______ _____ _____    ______ ____
ROOT
ATOM      1  C   UNL     1      35.771 -18.257 -22.319  0.00  0.00    +0.017 C 
ENDROOT
BRANCH   1   8
ATOM      2  O   UNL     1      35.143 -16.850 -20.505  0.00  0.00    -0.277 OA
ATOM      3  N   UNL     1      34.567 -16.149 -22.634  0.00  0.00    -0.285 N 
ATOM      4  C   UNL     1      33.995 -14.860 -22.235  0.00  0.00    +0.054 C 
ATOM      5  C   UNL     1      33.905 -14.080 -23.549  0.00  0.00    +0.019 C 
ATOM      6  C   UNL     1      33.675 -15.169 -24.591  0.00  0.00    +0.023 C 
ATOM      7  C   UNL     1      34.536 -16.316 -24.084  0.00  0.00    +0.093 C 
ATOM      8  C   UNL     1      35.137 -17.025 -21.724  0.00  0.00    +0.205 C 
BRANCH   4   9
ATOM      9  C   UNL     1      32.629 -15.035 -21.575  0.00  0.00    -0.066 C 
BRANCH   9  10
ATOM     10  N   UNL     1      32.738 -14.949 -20.128  0.00  0.00    +0.382 N 
ATOM     11  H   UNL     1      33.185 -15.793 -19.770  0.00  0.00    -0.089 HD
ATOM     12  H   UNL     1      31.806 -14.859 -19.721  0.00  0.00    -0.089 HD
ATOM     13  H   UNL     1      33.299 -14.135 -19.876  0.00  0.00    -0.089 HD
ENDBRANCH   9  10
ENDBRANCH   4   9
ENDBRANCH   1   8
BRANCH   1  14
ATOM     14  N   UNL     1      36.781 -18.676 -21.356  0.00  0.00    +0.388 N 
ATOM     15  H   UNL     1      37.703 -18.388 -21.685  0.00  0.00    -0.089 HD
ATOM     16  H   UNL     1      36.756 -19.691 -21.257  0.00  0.00    -0.089 HD
ATOM     17  H   UNL     1      36.591 -18.242 -20.453  0.00  0.00    -0.089 HD
ENDBRANCH   1  14
BRANCH   1  18
ATOM     18  C   UNL     1      34.734 -19.358 -22.543  0.00  0.00    +0.013 C 
BRANCH  18  19
ATOM     19  C   UNL     1      34.463 -20.166 -21.295  0.00  0.00    -0.024 C 
ATOM     20  C   UNL     1      35.494 -20.889 -20.719  0.00  0.00    -0.004 C 
ATOM     21  C   UNL     1      33.189 -20.167 -20.752  0.00  0.00    -0.004 C 
ATOM     22  C   UNL     1      33.967 -21.647 -19.007  0.00  0.00    -0.000 C 
ATOM     23  C   UNL     1      35.244 -21.636 -19.567  0.00  0.00    -0.000 C 
ATOM     24  C   UNL     1      32.939 -20.913 -19.600  0.00  0.00    -0.000 C 
BRANCH  22  25
ATOM     25  C   UNL     1      33.707 -22.420 -17.812  0.00  0.00    -0.000 C 
ATOM     26  C   UNL     1      32.395 -22.729 -17.453  0.00  0.00    -0.000 C 
ATOM     27  C   UNL     1      34.768 -22.859 -17.021  0.00  0.00    -0.000 C 
ATOM     28  C   UNL     1      32.144 -23.476 -16.302  0.00  0.00    +0.000 C 
ATOM     29  C   UNL     1      34.517 -23.606 -15.869  0.00  0.00    +0.000 C 
ATOM     30  C   UNL     1      33.205 -23.914 -15.510  0.00  0.00    +0.000 C 
ENDBRANCH  22  25
ENDBRANCH  18  19
ENDBRANCH   1  18
TORSDOF 7
ENDMDL
MODEL 6
REMARK VINA RESULT:      -9.2      1.606      2.274
REMARK  Name = 5459374
REMARK  7 active torsions:
REMARK  status: ('A' for Active; 'I' for Inactive)
REMARK    1  A    between atoms: C_1  and  C_8
REMARK    2  A    between atoms: C_1  and  N_14
REMARK    3  A    between atoms: C_1  and  C_18
REMARK    4  A    between atoms: C_4  and  C_9
REMARK    5  A    between atoms: C_9  and  N_10
REMARK    6  A    between atoms: C_18  and  C_19
REMARK    7  A    between atoms: C_22  and  C_25
REMARK                            x       y       z     vdW  Elec       q    Type
REMARK                         _______ _______ _______ _____ _____    ______ ____
ROOT
ATOM      1  C   UNL     1      33.024 -14.044 -23.991  0.00  0.00    +0.017 C 
ENDROOT
BRANCH   1   8
ATOM      2  O   UNL     1      32.280 -12.491 -22.347  0.00  0.00    -0.277 OA
ATOM      3  N   UNL     1      33.621 -11.670 -24.045  0.00  0.00    -0.285 N 
ATOM      4  C   UNL     1      33.718 -10.301 -23.533  0.00  0.00    +0.054 C 
ATOM      5  C   UNL     1      34.885  -9.700 -24.321  0.00  0.00    +0.019 C 
ATOM      6  C   UNL     1      34.818 -10.426 -25.659  0.00  0.00    +0.023 C 
ATOM      7  C   UNL     1      34.408 -11.837 -25.265  0.00  0.00    +0.093 C 
ATOM      8  C   UNL     1      32.934 -12.670 -23.376  0.00  0.00    +0.205 C 
BRANCH   4   9
ATOM      9  C   UNL     1      32.418  -9.530 -23.751  0.00  0.00    -0.066 C 
BRANCH   9  10
ATOM     10  N   UNL     1      31.661  -9.430 -22.513  0.00  0.00    +0.382 N 
ATOM     11  H   UNL     1      31.164 -10.304 -22.347  0.00  0.00    -0.089 HD
ATOM     12  H   UNL     1      30.989  -8.665 -22.585  0.00  0.00    -0.089 HD
ATOM     13  H   UNL     1      32.299  -9.249 -21.737  0.00  0.00    -0.089 HD
ENDBRANCH   9  10
ENDBRANCH   4   9
ENDBRANCH   1   8
BRANCH   1  14
ATOM     14  N   UNL     1      32.666 -13.864 -25.393  0.00  0.00    +0.388 N 
ATOM     15  H   UNL     1      32.174 -12.977 -25.506  0.00  0.00    -0.089 HD
ATOM     16  H   UNL     1      32.061 -14.629 -25.689  0.00  0.00    -0.089 HD
ATOM     17  H   UNL     1      33.512 -13.859 -25.962  0.00  0.00    -0.089 HD
ENDBRANCH   1  14
BRANCH   1  18
ATOM     18  C   UNL     1      34.434 -14.620 -23.853  0.00  0.00    +0.013 C 
BRANCH  18  19
ATOM     19  C   UNL     1      34.461 -15.911 -23.068  0.00  0.00    -0.024 C 
ATOM     20  C   UNL     1      34.878 -17.075 -23.691  0.00  0.00    -0.004 C 
ATOM     21  C   UNL     1      34.067 -15.904 -21.740  0.00  0.00    -0.004 C 
ATOM     22  C   UNL     1      34.510 -18.277 -21.628  0.00  0.00    -0.000 C 
ATOM     23  C   UNL     1      34.902 -18.267 -22.966  0.00  0.00    -0.000 C 
ATOM     24  C   UNL     1      34.092 -17.095 -21.015  0.00  0.00    -0.000 C 
BRANCH  22  25
ATOM     25  C   UNL     1      34.535 -19.512 -20.875  0.00  0.00    -0.000 C 
ATOM     26  C   UNL     1      33.341 -20.095 -20.451  0.00  0.00    -0.000 C 
ATOM     27  C   UNL     1      35.753 -20.121 -20.575  0.00  0.00    -0.000 C 
ATOM     28  C   UNL     1      33.365 -21.287 -19.726  0.00  0.00    +0.000 C 
ATOM     29  C   UNL     1      35.777 -21.314 -19.850  0.00  0.00    +0.000 C 
ATOM     30  C   UNL     1      34.584 -21.895 -19.426  0.00  0.00    +0.000 C 
ENDBRANCH  22  25
ENDBRANCH  18  19
ENDBRANCH   1  18
TORSDOF 7
ENDMDL
MODEL 7
REMARK VINA RESULT:      -9.1      2.664      8.835
REMARK  Name = 5459374
REMARK  7 active torsions:
REMARK  status: ('A' for Active; 'I' for Inactive)
REMARK    1  A    between atoms: C_1  and  C_8
REMARK    2  A    between atoms: C_1  and  N_14
REMARK    3  A    between atoms: C_1  and  C_18
REMARK    4  A    between atoms: C_4  and  C_9
REMARK    5  A    between atoms: C_9  and  N_10
REMARK    6  A    between atoms: C_18  and  C_19
REMARK    7  A    between atoms: C_22  and  C_25
REMARK                            x       y       z     vdW  Elec       q    Type
REMARK                         _______ _______ _______ _____ _____    ______ ____
ROOT
ATOM      1  C   UNL     1      33.804 -15.333 -21.032  0.00  0.00    +0.017 C 
ENDROOT
BRANCH   1   8
ATOM      2  O   UNL     1      34.959 -15.194 -23.109  0.00  0.00    -0.277 OA
ATOM      3  N   UNL     1      34.587 -17.309 -22.246  0.00  0.00    -0.285 N 
ATOM      4  C   UNL     1      35.318 -18.043 -23.283  0.00  0.00    +0.054 C 
ATOM      5  C   UNL     1      35.511 -19.435 -22.675  0.00  0.00    +0.019 C 
ATOM      6  C   UNL     1      34.280 -19.609 -21.794  0.00  0.00    +0.023 C 
ATOM      7  C   UNL     1      34.065 -18.214 -21.225  0.00  0.00    +0.093 C 
ATOM      8  C   UNL     1      34.506 -15.926 -22.228  0.00  0.00    +0.205 C 
BRANCH   4   9
ATOM      9  C   UNL     1      34.534 -18.089 -24.592  0.00  0.00    -0.066 C 
BRANCH   9  10
ATOM     10  N   UNL     1      34.904 -16.980 -25.457  0.00  0.00    +0.382 N 
ATOM     11  H   UNL     1      35.610 -16.409 -24.993  0.00  0.00    -0.089 HD
ATOM     12  H   UNL     1      34.080 -16.410 -25.652  0.00  0.00    -0.089 HD
ATOM     13  H   UNL     1      35.282 -17.342 -26.333  0.00  0.00    -0.089 HD
ENDBRANCH   9  10
ENDBRANCH   4   9
ENDBRANCH   1   8
BRANCH   1  14
ATOM     14  N   UNL     1      34.619 -14.194 -20.631  0.00  0.00    +0.388 N 
ATOM     15  H   UNL     1      34.304 -13.359 -21.125  0.00  0.00    -0.089 HD
ATOM     16  H   UNL     1      35.596 -14.377 -20.861  0.00  0.00    -0.089 HD
ATOM     17  H   UNL     1      34.530 -14.048 -19.625  0.00  0.00    -0.089 HD
ENDBRANCH   1  14
BRANCH   1  18
ATOM     18  C   UNL     1      32.383 -14.894 -21.388  0.00  0.00    +0.013 C 
BRANCH  18  19
ATOM     19  C   UNL     1      32.248 -13.394 -21.501  0.00  0.00    -0.024 C 
ATOM     20  C   UNL     1      31.873 -12.660 -20.387  0.00  0.00    -0.004 C 
ATOM     21  C   UNL     1      32.500 -12.781 -22.717  0.00  0.00    -0.004 C 
ATOM     22  C   UNL     1      31.998 -10.643 -21.709  0.00  0.00    -0.000 C 
ATOM     23  C   UNL     1      31.747 -11.275 -20.492  0.00  0.00    -0.000 C 
ATOM     24  C   UNL     1      32.375 -11.396 -22.823  0.00  0.00    -0.000 C 
BRANCH  22  25
ATOM     25  C   UNL     1      31.869  -9.206 -21.820  0.00  0.00    -0.000 C 
ATOM     26  C   UNL     1      31.385  -8.637 -22.997  0.00  0.00    -0.000 C 
ATOM     27  C   UNL     1      32.225  -8.389 -20.746  0.00  0.00    -0.000 C 
ATOM     28  C   UNL     1      31.259  -7.252 -23.103  0.00  0.00    +0.000 C 
ATOM     29  C   UNL     1      32.099  -7.004 -20.852  0.00  0.00    +0.000 C 
ATOM     30  C   UNL     1      31.616  -6.435 -22.030  0.00  0.00    +0.000 C 
ENDBRANCH  22  25
ENDBRANCH  18  19
ENDBRANCH   1  18
TORSDOF 7
ENDMDL
MODEL 8
REMARK VINA RESULT:      -9.0      1.394      2.233
REMARK  Name = 5459374
REMARK  7 active torsions:
REMARK  status: ('A' for Active; 'I' for Inactive)
REMARK    1  A    between atoms: C_1  and  C_8
REMARK    2  A    between atoms: C_1  and  N_14
REMARK    3  A    between atoms: C_1  and  C_18
REMARK    4  A    between atoms: C_4  and  C_9
REMARK    5  A    between atoms: C_9  and  N_10
REMARK    6  A    between atoms: C_18  and  C_19
REMARK    7  A    between atoms: C_22  and  C_25
REMARK                            x       y       z     vdW  Elec       q    Type
REMARK                         _______ _______ _______ _____ _____    ______ ____
ROOT
ATOM      1  C   UNL     1      34.147 -17.129 -24.207  0.00  0.00    +0.017 C 
ENDROOT
BRANCH   1   8
ATOM      2  O   UNL     1      33.899 -15.260 -25.660  0.00  0.00    -0.277 OA
ATOM      3  N   UNL     1      33.352 -14.946 -23.433  0.00  0.00    -0.285 N 
ATOM      4  C   UNL     1      32.874 -13.568 -23.572  0.00  0.00    +0.054 C 
ATOM      5  C   UNL     1      32.109 -13.316 -22.270  0.00  0.00    +0.019 C 
ATOM      6  C   UNL     1      32.845 -14.182 -21.255  0.00  0.00    +0.023 C 
ATOM      7  C   UNL     1      33.207 -15.421 -22.060  0.00  0.00    +0.093 C 
ATOM      8  C   UNL     1      33.789 -15.696 -24.513  0.00  0.00    +0.205 C 
BRANCH   4   9
ATOM      9  C   UNL     1      34.033 -12.591 -23.758  0.00  0.00    -0.066 C 
BRANCH   9  10
ATOM     10  N   UNL     1      34.039 -12.045 -25.105  0.00  0.00    +0.382 N 
ATOM     11  H   UNL     1      33.085 -12.014 -25.464  0.00  0.00    -0.089 HD
ATOM     12  H   UNL     1      34.611 -12.636 -25.710  0.00  0.00    -0.089 HD
ATOM     13  H   UNL     1      34.426 -11.101 -25.088  0.00  0.00    -0.089 HD
ENDBRANCH   9  10
ENDBRANCH   4   9
ENDBRANCH   1   8
BRANCH   1  14
ATOM     14  N   UNL     1      34.384 -17.753 -25.502  0.00  0.00    +0.388 N 
ATOM     15  H   UNL     1      34.330 -17.046 -26.235  0.00  0.00    -0.089 HD
ATOM     16  H   UNL     1      33.676 -18.470 -25.668  0.00  0.00    -0.089 HD
ATOM     17  H   UNL     1      35.309 -18.182 -25.509  0.00  0.00    -0.089 HD
ENDBRANCH   1  14
BRANCH   1  18
ATOM     18  C   UNL     1      35.390 -17.210 -23.320  0.00  0.00    +0.013 C 
BRANCH  18  19
ATOM     19  C   UNL     1      35.274 -18.272 -22.251  0.00  0.00    -0.024 C 
ATOM     20  C   UNL     1      36.409 -18.666 -21.562  0.00  0.00    -0.004 C 
ATOM     21  C   UNL     1      34.035 -18.830 -21.982  0.00  0.00    -0.004 C 
ATOM     22  C   UNL     1      35.063 -20.218 -20.292  0.00  0.00    -0.000 C 
ATOM     23  C   UNL     1      36.302 -19.647 -20.575  0.00  0.00    -0.000 C 
ATOM     24  C   UNL     1      33.928 -19.810 -20.996  0.00  0.00    -0.000 C 
BRANCH  22  25
ATOM     25  C   UNL     1      34.950 -21.235 -19.268  0.00  0.00    -0.000 C 
ATOM     26  C   UNL     1      36.032 -21.505 -18.431  0.00  0.00    -0.000 C 
ATOM     27  C   UNL     1      33.759 -21.944 -19.118  0.00  0.00    -0.000 C 
ATOM     28  C   UNL     1      35.924 -22.484 -17.444  0.00  0.00    +0.000 C 
ATOM     29  C   UNL     1      33.649 -22.924 -18.130  0.00  0.00    +0.000 C 
ATOM     30  C   UNL     1      34.732 -23.194 -17.294  0.00  0.00    +0.000 C 
ENDBRANCH  22  25
ENDBRANCH  18  19
ENDBRANCH   1  18
TORSDOF 7
ENDMDL
MODEL 9
REMARK VINA RESULT:      -8.9      6.048      9.970
REMARK  Name = 5459374
REMARK  7 active torsions:
REMARK  status: ('A' for Active; 'I' for Inactive)
REMARK    1  A    between atoms: C_1  and  C_8
REMARK    2  A    between atoms: C_1  and  N_14
REMARK    3  A    between atoms: C_1  and  C_18
REMARK    4  A    between atoms: C_4  and  C_9
REMARK    5  A    between atoms: C_9  and  N_10
REMARK    6  A    between atoms: C_18  and  C_19
REMARK    7  A    between atoms: C_22  and  C_25
REMARK                            x       y       z     vdW  Elec       q    Type
REMARK                         _______ _______ _______ _____ _____    ______ ____
ROOT
ATOM      1  C   UNL     1      33.570 -22.885 -17.090  0.00  0.00    +0.017 C 
ENDROOT
BRANCH   1   8
ATOM      2  O   UNL     1      31.297 -23.236 -17.704  0.00  0.00    -0.277 OA
ATOM      3  N   UNL     1      31.806 -23.317 -15.448  0.00  0.00    -0.285 N 
ATOM      4  C   UNL     1      30.465 -23.686 -14.988  0.00  0.00    +0.054 C 
ATOM      5  C   UNL     1      30.692 -24.163 -13.551  0.00  0.00    +0.019 C 
ATOM      6  C   UNL     1      31.879 -23.328 -13.086  0.00  0.00    +0.023 C 
ATOM      7  C   UNL     1      32.746 -23.239 -14.333  0.00  0.00    +0.093 C 
ATOM      8  C   UNL     1      32.119 -23.163 -16.789  0.00  0.00    +0.205 C 
BRANCH   4   9
ATOM      9  C   UNL     1      29.505 -22.500 -15.057  0.00  0.00    -0.066 C 
BRANCH   9  10
ATOM     10  N   UNL     1      28.617 -22.619 -16.203  0.00  0.00    +0.382 N 
ATOM     11  H   UNL     1      28.284 -23.580 -16.276  0.00  0.00    -0.089 HD
ATOM     12  H   UNL     1      29.123 -22.368 -17.053  0.00  0.00    -0.089 HD
ATOM     13  H   UNL     1      27.822 -21.991 -16.083  0.00  0.00    -0.089 HD
ENDBRANCH   9  10
ENDBRANCH   4   9
ENDBRANCH   1   8
BRANCH   1  14
ATOM     14  N   UNL     1      34.324 -23.751 -16.192  0.00  0.00    +0.388 N 
ATOM     15  H   UNL     1      34.023 -23.588 -15.231  0.00  0.00    -0.089 HD
ATOM     16  H   UNL     1      35.319 -23.544 -16.277  0.00  0.00    -0.089 HD
ATOM     17  H   UNL     1      34.158 -24.726 -16.441  0.00  0.00    -0.089 HD
ENDBRANCH   1  14
BRANCH   1  18
ATOM     18  C   UNL     1      33.899 -23.188 -18.552  0.00  0.00    +0.013 C 
BRANCH  18  19
ATOM     19  C   UNL     1      34.098 -21.937 -19.375  0.00  0.00    -0.024 C 
ATOM     20  C   UNL     1      32.991 -21.225 -19.807  0.00  0.00    -0.004 C 
ATOM     21  C   UNL     1      35.385 -21.526 -19.683  0.00  0.00    -0.004 C 
ATOM     22  C   UNL     1      34.463 -19.643 -20.886  0.00  0.00    -0.000 C 
ATOM     23  C   UNL     1      33.175 -20.071 -20.568  0.00  0.00    -0.000 C 
ATOM     24  C   UNL     1      35.569 -20.371 -20.444  0.00  0.00    -0.000 C 
BRANCH  22  25
ATOM     25  C   UNL     1      34.655 -18.446 -21.675  0.00  0.00    -0.000 C 
ATOM     26  C   UNL     1      34.633 -17.194 -21.060  0.00  0.00    -0.000 C 
ATOM     27  C   UNL     1      34.865 -18.543 -23.050  0.00  0.00    -0.000 C 
ATOM     28  C   UNL     1      34.820 -16.040 -21.820  0.00  0.00    +0.000 C 
ATOM     29  C   UNL     1      35.052 -17.388 -23.811  0.00  0.00    +0.000 C 
ATOM     30  C   UNL     1      35.028 -16.137 -23.196  0.00  0.00    +0.000 C 
ENDBRANCH  22  25
ENDBRANCH  18  19
ENDBRANCH   1  18
TORSDOF 7
ENDMDL
