MODEL 1
REMARK VINA RESULT:      -5.7      0.000      0.000
REMARK  Name = 6991971
REMARK  4 active torsions:
REMARK  status: ('A' for Active; 'I' for Inactive)
REMARK    1  A    between atoms: CA_1  and  N_2
REMARK    2  A    between atoms: CA_1  and  C_8
REMARK    3  A    between atoms: CA_1  and  CB_9
REMARK    4  A    between atoms: CB_9  and  CG_12
REMARK                            x       y       z     vdW  Elec       q    Type
REMARK                         _______ _______ _______ _____ _____    ______ ____
ROOT
ATOM      1  CA  ASN A   1      38.758 -25.215 -14.712  0.00  0.00    +0.049 C 
ENDROOT
BRANCH   1   2
ATOM      2  N   ASN A   1      38.114 -24.093 -15.468  0.00  0.00    +0.389 N 
ATOM      3  H1  ASN A   1      37.111 -24.095 -15.288  0.00  0.00    -0.088 HD
ATOM      4  H2  ASN A   1      38.282 -24.216 -16.466  0.00  0.00    -0.088 HD
ATOM      5  H3  ASN A   1      38.513 -23.205 -15.163  0.00  0.00    -0.088 HD
ENDBRANCH   1   2
BRANCH   1   8
ATOM      6  O   ASN A   1      40.607 -26.117 -15.886  0.00  0.00    -0.248 OA
ATOM      7  OXT ASN A   1      41.010 -24.663 -14.175  0.00  0.00    -0.248 OA
ATOM      8  C   ASN A   1      40.274 -25.335 -14.950  0.00  0.00    +0.345 C 
ENDBRANCH   1   8
BRANCH   1   9
ATOM      9  CB  ASN A   1      38.316 -25.130 -13.250  0.00  0.00    +0.074 C 
BRANCH   9  12
ATOM     10  OD1 ASN A   1      36.892 -26.322 -11.678  0.00  0.00    -0.275 OA
ATOM     11  ND2 ASN A   1      36.900 -26.972 -13.883  0.00  0.00    -0.329 N 
ATOM     12  CG  ASN A   1      37.304 -26.183 -12.826  0.00  0.00    +0.218 C 
ATOM     13 HD21 ASN A   1      36.246 -27.694 -13.736  0.00  0.00    +0.145 HD
ATOM     14 HD22 ASN A   1      37.266 -26.816 -14.782  0.00  0.00    +0.145 HD
ENDBRANCH   9  12
ENDBRANCH   1   9
TORSDOF 4
ENDMDL
MODEL 2
REMARK VINA RESULT:      -5.5      2.331      3.455
REMARK  Name = 6991971
REMARK  4 active torsions:
REMARK  status: ('A' for Active; 'I' for Inactive)
REMARK    1  A    between atoms: CA_1  and  N_2
REMARK    2  A    between atoms: CA_1  and  C_8
REMARK    3  A    between atoms: CA_1  and  CB_9
REMARK    4  A    between atoms: CB_9  and  CG_12
REMARK                            x       y       z     vdW  Elec       q    Type
REMARK                         _______ _______ _______ _____ _____    ______ ____
ROOT
ATOM      1  CA  ASN A   1      37.820 -25.196 -14.442  0.00  0.00    +0.049 C 
ENDROOT
BRANCH   1   2
ATOM      2  N   ASN A   1      38.139 -24.172 -15.488  0.00  0.00    +0.389 N 
ATOM      3  H1  ASN A   1      38.805 -24.562 -16.153  0.00  0.00    -0.088 HD
ATOM      4  H2  ASN A   1      38.544 -23.348 -15.045  0.00  0.00    -0.088 HD
ATOM      5  H3  ASN A   1      37.284 -23.909 -15.978  0.00  0.00    -0.088 HD
ENDBRANCH   1   2
BRANCH   1   8
ATOM      6  O   ASN A   1      37.946 -27.541 -14.748  0.00  0.00    -0.248 OA
ATOM      7  OXT ASN A   1      36.201 -26.413 -15.690  0.00  0.00    -0.248 OA
ATOM      8  C   ASN A   1      37.261 -26.512 -15.011  0.00  0.00    +0.345 C 
ENDBRANCH   1   8
BRANCH   1   9
ATOM      9  CB  ASN A   1      39.029 -25.329 -13.512  0.00  0.00    +0.074 C 
BRANCH   9  12
ATOM     10  OD1 ASN A   1      40.988 -24.534 -14.715  0.00  0.00    -0.275 OA
ATOM     11  ND2 ASN A   1      40.808 -26.777 -14.245  0.00  0.00    -0.329 N 
ATOM     12  CG  ASN A   1      40.367 -25.470 -14.220  0.00  0.00    +0.218 C 
ATOM     13 HD21 ASN A   1      41.664 -26.999 -14.678  0.00  0.00    +0.145 HD
ATOM     14 HD22 ASN A   1      40.266 -27.487 -13.833  0.00  0.00    +0.145 HD
ENDBRANCH   9  12
ENDBRANCH   1   9
TORSDOF 4
ENDMDL
MODEL 3
REMARK VINA RESULT:      -5.5      1.771      2.707
REMARK  Name = 6991971
REMARK  4 active torsions:
REMARK  status: ('A' for Active; 'I' for Inactive)
REMARK    1  A    between atoms: CA_1  and  N_2
REMARK    2  A    between atoms: CA_1  and  C_8
REMARK    3  A    between atoms: CA_1  and  CB_9
REMARK    4  A    between atoms: CB_9  and  CG_12
REMARK                            x       y       z     vdW  Elec       q    Type
REMARK                         _______ _______ _______ _____ _____    ______ ____
ROOT
ATOM      1  CA  ASN A   1      38.941 -25.803 -13.741  0.00  0.00    +0.049 C 
ENDROOT
BRANCH   1   2
ATOM      2  N   ASN A   1      38.130 -26.913 -14.335  0.00  0.00    +0.389 N 
ATOM      3  H1  ASN A   1      37.221 -26.953 -13.876  0.00  0.00    -0.088 HD
ATOM      4  H2  ASN A   1      38.617 -27.799 -14.202  0.00  0.00    -0.088 HD
ATOM      5  H3  ASN A   1      38.001 -26.744 -15.333  0.00  0.00    -0.088 HD
ENDBRANCH   1   2
BRANCH   1   8
ATOM      6  O   ASN A   1      40.804 -24.528 -14.458  0.00  0.00    -0.248 OA
ATOM      7  OXT ASN A   1      40.933 -26.803 -14.574  0.00  0.00    -0.248 OA
ATOM      8  C   ASN A   1      40.369 -25.705 -14.305  0.00  0.00    +0.345 C 
ENDBRANCH   1   8
BRANCH   1   9
ATOM      9  CB  ASN A   1      38.112 -24.518 -13.792  0.00  0.00    +0.074 C 
BRANCH   9  12
ATOM     10  OD1 ASN A   1      36.374 -24.773 -15.475  0.00  0.00    -0.275 OA
ATOM     11  ND2 ASN A   1      38.130 -23.354 -15.900  0.00  0.00    -0.329 N 
ATOM     12  CG  ASN A   1      37.428 -24.252 -15.124  0.00  0.00    +0.218 C 
ATOM     13 HD21 ASN A   1      37.790 -23.100 -16.789  0.00  0.00    +0.145 HD
ATOM     14 HD22 ASN A   1      38.972 -22.968 -15.567  0.00  0.00    +0.145 HD
ENDBRANCH   9  12
ENDBRANCH   1   9
TORSDOF 4
ENDMDL
MODEL 4
REMARK VINA RESULT:      -5.4      1.673      1.673
REMARK  Name = 6991971
REMARK  4 active torsions:
REMARK  status: ('A' for Active; 'I' for Inactive)
REMARK    1  A    between atoms: CA_1  and  N_2
REMARK    2  A    between atoms: CA_1  and  C_8
REMARK    3  A    between atoms: CA_1  and  CB_9
REMARK    4  A    between atoms: CB_9  and  CG_12
REMARK                            x       y       z     vdW  Elec       q    Type
REMARK                         _______ _______ _______ _____ _____    ______ ____
ROOT
ATOM      1  CA  ASN A   1      39.024 -25.721 -13.977  0.00  0.00    +0.049 C 
ENDROOT
BRANCH   1   2
ATOM      2  N   ASN A   1      38.027 -25.609 -15.089  0.00  0.00    +0.389 N 
ATOM      3  H1  ASN A   1      38.317 -24.873 -15.732  0.00  0.00    -0.088 HD
ATOM      4  H2  ASN A   1      37.111 -25.383 -14.703  0.00  0.00    -0.088 HD
ATOM      5  H3  ASN A   1      37.975 -26.497 -15.590  0.00  0.00    -0.088 HD
ENDBRANCH   1   2
BRANCH   1   8
ATOM      6  O   ASN A   1      41.005 -26.890 -14.541  0.00  0.00    -0.248 OA
ATOM      7  OXT ASN A   1      41.009 -24.613 -14.681  0.00  0.00    -0.248 OA
ATOM      8  C   ASN A   1      40.487 -25.740 -14.454  0.00  0.00    +0.345 C 
ENDBRANCH   1   8
BRANCH   1   9
ATOM      9  CB  ASN A   1      38.681 -24.677 -12.913  0.00  0.00    +0.074 C 
BRANCH   9  12
ATOM     10  OD1 ASN A   1      36.930 -26.117 -12.031  0.00  0.00    -0.275 OA
ATOM     11  ND2 ASN A   1      37.081 -23.955 -11.264  0.00  0.00    -0.329 N 
ATOM     12  CG  ASN A   1      37.482 -25.021 -12.043  0.00  0.00    +0.218 C 
ATOM     13 HD21 ASN A   1      36.312 -24.052 -10.657  0.00  0.00    +0.145 HD
ATOM     14 HD22 ASN A   1      37.561 -23.098 -11.317  0.00  0.00    +0.145 HD
ENDBRANCH   9  12
ENDBRANCH   1   9
TORSDOF 4
ENDMDL
MODEL 5
REMARK VINA RESULT:      -5.4      2.066      2.224
REMARK  Name = 6991971
REMARK  4 active torsions:
REMARK  status: ('A' for Active; 'I' for Inactive)
REMARK    1  A    between atoms: CA_1  and  N_2
REMARK    2  A    between atoms: CA_1  and  C_8
REMARK    3  A    between atoms: CA_1  and  CB_9
REMARK    4  A    between atoms: CB_9  and  CG_12
REMARK                            x       y       z     vdW  Elec       q    Type
REMARK                         _______ _______ _______ _____ _____    ______ ____
ROOT
ATOM      1  CA  ASN A   1      38.884 -25.176 -13.792  0.00  0.00    +0.049 C 
ENDROOT
BRANCH   1   2
ATOM      2  N   ASN A   1      38.311 -26.163 -12.822  0.00  0.00    +0.389 N 
ATOM      3  H1  ASN A   1      38.705 -27.085 -13.003  0.00  0.00    -0.088 HD
ATOM      4  H2  ASN A   1      37.298 -26.199 -12.932  0.00  0.00    -0.088 HD
ATOM      5  H3  ASN A   1      38.539 -25.876 -11.870  0.00  0.00    -0.088 HD
ENDBRANCH   1   2
BRANCH   1   8
ATOM      6  O   ASN A   1      40.319 -26.859 -14.638  0.00  0.00    -0.248 OA
ATOM      7  OXT ASN A   1      41.072 -24.706 -14.601  0.00  0.00    -0.248 OA
ATOM      8  C   ASN A   1      40.221 -25.619 -14.412  0.00  0.00    +0.345 C 
ENDBRANCH   1   8
BRANCH   1   9
ATOM      9  CB  ASN A   1      37.787 -24.777 -14.781  0.00  0.00    +0.074 C 
BRANCH   9  12
ATOM     10  OD1 ASN A   1      37.136 -26.937 -15.690  0.00  0.00    -0.275 OA
ATOM     11  ND2 ASN A   1      35.519 -25.586 -14.773  0.00  0.00    -0.329 N 
ATOM     12  CG  ASN A   1      36.814 -25.890 -15.139  0.00  0.00    +0.218 C 
ATOM     13 HD21 ASN A   1      34.794 -26.228 -14.953  0.00  0.00    +0.145 HD
ATOM     14 HD22 ASN A   1      35.319 -24.728 -14.335  0.00  0.00    +0.145 HD
ENDBRANCH   9  12
ENDBRANCH   1   9
TORSDOF 4
ENDMDL
MODEL 6
REMARK VINA RESULT:      -5.4      1.740      3.911
REMARK  Name = 6991971
REMARK  4 active torsions:
REMARK  status: ('A' for Active; 'I' for Inactive)
REMARK    1  A    between atoms: CA_1  and  N_2
REMARK    2  A    between atoms: CA_1  and  C_8
REMARK    3  A    between atoms: CA_1  and  CB_9
REMARK    4  A    between atoms: CB_9  and  CG_12
REMARK                            x       y       z     vdW  Elec       q    Type
REMARK                         _______ _______ _______ _____ _____    ______ ____
ROOT
ATOM      1  CA  ASN A   1      37.812 -24.884 -13.067  0.00  0.00    +0.049 C 
ENDROOT
BRANCH   1   2
ATOM      2  N   ASN A   1      36.623 -25.793 -13.141  0.00  0.00    +0.389 N 
ATOM      3  H1  ASN A   1      35.772 -25.234 -13.200  0.00  0.00    -0.088 HD
ATOM      4  H2  ASN A   1      36.589 -26.377 -12.306  0.00  0.00    -0.088 HD
ATOM      5  H3  ASN A   1      36.699 -26.386 -13.967  0.00  0.00    -0.088 HD
ENDBRANCH   1   2
BRANCH   1   8
ATOM      6  O   ASN A   1      36.990 -24.321 -10.918  0.00  0.00    -0.248 OA
ATOM      7  OXT ASN A   1      38.769 -23.154 -11.742  0.00  0.00    -0.248 OA
ATOM      8  C   ASN A   1      37.871 -24.041 -11.781  0.00  0.00    +0.345 C 
ENDBRANCH   1   8
BRANCH   1   9
ATOM      9  CB  ASN A   1      39.065 -25.701 -13.389  0.00  0.00    +0.074 C 
BRANCH   9  12
ATOM     10  OD1 ASN A   1      40.955 -25.578 -14.915  0.00  0.00    -0.275 OA
ATOM     11  ND2 ASN A   1      38.993 -24.529 -15.491  0.00  0.00    -0.329 N 
ATOM     12  CG  ASN A   1      39.792 -25.283 -14.658  0.00  0.00    +0.218 C 
ATOM     13 HD21 ASN A   1      39.350 -24.196 -16.346  0.00  0.00    +0.145 HD
ATOM     14 HD22 ASN A   1      38.067 -24.322 -15.231  0.00  0.00    +0.145 HD
ENDBRANCH   9  12
ENDBRANCH   1   9
TORSDOF 4
ENDMDL
MODEL 7
REMARK VINA RESULT:      -5.3      3.301      4.605
REMARK  Name = 6991971
REMARK  4 active torsions:
REMARK  status: ('A' for Active; 'I' for Inactive)
REMARK    1  A    between atoms: CA_1  and  N_2
REMARK    2  A    between atoms: CA_1  and  C_8
REMARK    3  A    between atoms: CA_1  and  CB_9
REMARK    4  A    between atoms: CB_9  and  CG_12
REMARK                            x       y       z     vdW  Elec       q    Type
REMARK                         _______ _______ _______ _____ _____    ______ ____
ROOT
ATOM      1  CA  ASN A   1      35.775 -24.447 -12.651  0.00  0.00    +0.049 C 
ENDROOT
BRANCH   1   2
ATOM      2  N   ASN A   1      34.349 -24.698 -13.037  0.00  0.00    +0.389 N 
ATOM      3  H1  ASN A   1      33.763 -23.944 -12.680  0.00  0.00    -0.088 HD
ATOM      4  H2  ASN A   1      34.041 -25.585 -12.641  0.00  0.00    -0.088 HD
ATOM      5  H3  ASN A   1      34.274 -24.735 -14.054  0.00  0.00    -0.088 HD
ENDBRANCH   1   2
BRANCH   1   8
ATOM      6  O   ASN A   1      37.028 -23.806 -10.747  0.00  0.00    -0.248 OA
ATOM      7  OXT ASN A   1      35.204 -25.143 -10.448  0.00  0.00    -0.248 OA
ATOM      8  C   ASN A   1      36.019 -24.463 -11.132  0.00  0.00    +0.345 C 
ENDBRANCH   1   8
BRANCH   1   9
ATOM      9  CB  ASN A   1      36.670 -25.369 -13.482  0.00  0.00    +0.074 C 
BRANCH   9  12
ATOM     10  OD1 ASN A   1      35.883 -24.690 -15.681  0.00  0.00    -0.275 OA
ATOM     11  ND2 ASN A   1      36.186 -26.927 -15.253  0.00  0.00    -0.329 N 
ATOM     12  CG  ASN A   1      36.205 -25.591 -14.913  0.00  0.00    +0.218 C 
ATOM     13 HD21 ASN A   1      35.902 -27.201 -16.155  0.00  0.00    +0.145 HD
ATOM     14 HD22 ASN A   1      36.455 -27.607 -14.594  0.00  0.00    +0.145 HD
ENDBRANCH   9  12
ENDBRANCH   1   9
TORSDOF 4
ENDMDL
MODEL 8
REMARK VINA RESULT:      -5.3      9.159     10.230
REMARK  Name = 6991971
REMARK  4 active torsions:
REMARK  status: ('A' for Active; 'I' for Inactive)
REMARK    1  A    between atoms: CA_1  and  N_2
REMARK    2  A    between atoms: CA_1  and  C_8
REMARK    3  A    between atoms: CA_1  and  CB_9
REMARK    4  A    between atoms: CB_9  and  CG_12
REMARK                            x       y       z     vdW  Elec       q    Type
REMARK                         _______ _______ _______ _____ _____    ______ ____
ROOT
ATOM      1  CA  ASN A   1      29.242 -22.824 -16.173  0.00  0.00    +0.049 C 
ENDROOT
BRANCH   1   2
ATOM      2  N   ASN A   1      30.521 -22.634 -16.929  0.00  0.00    +0.389 N 
ATOM      3  H1  ASN A   1      30.344 -22.733 -17.928  0.00  0.00    -0.088 HD
ATOM      4  H2  ASN A   1      31.199 -23.336 -16.633  0.00  0.00    -0.088 HD
ATOM      5  H3  ASN A   1      30.893 -21.703 -16.740  0.00  0.00    -0.088 HD
ENDBRANCH   1   2
BRANCH   1   8
ATOM      6  O   ASN A   1      27.423 -21.653 -17.137  0.00  0.00    -0.248 OA
ATOM      7  OXT ASN A   1      27.644 -23.878 -17.587  0.00  0.00    -0.248 OA
ATOM      8  C   ASN A   1      27.985 -22.783 -17.060  0.00  0.00    +0.345 C 
ENDBRANCH   1   8
BRANCH   1   9
ATOM      9  CB  ASN A   1      29.388 -24.056 -15.277  0.00  0.00    +0.074 C 
BRANCH   9  12
ATOM     10  OD1 ASN A   1      31.214 -22.982 -14.080  0.00  0.00    -0.275 OA
ATOM     11  ND2 ASN A   1      30.466 -25.032 -13.357  0.00  0.00    -0.329 N 
ATOM     12  CG  ASN A   1      30.452 -23.937 -14.197  0.00  0.00    +0.218 C 
ATOM     13 HD21 ASN A   1      31.113 -25.075 -12.616  0.00  0.00    +0.145 HD
ATOM     14 HD22 ASN A   1      29.831 -25.770 -13.500  0.00  0.00    +0.145 HD
ENDBRANCH   9  12
ENDBRANCH   1   9
TORSDOF 4
ENDMDL
MODEL 9
REMARK VINA RESULT:      -5.2      3.044      4.042
REMARK  Name = 6991971
REMARK  4 active torsions:
REMARK  status: ('A' for Active; 'I' for Inactive)
REMARK    1  A    between atoms: CA_1  and  N_2
REMARK    2  A    between atoms: CA_1  and  C_8
REMARK    3  A    between atoms: CA_1  and  CB_9
REMARK    4  A    between atoms: CB_9  and  CG_12
REMARK                            x       y       z     vdW  Elec       q    Type
REMARK                         _______ _______ _______ _____ _____    ______ ____
ROOT
ATOM      1  CA  ASN A   1      36.667 -23.665 -12.969  0.00  0.00    +0.049 C 
ENDROOT
BRANCH   1   2
ATOM      2  N   ASN A   1      35.187 -23.438 -13.022  0.00  0.00    +0.389 N 
ATOM      3  H1  ASN A   1      34.879 -22.999 -12.155  0.00  0.00    -0.088 HD
ATOM      4  H2  ASN A   1      34.710 -24.331 -13.139  0.00  0.00    -0.088 HD
ATOM      5  H3  ASN A   1      34.965 -22.828 -13.810  0.00  0.00    -0.088 HD
ENDBRANCH   1   2
BRANCH   1   8
ATOM      6  O   ASN A   1      38.298 -22.610 -11.615  0.00  0.00    -0.248 OA
ATOM      7  OXT ASN A   1      36.745 -23.942 -10.606  0.00  0.00    -0.248 OA
ATOM      8  C   ASN A   1      37.290 -23.373 -11.593  0.00  0.00    +0.345 C 
ENDBRANCH   1   8
BRANCH   1   9
ATOM      9  CB  ASN A   1      36.966 -25.044 -13.560  0.00  0.00    +0.074 C 
BRANCH   9  12
ATOM     10  OD1 ASN A   1      36.035 -24.455 -15.729  0.00  0.00    -0.275 OA
ATOM     11  ND2 ASN A   1      36.044 -26.662 -15.087  0.00  0.00    -0.329 N 
ATOM     12  CG  ASN A   1      36.306 -25.321 -14.902  0.00  0.00    +0.218 C 
ATOM     13 HD21 ASN A   1      35.616 -26.970 -15.919  0.00  0.00    +0.145 HD
ATOM     14 HD22 ASN A   1      36.283 -27.312 -14.387  0.00  0.00    +0.145 HD
ENDBRANCH   9  12
ENDBRANCH   1   9
TORSDOF 4
ENDMDL
