MODEL 1
REMARK VINA RESULT:      -7.5      0.000      0.000
REMARK  Name = 441140
REMARK  3 active torsions:
REMARK  status: ('A' for Active; 'I' for Inactive)
REMARK    1  A    between atoms: C_9  and  O_19
REMARK    2  A    between atoms: C_15  and  O_21
REMARK    3  A    between atoms: C_18  and  O_23
REMARK                            x       y       z     vdW  Elec       q    Type
REMARK                         _______ _______ _______ _____ _____    ______ ____
ROOT
ATOM      1 CL   UNL     1      30.919 -11.914 -21.619  0.00  0.00    -0.076 Cl
ATOM      2  O   UNL     1      31.494  -8.993 -22.302  0.00  0.00    -0.467 OA
ATOM      3  O   UNL     1      33.926  -7.271 -24.233  0.00  0.00    -0.287 OA
ATOM      4  O   UNL     1      31.340  -3.588 -22.707  0.00  0.00    -0.291 OA
ATOM      5  C   UNL     1      31.953  -7.707 -22.813  0.00  0.00    +0.237 C 
ATOM      6  C   UNL     1      30.802  -7.065 -23.621  0.00  0.00    +0.059 C 
ATOM      7  C   UNL     1      31.110  -5.608 -23.975  0.00  0.00    +0.074 C 
ATOM      8  C   UNL     1      33.182  -8.036 -23.652  0.00  0.00    +0.222 C 
ATOM      9  C   UNL     1      32.380  -6.821 -21.665  0.00  0.00    +0.162 C 
ATOM     10  C   UNL     1      30.413  -7.849 -24.879  0.00  0.00    +0.005 C 
ATOM     11  C   UNL     1      33.333  -9.468 -23.639  0.00  0.00    +0.107 C 
ATOM     12  C   UNL     1      32.317  -9.951 -22.841  0.00  0.00    +0.159 C 
ATOM     13  C   UNL     1      31.505  -4.806 -22.755  0.00  0.00    +0.176 C 
ATOM     14  C   UNL     1      32.162  -5.501 -21.623  0.00  0.00    +0.074 C 
ATOM     15  C   UNL     1      34.259 -10.284 -24.255  0.00  0.00    +0.148 C 
ATOM     16  C   UNL     1      32.183 -11.306 -22.617  0.00  0.00    +0.126 C 
ATOM     17  C   UNL     1      34.134 -11.657 -24.040  0.00  0.00    +0.075 C 
ATOM     18  C   UNL     1      33.104 -12.166 -23.227  0.00  0.00    +0.155 C 
ENDROOT
BRANCH   9  19
ATOM     19  O   UNL     1      33.018  -7.431 -20.597  0.00  0.00    -0.472 OA
ATOM     20  C   UNL     1      32.094  -7.726 -19.570  0.00  0.00    +0.252 C 
ENDBRANCH   9  19
BRANCH  15  21
ATOM     21  O   UNL     1      35.250  -9.793 -25.037  0.00  0.00    -0.471 OA
ATOM     22  C   UNL     1      35.527 -10.485 -26.256  0.00  0.00    +0.252 C 
ENDBRANCH  15  21
BRANCH  18  23
ATOM     23  O   UNL     1      33.026 -13.516 -23.048  0.00  0.00    -0.470 OA
ATOM     24  C   UNL     1      34.239 -14.254 -23.176  0.00  0.00    +0.253 C 
ENDBRANCH  18  23
TORSDOF 3
ENDMDL
MODEL 2
REMARK VINA RESULT:      -7.3     14.911     18.511
REMARK  Name = 441140
REMARK  3 active torsions:
REMARK  status: ('A' for Active; 'I' for Inactive)
REMARK    1  A    between atoms: C_9  and  O_19
REMARK    2  A    between atoms: C_15  and  O_21
REMARK    3  A    between atoms: C_18  and  O_23
REMARK                            x       y       z     vdW  Elec       q    Type
REMARK                         _______ _______ _______ _____ _____    ______ ____
ROOT
ATOM      1 CL   UNL     1      31.812 -25.304 -13.354  0.00  0.00    -0.076 Cl
ATOM      2  O   UNL     1      34.831 -25.235 -13.811  0.00  0.00    -0.467 OA
ATOM      3  O   UNL     1      37.010 -23.666 -16.135  0.00  0.00    -0.287 OA
ATOM      4  O   UNL     1      40.192 -25.968 -13.460  0.00  0.00    -0.291 OA
ATOM      5  C   UNL     1      36.212 -24.997 -14.213  0.00  0.00    +0.237 C 
ATOM      6  C   UNL     1      36.963 -24.358 -13.021  0.00  0.00    +0.059 C 
ATOM      7  C   UNL     1      38.472 -24.310 -13.270  0.00  0.00    +0.074 C 
ATOM      8  C   UNL     1      36.112 -24.088 -15.432  0.00  0.00    +0.222 C 
ATOM      9  C   UNL     1      36.857 -26.297 -14.636  0.00  0.00    +0.162 C 
ATOM     10  C   UNL     1      36.443 -22.970 -12.630  0.00  0.00    +0.005 C 
ATOM     11  C   UNL     1      34.716 -23.799 -15.633  0.00  0.00    +0.107 C 
ATOM     12  C   UNL     1      34.039 -24.496 -14.654  0.00  0.00    +0.159 C 
ATOM     13  C   UNL     1      39.018 -25.664 -13.665  0.00  0.00    +0.176 C 
ATOM     14  C   UNL     1      38.130 -26.616 -14.373  0.00  0.00    +0.074 C 
ATOM     15  C   UNL     1      34.082 -23.013 -16.572  0.00  0.00    +0.148 C 
ATOM     16  C   UNL     1      32.663 -24.434 -14.572  0.00  0.00    +0.126 C 
ATOM     17  C   UNL     1      32.691 -22.939 -16.500  0.00  0.00    +0.075 C 
ATOM     18  C   UNL     1      31.985 -23.644 -15.507  0.00  0.00    +0.155 C 
ENDROOT
BRANCH   9  19
ATOM     19  O   UNL     1      36.063 -27.203 -15.319  0.00  0.00    -0.472 OA
ATOM     20  C   UNL     1      36.702 -27.627 -16.505  0.00  0.00    +0.252 C 
ENDBRANCH   9  19
BRANCH  15  21
ATOM     21  O   UNL     1      34.763 -22.334 -17.526  0.00  0.00    -0.471 OA
ATOM     22  C   UNL     1      34.258 -22.396 -18.862  0.00  0.00    +0.252 C 
ENDBRANCH  15  21
BRANCH  18  23
ATOM     23  O   UNL     1      30.624 -23.539 -15.481  0.00  0.00    -0.470 OA
ATOM     24  C   UNL     1      30.019 -22.745 -16.498  0.00  0.00    +0.253 C 
ENDBRANCH  18  23
TORSDOF 3
ENDMDL
MODEL 3
REMARK VINA RESULT:      -6.9     15.506     18.224
REMARK  Name = 441140
REMARK  3 active torsions:
REMARK  status: ('A' for Active; 'I' for Inactive)
REMARK    1  A    between atoms: C_9  and  O_19
REMARK    2  A    between atoms: C_15  and  O_21
REMARK    3  A    between atoms: C_18  and  O_23
REMARK                            x       y       z     vdW  Elec       q    Type
REMARK                         _______ _______ _______ _____ _____    ______ ____
ROOT
ATOM      1 CL   UNL     1      33.845 -22.978 -18.544  0.00  0.00    -0.076 Cl
ATOM      2  O   UNL     1      35.621 -23.980 -16.270  0.00  0.00    -0.467 OA
ATOM      3  O   UNL     1      35.172 -24.672 -12.817  0.00  0.00    -0.287 OA
ATOM      4  O   UNL     1      39.765 -25.799 -13.283  0.00  0.00    -0.291 OA
ATOM      5  C   UNL     1      36.227 -24.479 -15.042  0.00  0.00    +0.237 C 
ATOM      6  C   UNL     1      36.743 -25.914 -15.300  0.00  0.00    +0.059 C 
ATOM      7  C   UNL     1      37.615 -26.412 -14.146  0.00  0.00    +0.074 C 
ATOM      8  C   UNL     1      35.116 -24.405 -14.001  0.00  0.00    +0.222 C 
ATOM      9  C   UNL     1      37.348 -23.560 -14.611  0.00  0.00    +0.162 C 
ATOM     10  C   UNL     1      35.635 -26.926 -15.609  0.00  0.00    +0.005 C 
ATOM     11  C   UNL     1      33.933 -23.940 -14.677  0.00  0.00    +0.107 C 
ATOM     12  C   UNL     1      34.304 -23.720 -15.986  0.00  0.00    +0.159 C 
ATOM     13  C   UNL     1      38.716 -25.432 -13.810  0.00  0.00    +0.176 C 
ATOM     14  C   UNL     1      38.494 -23.989 -14.067  0.00  0.00    +0.074 C 
ATOM     15  C   UNL     1      32.653 -23.723 -14.210  0.00  0.00    +0.148 C 
ATOM     16  C   UNL     1      33.386 -23.258 -16.908  0.00  0.00    +0.126 C 
ATOM     17  C   UNL     1      31.714 -23.259 -15.132  0.00  0.00    +0.075 C 
ATOM     18  C   UNL     1      32.077 -23.029 -16.472  0.00  0.00    +0.155 C 
ENDROOT
BRANCH   9  19
ATOM     19  O   UNL     1      37.167 -22.202 -14.815  0.00  0.00    -0.472 OA
ATOM     20  C   UNL     1      37.579 -21.836 -16.115  0.00  0.00    +0.252 C 
ENDBRANCH   9  19
BRANCH  15  21
ATOM     21  O   UNL     1      32.305 -23.946 -12.920  0.00  0.00    -0.471 OA
ATOM     22  C   UNL     1      30.909 -23.999 -12.617  0.00  0.00    +0.252 C 
ENDBRANCH  15  21
BRANCH  18  23
ATOM     23  O   UNL     1      31.121 -22.574 -17.334  0.00  0.00    -0.470 OA
ATOM     24  C   UNL     1      29.768 -22.649 -16.893  0.00  0.00    +0.253 C 
ENDBRANCH  18  23
TORSDOF 3
ENDMDL
MODEL 4
REMARK VINA RESULT:      -6.0     16.239     19.031
REMARK  Name = 441140
REMARK  3 active torsions:
REMARK  status: ('A' for Active; 'I' for Inactive)
REMARK    1  A    between atoms: C_9  and  O_19
REMARK    2  A    between atoms: C_15  and  O_21
REMARK    3  A    between atoms: C_18  and  O_23
REMARK                            x       y       z     vdW  Elec       q    Type
REMARK                         _______ _______ _______ _____ _____    ______ ____
ROOT
ATOM      1 CL   UNL     1      33.326 -23.538 -16.951  0.00  0.00    -0.076 Cl
ATOM      2  O   UNL     1      35.988 -24.430 -15.750  0.00  0.00    -0.467 OA
ATOM      3  O   UNL     1      37.198 -25.102 -12.480  0.00  0.00    -0.287 OA
ATOM      4  O   UNL     1      41.117 -26.023 -15.004  0.00  0.00    -0.291 OA
ATOM      5  C   UNL     1      37.110 -24.886 -14.939  0.00  0.00    +0.237 C 
ATOM      6  C   UNL     1      37.516 -26.299 -15.420  0.00  0.00    +0.059 C 
ATOM      7  C   UNL     1      38.841 -26.744 -14.796  0.00  0.00    +0.074 C 
ATOM      8  C   UNL     1      36.594 -24.852 -13.505  0.00  0.00    +0.222 C 
ATOM      9  C   UNL     1      38.260 -23.913 -15.058  0.00  0.00    +0.162 C 
ATOM     10  C   UNL     1      36.438 -27.365 -15.199  0.00  0.00    +0.005 C 
ATOM     11  C   UNL     1      35.214 -24.449 -13.561  0.00  0.00    +0.107 C 
ATOM     12  C   UNL     1      34.935 -24.227 -14.893  0.00  0.00    +0.159 C 
ATOM     13  C   UNL     1      39.928 -25.710 -14.990  0.00  0.00    +0.176 C 
ATOM     14  C   UNL     1      39.546 -24.282 -15.102  0.00  0.00    +0.074 C 
ATOM     15  C   UNL     1      34.279 -24.286 -12.560  0.00  0.00    +0.148 C 
ATOM     16  C   UNL     1      33.678 -23.819 -15.290  0.00  0.00    +0.126 C 
ATOM     17  C   UNL     1      33.003 -23.876 -12.946  0.00  0.00    +0.075 C 
ATOM     18  C   UNL     1      32.703 -23.645 -14.302  0.00  0.00    +0.155 C 
ENDROOT
BRANCH   9  19
ATOM     19  O   UNL     1      37.944 -22.567 -15.142  0.00  0.00    -0.472 OA
ATOM     20  C   UNL     1      37.628 -22.213 -16.473  0.00  0.00    +0.252 C 
ENDBRANCH   9  19
BRANCH  15  21
ATOM     21  O   UNL     1      34.569 -24.510 -11.255  0.00  0.00    -0.471 OA
ATOM     22  C   UNL     1      35.466 -23.598 -10.617  0.00  0.00    +0.252 C 
ENDBRANCH  15  21
BRANCH  18  23
ATOM     23  O   UNL     1      31.439 -23.244 -14.626  0.00  0.00    -0.470 OA
ATOM     24  C   UNL     1      30.382 -24.158 -14.350  0.00  0.00    +0.253 C 
ENDBRANCH  18  23
TORSDOF 3
ENDMDL
MODEL 5
REMARK VINA RESULT:      -6.0      2.488      7.288
REMARK  Name = 441140
REMARK  3 active torsions:
REMARK  status: ('A' for Active; 'I' for Inactive)
REMARK    1  A    between atoms: C_9  and  O_19
REMARK    2  A    between atoms: C_15  and  O_21
REMARK    3  A    between atoms: C_18  and  O_23
REMARK                            x       y       z     vdW  Elec       q    Type
REMARK                         _______ _______ _______ _____ _____    ______ ____
ROOT
ATOM      1 CL   UNL     1      35.624  -9.551 -24.620  0.00  0.00    -0.076 Cl
ATOM      2  O   UNL     1      34.486 -12.384 -24.693  0.00  0.00    -0.467 OA
ATOM      3  O   UNL     1      31.586 -13.987 -23.417  0.00  0.00    -0.287 OA
ATOM      4  O   UNL     1      33.651 -17.662 -25.609  0.00  0.00    -0.291 OA
ATOM      5  C   UNL     1      33.712 -13.617 -24.619  0.00  0.00    +0.237 C 
ATOM      6  C   UNL     1      33.372 -14.066 -26.059  0.00  0.00    +0.059 C 
ATOM      7  C   UNL     1      32.784 -15.479 -26.082  0.00  0.00    +0.074 C 
ATOM      8  C   UNL     1      32.488 -13.259 -23.784  0.00  0.00    +0.222 C 
ATOM      9  C   UNL     1      34.501 -14.676 -23.884  0.00  0.00    +0.162 C 
ATOM     10  C   UNL     1      32.458 -13.096 -26.814  0.00  0.00    +0.005 C 
ATOM     11  C   UNL     1      32.579 -11.856 -23.478  0.00  0.00    +0.107 C 
ATOM     12  C   UNL     1      33.760 -11.419 -24.041  0.00  0.00    +0.159 C 
ATOM     13  C   UNL     1      33.660 -16.463 -25.338  0.00  0.00    +0.176 C 
ATOM     14  C   UNL     1      34.497 -15.973 -24.218  0.00  0.00    +0.074 C 
ATOM     15  C   UNL     1      31.728 -11.027 -22.777  0.00  0.00    +0.148 C 
ATOM     16  C   UNL     1      34.150 -10.100 -23.921  0.00  0.00    +0.126 C 
ATOM     17  C   UNL     1      32.108  -9.690 -22.651  0.00  0.00    +0.075 C 
ATOM     18  C   UNL     1      33.310  -9.229 -23.219  0.00  0.00    +0.155 C 
ENDROOT
BRANCH   9  19
ATOM     19  O   UNL     1      35.279 -14.259 -22.816  0.00  0.00    -0.472 OA
ATOM     20  C   UNL     1      34.766 -14.764 -21.601  0.00  0.00    +0.252 C 
ENDBRANCH   9  19
BRANCH  15  21
ATOM     21  O   UNL     1      30.571 -11.472 -22.231  0.00  0.00    -0.471 OA
ATOM     22  C   UNL     1      30.414 -11.328 -20.818  0.00  0.00    +0.252 C 
ENDBRANCH  15  21
BRANCH  18  23
ATOM     23  O   UNL     1      33.636  -7.913 -23.065  0.00  0.00    -0.470 OA
ATOM     24  C   UNL     1      32.943  -7.190 -22.051  0.00  0.00    +0.253 C 
ENDBRANCH  18  23
TORSDOF 3
ENDMDL
MODEL 6
REMARK VINA RESULT:      -5.8     13.268     18.020
REMARK  Name = 441140
REMARK  3 active torsions:
REMARK  status: ('A' for Active; 'I' for Inactive)
REMARK    1  A    between atoms: C_9  and  O_19
REMARK    2  A    between atoms: C_15  and  O_21
REMARK    3  A    between atoms: C_18  and  O_23
REMARK                            x       y       z     vdW  Elec       q    Type
REMARK                         _______ _______ _______ _____ _____    ______ ____
ROOT
ATOM      1 CL   UNL     1      37.044 -21.934 -18.244  0.00  0.00    -0.076 Cl
ATOM      2  O   UNL     1      36.741 -23.736 -15.797  0.00  0.00    -0.467 OA
ATOM      3  O   UNL     1      34.017 -25.138 -14.001  0.00  0.00    -0.287 OA
ATOM      4  O   UNL     1      37.644 -26.896 -11.485  0.00  0.00    -0.291 OA
ATOM      5  C   UNL     1      36.324 -24.608 -14.705  0.00  0.00    +0.237 C 
ATOM      6  C   UNL     1      36.940 -26.008 -14.939  0.00  0.00    +0.059 C 
ATOM      7  C   UNL     1      36.764 -26.908 -13.713  0.00  0.00    +0.074 C 
ATOM      8  C   UNL     1      34.801 -24.593 -14.753  0.00  0.00    +0.222 C 
ATOM      9  C   UNL     1      36.768 -24.025 -13.383  0.00  0.00    +0.162 C 
ATOM     10  C   UNL     1      36.423 -26.712 -16.197  0.00  0.00    +0.005 C 
ATOM     11  C   UNL     1      34.421 -23.784 -15.882  0.00  0.00    +0.107 C 
ATOM     12  C   UNL     1      35.597 -23.327 -16.437  0.00  0.00    +0.159 C 
ATOM     13  C   UNL     1      37.258 -26.239 -12.450  0.00  0.00    +0.176 C 
ATOM     14  C   UNL     1      37.214 -24.761 -12.357  0.00  0.00    +0.074 C 
ATOM     15  C   UNL     1      33.177 -23.466 -16.386  0.00  0.00    +0.148 C 
ATOM     16  C   UNL     1      35.578 -22.510 -17.549  0.00  0.00    +0.126 C 
ATOM     17  C   UNL     1      33.142 -22.643 -17.512  0.00  0.00    +0.075 C 
ATOM     18  C   UNL     1      34.334 -22.168 -18.091  0.00  0.00    +0.155 C 
ENDROOT
BRANCH   9  19
ATOM     19  O   UNL     1      36.720 -22.647 -13.251  0.00  0.00    -0.472 OA
ATOM     20  C   UNL     1      37.438 -22.232 -12.108  0.00  0.00    +0.252 C 
ENDBRANCH   9  19
BRANCH  15  21
ATOM     21  O   UNL     1      32.031 -23.925 -15.829  0.00  0.00    -0.471 OA
ATOM     22  C   UNL     1      30.825 -23.221 -16.134  0.00  0.00    +0.252 C 
ENDBRANCH  15  21
BRANCH  18  23
ATOM     23  O   UNL     1      34.246 -21.364 -19.190  0.00  0.00    -0.470 OA
ATOM     24  C   UNL     1      32.936 -21.003 -19.621  0.00  0.00    +0.253 C 
ENDBRANCH  18  23
TORSDOF 3
ENDMDL
MODEL 7
REMARK VINA RESULT:      -5.8      1.070      1.125
REMARK  Name = 441140
REMARK  3 active torsions:
REMARK  status: ('A' for Active; 'I' for Inactive)
REMARK    1  A    between atoms: C_9  and  O_19
REMARK    2  A    between atoms: C_15  and  O_21
REMARK    3  A    between atoms: C_18  and  O_23
REMARK                            x       y       z     vdW  Elec       q    Type
REMARK                         _______ _______ _______ _____ _____    ______ ____
ROOT
ATOM      1 CL   UNL     1      30.541 -11.283 -20.403  0.00  0.00    -0.076 Cl
ATOM      2  O   UNL     1      31.384  -8.810 -21.983  0.00  0.00    -0.467 OA
ATOM      3  O   UNL     1      33.578  -8.161 -24.699  0.00  0.00    -0.287 OA
ATOM      4  O   UNL     1      31.951  -3.769 -23.899  0.00  0.00    -0.291 OA
ATOM      5  C   UNL     1      31.910  -7.816 -22.911  0.00  0.00    +0.237 C 
ATOM      6  C   UNL     1      30.721  -7.183 -23.671  0.00  0.00    +0.059 C 
ATOM      7  C   UNL     1      31.159  -5.956 -24.475  0.00  0.00    +0.074 C 
ATOM      8  C   UNL     1      32.870  -8.588 -23.808  0.00  0.00    +0.222 C 
ATOM      9  C   UNL     1      32.697  -6.771 -22.153  0.00  0.00    +0.162 C 
ATOM     10  C   UNL     1      29.962  -8.166 -24.568  0.00  0.00    +0.005 C 
ATOM     11  C   UNL     1      32.806  -9.969 -23.408  0.00  0.00    +0.107 C 
ATOM     12  C   UNL     1      31.923 -10.018 -22.350  0.00  0.00    +0.159 C 
ATOM     13  C   UNL     1      31.919  -4.966 -23.620  0.00  0.00    +0.176 C 
ATOM     14  C   UNL     1      32.691  -5.468 -22.459  0.00  0.00    +0.074 C 
ATOM     15  C   UNL     1      33.448 -11.084 -23.904  0.00  0.00    +0.148 C 
ATOM     16  C   UNL     1      31.640 -11.217 -21.726  0.00  0.00    +0.126 C 
ATOM     17  C   UNL     1      33.170 -12.303 -23.286  0.00  0.00    +0.075 C 
ATOM     18  C   UNL     1      32.272 -12.370 -22.204  0.00  0.00    +0.155 C 
ENDROOT
BRANCH   9  19
ATOM     19  O   UNL     1      33.450  -7.205 -21.074  0.00  0.00    -0.472 OA
ATOM     20  C   UNL     1      32.763  -6.969 -19.863  0.00  0.00    +0.252 C 
ENDBRANCH   9  19
BRANCH  15  21
ATOM     21  O   UNL     1      34.312 -11.018 -24.946  0.00  0.00    -0.471 OA
ATOM     22  C   UNL     1      34.015 -11.812 -26.096  0.00  0.00    +0.252 C 
ENDBRANCH  15  21
BRANCH  18  23
ATOM     23  O   UNL     1      32.035 -13.587 -21.633  0.00  0.00    -0.470 OA
ATOM     24  C   UNL     1      33.058 -14.570 -21.761  0.00  0.00    +0.253 C 
ENDBRANCH  18  23
TORSDOF 3
ENDMDL
MODEL 8
REMARK VINA RESULT:      -5.7     15.342     17.867
REMARK  Name = 441140
REMARK  3 active torsions:
REMARK  status: ('A' for Active; 'I' for Inactive)
REMARK    1  A    between atoms: C_9  and  O_19
REMARK    2  A    between atoms: C_15  and  O_21
REMARK    3  A    between atoms: C_18  and  O_23
REMARK                            x       y       z     vdW  Elec       q    Type
REMARK                         _______ _______ _______ _____ _____    ______ ____
ROOT
ATOM      1 CL   UNL     1      36.687 -27.515 -16.205  0.00  0.00    -0.076 Cl
ATOM      2  O   UNL     1      34.574 -25.312 -16.102  0.00  0.00    -0.467 OA
ATOM      3  O   UNL     1      34.202 -22.234 -14.373  0.00  0.00    -0.287 OA
ATOM      4  O   UNL     1      30.172 -22.246 -16.891  0.00  0.00    -0.291 OA
ATOM      5  C   UNL     1      33.761 -24.119 -15.907  0.00  0.00    +0.237 C 
ATOM      6  C   UNL     1      33.593 -23.414 -17.273  0.00  0.00    +0.059 C 
ATOM      7  C   UNL     1      32.547 -22.299 -17.204  0.00  0.00    +0.074 C 
ATOM      8  C   UNL     1      34.524 -23.290 -14.880  0.00  0.00    +0.222 C 
ATOM      9  C   UNL     1      32.422 -24.499 -15.316  0.00  0.00    +0.162 C 
ATOM     10  C   UNL     1      34.903 -22.881 -17.863  0.00  0.00    +0.005 C 
ATOM     11  C   UNL     1      35.743 -23.997 -14.587  0.00  0.00    +0.107 C 
ATOM     12  C   UNL     1      35.701 -25.155 -15.335  0.00  0.00    +0.159 C 
ATOM     13  C   UNL     1      31.241 -22.790 -16.620  0.00  0.00    +0.176 C 
ATOM     14  C   UNL     1      31.267 -23.911 -15.651  0.00  0.00    +0.074 C 
ATOM     15  C   UNL     1      36.793 -23.678 -13.752  0.00  0.00    +0.148 C 
ATOM     16  C   UNL     1      36.735 -26.067 -15.276  0.00  0.00    +0.126 C 
ATOM     17  C   UNL     1      37.847 -24.590 -13.684  0.00  0.00    +0.075 C 
ATOM     18  C   UNL     1      37.820 -25.776 -14.441  0.00  0.00    +0.155 C 
ENDROOT
BRANCH   9  19
ATOM     19  O   UNL     1      32.409 -25.529 -14.390  0.00  0.00    -0.472 OA
ATOM     20  C   UNL     1      31.509 -25.240 -13.340  0.00  0.00    +0.252 C 
ENDBRANCH   9  19
BRANCH  15  21
ATOM     21  O   UNL     1      36.819 -22.536 -13.024  0.00  0.00    -0.471 OA
ATOM     22  C   UNL     1      37.166 -22.645 -11.642  0.00  0.00    +0.252 C 
ENDBRANCH  15  21
BRANCH  18  23
ATOM     23  O   UNL     1      38.875 -26.636 -14.338  0.00  0.00    -0.470 OA
ATOM     24  C   UNL     1      40.179 -26.072 -14.449  0.00  0.00    +0.253 C 
ENDBRANCH  18  23
TORSDOF 3
ENDMDL
MODEL 9
REMARK VINA RESULT:      -5.7      6.002     10.515
REMARK  Name = 441140
REMARK  3 active torsions:
REMARK  status: ('A' for Active; 'I' for Inactive)
REMARK    1  A    between atoms: C_9  and  O_19
REMARK    2  A    between atoms: C_15  and  O_21
REMARK    3  A    between atoms: C_18  and  O_23
REMARK                            x       y       z     vdW  Elec       q    Type
REMARK                         _______ _______ _______ _____ _____    ______ ____
ROOT
ATOM      1 CL   UNL     1      33.903 -17.159 -26.009  0.00  0.00    -0.076 Cl
ATOM      2  O   UNL     1      34.687 -18.242 -23.263  0.00  0.00    -0.467 OA
ATOM      3  O   UNL     1      34.901 -16.911 -19.978  0.00  0.00    -0.287 OA
ATOM      4  O   UNL     1      36.257 -21.387 -19.134  0.00  0.00    -0.291 OA
ATOM      5  C   UNL     1      34.960 -18.513 -21.857  0.00  0.00    +0.237 C 
ATOM      6  C   UNL     1      34.003 -19.631 -21.382  0.00  0.00    +0.059 C 
ATOM      7  C   UNL     1      34.393 -20.152 -19.996  0.00  0.00    +0.074 C 
ATOM      8  C   UNL     1      34.742 -17.179 -21.152  0.00  0.00    +0.222 C 
ATOM      9  C   UNL     1      36.407 -18.916 -21.682  0.00  0.00    +0.162 C 
ATOM     10  C   UNL     1      32.523 -19.235 -21.405  0.00  0.00    +0.005 C 
ATOM     11  C   UNL     1      34.301 -16.240 -22.150  0.00  0.00    +0.107 C 
ATOM     12  C   UNL     1      34.291 -16.930 -23.344  0.00  0.00    +0.159 C 
ATOM     13  C   UNL     1      35.852 -20.547 -19.936  0.00  0.00    +0.176 C 
ATOM     14  C   UNL     1      36.819 -19.856 -20.822  0.00  0.00    +0.074 C 
ATOM     15  C   UNL     1      33.943 -14.912 -22.045  0.00  0.00    +0.148 C 
ATOM     16  C   UNL     1      33.915 -16.303 -24.515  0.00  0.00    +0.126 C 
ATOM     17  C   UNL     1      33.558 -14.266 -23.220  0.00  0.00    +0.075 C 
ATOM     18  C   UNL     1      33.543 -14.956 -24.447  0.00  0.00    +0.155 C 
ENDROOT
BRANCH   9  19
ATOM     19  O   UNL     1      37.343 -18.276 -22.478  0.00  0.00    -0.472 OA
ATOM     20  C   UNL     1      38.652 -18.653 -22.105  0.00  0.00    +0.252 C 
ENDBRANCH   9  19
BRANCH  15  21
ATOM     21  O   UNL     1      33.958 -14.250 -20.864  0.00  0.00    -0.471 OA
ATOM     22  C   UNL     1      32.707 -13.772 -20.364  0.00  0.00    +0.252 C 
ENDBRANCH  15  21
BRANCH  18  23
ATOM     23  O   UNL     1      33.158 -14.277 -25.567  0.00  0.00    -0.470 OA
ATOM     24  C   UNL     1      33.535 -12.906 -25.652  0.00  0.00    +0.253 C 
ENDBRANCH  18  23
TORSDOF 3
ENDMDL
