MODEL 1
REMARK VINA RESULT:      -8.3      0.000      0.000
REMARK  Name = 5288598
REMARK  5 active torsions:
REMARK  status: ('A' for Active; 'I' for Inactive)
REMARK    1  A    between atoms: C_4  and  C_13
REMARK    2  A    between atoms: C_13  and  CA_14
REMARK    3  A    between atoms: CA_14  and  N_15
REMARK    4  A    between atoms: CA_14  and  C_20
REMARK    5  A    between atoms: C_20  and  O_21
REMARK                            x       y       z     vdW  Elec       q    Type
REMARK                         _______ _______ _______ _____ _____    ______ ____
ROOT
ATOM      1  O   UNL     1      34.788 -14.881 -23.292  0.00  0.00    -0.380 OA
ATOM      2  O   UNL     1      34.875 -16.263 -20.118  0.00  0.00    -0.264 OA
ATOM      3  N   UNL     1      34.793 -14.781 -21.892  0.00  0.00    -0.184 N 
ATOM      4  C   UNL     1      35.051 -18.457 -22.265  0.00  0.00    -0.021 C 
ATOM      5  C   UNL     1      34.040 -17.924 -25.205  0.00  0.00    +0.013 C 
ATOM      6  C   UNL     1      34.842 -16.657 -24.943  0.00  0.00    +0.068 C 
ATOM      7  C   UNL     1      34.920 -17.021 -22.413  0.00  0.00    +0.087 A 
ATOM      8  C   UNL     1      34.740 -19.193 -24.735  0.00  0.00    +0.026 C 
ATOM      9  C   UNL     1      34.869 -16.251 -23.507  0.00  0.00    +0.154 A 
ATOM     10  C   UNL     1      34.992 -19.356 -23.266  0.00  0.00    -0.030 C 
ATOM     11  C   UNL     1      34.865 -16.024 -21.314  0.00  0.00    +0.288 A 
ATOM     12  H   UNL     1      34.750 -13.935 -21.391  0.00  0.00    +0.211 HD
ENDROOT
BRANCH   4  13
ATOM     13  C   UNL     1      35.322 -18.979 -20.872  0.00  0.00    +0.015 C 
BRANCH  13  14
ATOM     14  CA  UNL     1      34.731 -20.376 -20.726  0.00  0.00    +0.040 C 
BRANCH  14  15
ATOM     15  N   UNL     1      33.367 -20.274 -20.209  0.00  0.00    +0.389 N 
ATOM     16  H1  UNL     1      32.747 -19.946 -20.949  0.00  0.00    -0.088 HD
ATOM     17  H2  UNL     1      33.347 -19.614 -19.431  0.00  0.00    -0.088 HD
ATOM     18  H3  UNL     1      33.057 -21.190 -19.885  0.00  0.00    -0.088 HD
ENDBRANCH  14  15
BRANCH  14  20
ATOM     19  OXT UNL     1      35.236 -22.397 -19.452  0.00  0.00    -0.253 OA
ATOM     20  C   UNL     1      35.501 -21.236 -19.735  0.00  0.00    +0.293 C 
BRANCH  20  21
ATOM     21  O   UNL     1      36.531 -20.557 -19.163  0.00  0.00    -0.482 OA
ATOM     22  H   UNL     1      37.172 -20.136 -19.701  0.00  0.00    +0.295 HD
ENDBRANCH  20  21
ENDBRANCH  14  20
ENDBRANCH  13  14
ENDBRANCH   4  13
TORSDOF 5
ENDMDL
MODEL 2
REMARK VINA RESULT:      -8.2      3.493      5.006
REMARK  Name = 5288598
REMARK  5 active torsions:
REMARK  status: ('A' for Active; 'I' for Inactive)
REMARK    1  A    between atoms: C_4  and  C_13
REMARK    2  A    between atoms: C_13  and  CA_14
REMARK    3  A    between atoms: CA_14  and  N_15
REMARK    4  A    between atoms: CA_14  and  C_20
REMARK    5  A    between atoms: C_20  and  O_21
REMARK                            x       y       z     vdW  Elec       q    Type
REMARK                         _______ _______ _______ _____ _____    ______ ____
ROOT
ATOM      1  O   UNL     1      32.459 -20.622 -20.482  0.00  0.00    -0.380 OA
ATOM      2  O   UNL     1      34.230 -23.114 -18.854  0.00  0.00    -0.264 OA
ATOM      3  N   UNL     1      32.540 -21.839 -19.788  0.00  0.00    -0.184 N 
ATOM      4  C   UNL     1      36.113 -20.865 -19.775  0.00  0.00    -0.021 C 
ATOM      5  C   UNL     1      35.273 -18.905 -22.098  0.00  0.00    +0.013 C 
ATOM      6  C   UNL     1      34.001 -18.920 -21.262  0.00  0.00    +0.068 C 
ATOM      7  C   UNL     1      34.681 -21.008 -19.951  0.00  0.00    +0.087 A 
ATOM      8  C   UNL     1      36.544 -18.785 -21.268  0.00  0.00    +0.026 C 
ATOM      9  C   UNL     1      33.782 -20.201 -20.529  0.00  0.00    +0.154 A 
ATOM     10  C   UNL     1      36.879 -19.903 -20.326  0.00  0.00    -0.030 C 
ATOM     11  C   UNL     1      33.840 -22.123 -19.450  0.00  0.00    +0.288 A 
ATOM     12  H   UNL     1      31.770 -22.413 -19.572  0.00  0.00    +0.211 HD
ENDROOT
BRANCH   4  13
ATOM     13  C   UNL     1      36.791 -21.857 -18.857  0.00  0.00    +0.015 C 
BRANCH  13  14
ATOM     14  CA  UNL     1      36.627 -21.409 -17.410  0.00  0.00    +0.040 C 
BRANCH  14  15
ATOM     15  N   UNL     1      37.636 -20.400 -17.097  0.00  0.00    +0.389 N 
ATOM     16  H1  UNL     1      37.654 -20.238 -16.090  0.00  0.00    -0.088 HD
ATOM     17  H2  UNL     1      37.406 -19.529 -17.577  0.00  0.00    -0.088 HD
ATOM     18  H3  UNL     1      38.552 -20.726 -17.406  0.00  0.00    -0.088 HD
ENDBRANCH  14  15
BRANCH  14  20
ATOM     19  OXT UNL     1      37.854 -22.738 -15.770  0.00  0.00    -0.253 OA
ATOM     20  C   UNL     1      36.835 -22.544 -16.419  0.00  0.00    +0.293 C 
BRANCH  20  21
ATOM     21  O   UNL     1      35.749 -23.360 -16.341  0.00  0.00    -0.482 OA
ATOM     22  H   UNL     1      35.092 -23.330 -17.007  0.00  0.00    +0.295 HD
ENDBRANCH  20  21
ENDBRANCH  14  20
ENDBRANCH  13  14
ENDBRANCH   4  13
TORSDOF 5
ENDMDL
MODEL 3
REMARK VINA RESULT:      -8.1      7.578      9.723
REMARK  Name = 5288598
REMARK  5 active torsions:
REMARK  status: ('A' for Active; 'I' for Inactive)
REMARK    1  A    between atoms: C_4  and  C_13
REMARK    2  A    between atoms: C_13  and  CA_14
REMARK    3  A    between atoms: CA_14  and  N_15
REMARK    4  A    between atoms: CA_14  and  C_20
REMARK    5  A    between atoms: C_20  and  O_21
REMARK                            x       y       z     vdW  Elec       q    Type
REMARK                         _______ _______ _______ _____ _____    ______ ____
ROOT
ATOM      1  O   UNL     1      32.254 -22.615 -17.880  0.00  0.00    -0.380 OA
ATOM      2  O   UNL     1      35.352 -23.435 -16.566  0.00  0.00    -0.264 OA
ATOM      3  N   UNL     1      33.653 -22.706 -17.956  0.00  0.00    -0.184 N 
ATOM      4  C   UNL     1      33.108 -24.156 -14.592  0.00  0.00    -0.021 C 
ATOM      5  C   UNL     1      30.278 -22.776 -14.789  0.00  0.00    +0.013 C 
ATOM      6  C   UNL     1      30.531 -23.123 -16.250  0.00  0.00    +0.068 C 
ATOM      7  C   UNL     1      33.030 -23.536 -15.900  0.00  0.00    +0.087 A 
ATOM      8  C   UNL     1      30.640 -23.901 -13.828  0.00  0.00    +0.026 C 
ATOM      9  C   UNL     1      31.976 -23.134 -16.622  0.00  0.00    +0.154 A 
ATOM     10  C   UNL     1      32.077 -24.318 -13.739  0.00  0.00    -0.030 C 
ATOM     11  C   UNL     1      34.171 -23.242 -16.804  0.00  0.00    +0.288 A 
ATOM     12  H   UNL     1      34.190 -22.423 -18.731  0.00  0.00    +0.211 HD
ENDROOT
BRANCH   4  13
ATOM     13  C   UNL     1      34.453 -24.705 -14.174  0.00  0.00    +0.015 C 
BRANCH  13  14
ATOM     14  CA  UNL     1      34.952 -23.956 -12.944  0.00  0.00    +0.040 C 
BRANCH  14  15
ATOM     15  N   UNL     1      36.024 -23.042 -13.334  0.00  0.00    +0.389 N 
ATOM     16  H1  UNL     1      35.824 -22.657 -14.257  0.00  0.00    -0.088 HD
ATOM     17  H2  UNL     1      36.909 -23.549 -13.363  0.00  0.00    -0.088 HD
ATOM     18  H3  UNL     1      36.089 -22.284 -12.656  0.00  0.00    -0.088 HD
ENDBRANCH  14  15
BRANCH  14  20
ATOM     19  OXT UNL     1      35.319 -24.823 -10.692  0.00  0.00    -0.253 OA
ATOM     20  C   UNL     1      35.541 -24.884 -11.893  0.00  0.00    +0.293 C 
BRANCH  20  21
ATOM     21  O   UNL     1      36.384 -25.803 -12.439  0.00  0.00    -0.482 OA
ATOM     22  H   UNL     1      37.212 -25.977 -12.037  0.00  0.00    +0.295 HD
ENDBRANCH  20  21
ENDBRANCH  14  20
ENDBRANCH  13  14
ENDBRANCH   4  13
TORSDOF 5
ENDMDL
MODEL 4
REMARK VINA RESULT:      -8.0      6.633      8.995
REMARK  Name = 5288598
REMARK  5 active torsions:
REMARK  status: ('A' for Active; 'I' for Inactive)
REMARK    1  A    between atoms: C_4  and  C_13
REMARK    2  A    between atoms: C_13  and  CA_14
REMARK    3  A    between atoms: CA_14  and  N_15
REMARK    4  A    between atoms: CA_14  and  C_20
REMARK    5  A    between atoms: C_20  and  O_21
REMARK                            x       y       z     vdW  Elec       q    Type
REMARK                         _______ _______ _______ _____ _____    ______ ____
ROOT
ATOM      1  O   UNL     1      31.942 -22.698 -17.999  0.00  0.00    -0.380 OA
ATOM      2  O   UNL     1      35.398 -22.551 -18.154  0.00  0.00    -0.264 OA
ATOM      3  N   UNL     1      33.146 -22.435 -18.670  0.00  0.00    -0.184 N 
ATOM      4  C   UNL     1      34.475 -23.607 -15.418  0.00  0.00    -0.021 C 
ATOM      5  C   UNL     1      31.560 -23.029 -14.362  0.00  0.00    +0.013 C 
ATOM      6  C   UNL     1      31.268 -23.454 -15.795  0.00  0.00    +0.068 C 
ATOM      7  C   UNL     1      33.692 -23.172 -16.557  0.00  0.00    +0.087 A 
ATOM      8  C   UNL     1      32.585 -23.913 -13.665  0.00  0.00    +0.026 C 
ATOM      9  C   UNL     1      32.368 -23.133 -16.751  0.00  0.00    +0.154 A 
ATOM     10  C   UNL     1      33.982 -23.936 -14.208  0.00  0.00    -0.030 C 
ATOM     11  C   UNL     1      34.223 -22.694 -17.859  0.00  0.00    +0.288 A 
ATOM     12  H   UNL     1      33.211 -22.108 -19.596  0.00  0.00    +0.211 HD
ENDROOT
BRANCH   4  13
ATOM     13  C   UNL     1      35.967 -23.745 -15.626  0.00  0.00    +0.015 C 
BRANCH  13  14
ATOM     14  CA  UNL     1      36.531 -24.749 -14.627  0.00  0.00    +0.040 C 
BRANCH  14  15
ATOM     15  N   UNL     1      37.745 -24.203 -14.023  0.00  0.00    +0.389 N 
ATOM     16  H1  UNL     1      37.799 -23.202 -14.213  0.00  0.00    -0.088 HD
ATOM     17  H2  UNL     1      38.561 -24.669 -14.421  0.00  0.00    -0.088 HD
ATOM     18  H3  UNL     1      37.723 -24.357 -13.016  0.00  0.00    -0.088 HD
ENDBRANCH  14  15
BRANCH  14  20
ATOM     19  OXT UNL     1      36.154 -26.906 -15.707  0.00  0.00    -0.253 OA
ATOM     20  C   UNL     1      36.932 -26.062 -15.281  0.00  0.00    +0.293 C 
BRANCH  20  21
ATOM     21  O   UNL     1      38.282 -26.219 -15.326  0.00  0.00    -0.482 OA
ATOM     22  H   UNL     1      38.831 -25.492 -15.546  0.00  0.00    +0.295 HD
ENDBRANCH  20  21
ENDBRANCH  14  20
ENDBRANCH  13  14
ENDBRANCH   4  13
TORSDOF 5
ENDMDL
MODEL 5
REMARK VINA RESULT:      -7.9      3.408      5.250
REMARK  Name = 5288598
REMARK  5 active torsions:
REMARK  status: ('A' for Active; 'I' for Inactive)
REMARK    1  A    between atoms: C_4  and  C_13
REMARK    2  A    between atoms: C_13  and  CA_14
REMARK    3  A    between atoms: CA_14  and  N_15
REMARK    4  A    between atoms: CA_14  and  C_20
REMARK    5  A    between atoms: C_20  and  O_21
REMARK                            x       y       z     vdW  Elec       q    Type
REMARK                         _______ _______ _______ _____ _____    ______ ____
ROOT
ATOM      1  O   UNL     1      34.379 -17.462 -25.553  0.00  0.00    -0.380 OA
ATOM      2  O   UNL     1      33.379 -14.361 -24.382  0.00  0.00    -0.264 OA
ATOM      3  N   UNL     1      33.833 -16.182 -25.734  0.00  0.00    -0.184 N 
ATOM      4  C   UNL     1      34.598 -16.039 -22.113  0.00  0.00    -0.021 C 
ATOM      5  C   UNL     1      34.750 -19.182 -22.331  0.00  0.00    +0.013 C 
ATOM      6  C   UNL     1      35.252 -18.774 -23.709  0.00  0.00    +0.068 C 
ATOM      7  C   UNL     1      34.385 -16.377 -23.507  0.00  0.00    +0.087 A 
ATOM      8  C   UNL     1      35.343 -18.352 -21.199  0.00  0.00    +0.026 C 
ATOM      9  C   UNL     1      34.679 -17.485 -24.197  0.00  0.00    +0.154 A 
ATOM     10  C   UNL     1      35.024 -16.888 -21.157  0.00  0.00    -0.030 C 
ATOM     11  C   UNL     1      33.806 -15.492 -24.548  0.00  0.00    +0.288 A 
ATOM     12  H   UNL     1      33.512 -15.827 -26.594  0.00  0.00    +0.211 HD
ENDROOT
BRANCH   4  13
ATOM     13  C   UNL     1      34.363 -14.599 -21.715  0.00  0.00    +0.015 C 
BRANCH  13  14
ATOM     14  CA  UNL     1      33.146 -14.514 -20.801  0.00  0.00    +0.040 C 
BRANCH  14  15
ATOM     15  N   UNL     1      32.275 -15.662 -21.044  0.00  0.00    +0.389 N 
ATOM     16  H1  UNL     1      31.645 -15.785 -20.252  0.00  0.00    -0.088 HD
ATOM     17  H2  UNL     1      32.844 -16.502 -21.159  0.00  0.00    -0.088 HD
ATOM     18  H3  UNL     1      31.730 -15.503 -21.891  0.00  0.00    -0.088 HD
ENDBRANCH  14  15
BRANCH  14  20
ATOM     19  OXT UNL     1      32.015 -12.427 -20.230  0.00  0.00    -0.253 OA
ATOM     20  C   UNL     1      32.304 -13.275 -21.063  0.00  0.00    +0.293 C 
BRANCH  20  21
ATOM     21  O   UNL     1      31.872 -13.215 -22.352  0.00  0.00    -0.482 OA
ATOM     22  H   UNL     1      32.073 -13.909 -22.947  0.00  0.00    +0.295 HD
ENDBRANCH  20  21
ENDBRANCH  14  20
ENDBRANCH  13  14
ENDBRANCH   4  13
TORSDOF 5
ENDMDL
MODEL 6
REMARK VINA RESULT:      -7.9      7.523      9.401
REMARK  Name = 5288598
REMARK  5 active torsions:
REMARK  status: ('A' for Active; 'I' for Inactive)
REMARK    1  A    between atoms: C_4  and  C_13
REMARK    2  A    between atoms: C_13  and  CA_14
REMARK    3  A    between atoms: CA_14  and  N_15
REMARK    4  A    between atoms: CA_14  and  C_20
REMARK    5  A    between atoms: C_20  and  O_21
REMARK                            x       y       z     vdW  Elec       q    Type
REMARK                         _______ _______ _______ _____ _____    ______ ____
ROOT
ATOM      1  O   UNL     1      35.173 -22.403 -17.681  0.00  0.00    -0.380 OA
ATOM      2  O   UNL     1      37.897 -22.760 -15.572  0.00  0.00    -0.264 OA
ATOM      3  N   UNL     1      36.531 -22.241 -17.365  0.00  0.00    -0.184 N 
ATOM      4  C   UNL     1      35.381 -24.007 -14.320  0.00  0.00    -0.021 C 
ATOM      5  C   UNL     1      32.502 -23.136 -15.270  0.00  0.00    +0.013 C 
ATOM      6  C   UNL     1      33.202 -23.325 -16.610  0.00  0.00    +0.068 C 
ATOM      7  C   UNL     1      35.544 -23.316 -15.584  0.00  0.00    +0.087 A 
ATOM      8  C   UNL     1      32.796 -24.247 -14.270  0.00  0.00    +0.026 C 
ATOM      9  C   UNL     1      34.669 -23.054 -16.562  0.00  0.00    +0.154 A 
ATOM     10  C   UNL     1      34.208 -24.410 -13.793  0.00  0.00    -0.030 C 
ATOM     11  C   UNL     1      36.810 -22.761 -16.126  0.00  0.00    +0.288 A 
ATOM     12  H   UNL     1      37.195 -21.812 -17.952  0.00  0.00    +0.211 HD
ENDROOT
BRANCH   4  13
ATOM     13  C   UNL     1      36.642 -24.340 -13.555  0.00  0.00    +0.015 C 
BRANCH  13  14
ATOM     14  CA  UNL     1      36.910 -25.838 -13.640  0.00  0.00    +0.040 C 
BRANCH  14  15
ATOM     15  N   UNL     1      38.092 -26.165 -12.843  0.00  0.00    +0.389 N 
ATOM     16  H1  UNL     1      37.933 -25.894 -11.873  0.00  0.00    -0.088 HD
ATOM     17  H2  UNL     1      38.899 -25.660 -13.210  0.00  0.00    -0.088 HD
ATOM     18  H3  UNL     1      38.268 -27.168 -12.892  0.00  0.00    -0.088 HD
ENDBRANCH  14  15
BRANCH  14  20
ATOM     19  OXT UNL     1      36.462 -26.971 -15.756  0.00  0.00    -0.253 OA
ATOM     20  C   UNL     1      37.210 -26.298 -15.058  0.00  0.00    +0.293 C 
BRANCH  20  21
ATOM     21  O   UNL     1      38.439 -25.893 -15.478  0.00  0.00    -0.482 OA
ATOM     22  H   UNL     1      38.893 -26.378 -16.138  0.00  0.00    +0.295 HD
ENDBRANCH  20  21
ENDBRANCH  14  20
ENDBRANCH  13  14
ENDBRANCH   4  13
TORSDOF 5
ENDMDL
MODEL 7
REMARK VINA RESULT:      -7.9      7.557      9.796
REMARK  Name = 5288598
REMARK  5 active torsions:
REMARK  status: ('A' for Active; 'I' for Inactive)
REMARK    1  A    between atoms: C_4  and  C_13
REMARK    2  A    between atoms: C_13  and  CA_14
REMARK    3  A    between atoms: CA_14  and  N_15
REMARK    4  A    between atoms: CA_14  and  C_20
REMARK    5  A    between atoms: C_20  and  O_21
REMARK                            x       y       z     vdW  Elec       q    Type
REMARK                         _______ _______ _______ _____ _____    ______ ____
ROOT
ATOM      1  O   UNL     1      35.324 -22.451 -17.607  0.00  0.00    -0.380 OA
ATOM      2  O   UNL     1      37.680 -22.845 -15.100  0.00  0.00    -0.264 OA
ATOM      3  N   UNL     1      36.620 -22.315 -17.086  0.00  0.00    -0.184 N 
ATOM      4  C   UNL     1      34.974 -24.025 -14.243  0.00  0.00    -0.021 C 
ATOM      5  C   UNL     1      32.297 -23.102 -15.633  0.00  0.00    +0.013 C 
ATOM      6  C   UNL     1      33.191 -23.319 -16.847  0.00  0.00    +0.068 C 
ATOM      7  C   UNL     1      35.346 -23.351 -15.471  0.00  0.00    +0.087 A 
ATOM      8  C   UNL     1      32.408 -24.208 -14.593  0.00  0.00    +0.026 C 
ATOM      9  C   UNL     1      34.638 -23.080 -16.575  0.00  0.00    +0.154 A 
ATOM     10  C   UNL     1      33.725 -24.397 -13.902  0.00  0.00    -0.030 C 
ATOM     11  C   UNL     1      36.692 -22.828 -15.815  0.00  0.00    +0.288 A 
ATOM     12  H   UNL     1      37.376 -21.906 -17.566  0.00  0.00    +0.211 HD
ENDROOT
BRANCH   4  13
ATOM     13  C   UNL     1      36.093 -24.378 -13.291  0.00  0.00    +0.015 C 
BRANCH  13  14
ATOM     14  CA  UNL     1      36.072 -23.425 -12.101  0.00  0.00    +0.040 C 
BRANCH  14  15
ATOM     15  N   UNL     1      37.349 -22.719 -12.022  0.00  0.00    +0.389 N 
ATOM     16  H1  UNL     1      38.071 -23.358 -11.689  0.00  0.00    -0.088 HD
ATOM     17  H2  UNL     1      37.264 -21.935 -11.374  0.00  0.00    -0.088 HD
ATOM     18  H3  UNL     1      37.604 -22.370 -12.946  0.00  0.00    -0.088 HD
ENDBRANCH  14  15
BRANCH  14  20
ATOM     19  OXT UNL     1      36.411 -23.813  -9.715  0.00  0.00    -0.253 OA
ATOM     20  C   UNL     1      35.900 -24.149 -10.775  0.00  0.00    +0.293 C 
BRANCH  20  21
ATOM     21  O   UNL     1      35.114 -25.253 -10.894  0.00  0.00    -0.482 OA
ATOM     22  H   UNL     1      35.250 -25.988 -10.331  0.00  0.00    +0.295 HD
ENDBRANCH  20  21
ENDBRANCH  14  20
ENDBRANCH  13  14
ENDBRANCH   4  13
TORSDOF 5
ENDMDL
MODEL 8
REMARK VINA RESULT:      -7.8      8.141      9.758
REMARK  Name = 5288598
REMARK  5 active torsions:
REMARK  status: ('A' for Active; 'I' for Inactive)
REMARK    1  A    between atoms: C_4  and  C_13
REMARK    2  A    between atoms: C_13  and  CA_14
REMARK    3  A    between atoms: CA_14  and  N_15
REMARK    4  A    between atoms: CA_14  and  C_20
REMARK    5  A    between atoms: C_20  and  O_21
REMARK                            x       y       z     vdW  Elec       q    Type
REMARK                         _______ _______ _______ _____ _____    ______ ____
ROOT
ATOM      1  O   UNL     1      31.935  -8.136 -19.199  0.00  0.00    -0.380 OA
ATOM      2  O   UNL     1      33.444  -7.249 -22.187  0.00  0.00    -0.264 OA
ATOM      3  N   UNL     1      32.606  -7.227 -20.031  0.00  0.00    -0.184 N 
ATOM      4  C   UNL     1      32.322 -10.108 -22.341  0.00  0.00    -0.021 C 
ATOM      5  C   UNL     1      31.762 -11.766 -19.717  0.00  0.00    +0.013 C 
ATOM      6  C   UNL     1      31.146 -10.424 -19.345  0.00  0.00    +0.068 C 
ATOM      7  C   UNL     1      32.317  -9.166 -21.239  0.00  0.00    +0.087 A 
ATOM      8  C   UNL     1      31.420 -12.220 -21.130  0.00  0.00    +0.026 C 
ATOM      9  C   UNL     1      31.805  -9.260 -20.005  0.00  0.00    +0.154 A 
ATOM     10  C   UNL     1      31.918 -11.391 -22.276  0.00  0.00    -0.030 C 
ATOM     11  C   UNL     1      32.865  -7.787 -21.257  0.00  0.00    +0.288 A 
ATOM     12  H   UNL     1      32.859  -6.311 -19.771  0.00  0.00    +0.211 HD
ENDROOT
BRANCH   4  13
ATOM     13  C   UNL     1      32.778  -9.585 -23.684  0.00  0.00    +0.015 C 
BRANCH  13  14
ATOM     14  CA  UNL     1      34.222 -10.005 -23.932  0.00  0.00    +0.040 C 
BRANCH  14  15
ATOM     15  N   UNL     1      35.028  -8.821 -24.225  0.00  0.00    +0.389 N 
ATOM     16  H1  UNL     1      34.696  -8.388 -25.087  0.00  0.00    -0.088 HD
ATOM     17  H2  UNL     1      36.005  -9.094 -24.336  0.00  0.00    -0.088 HD
ATOM     18  H3  UNL     1      34.947  -8.155 -23.457  0.00  0.00    -0.088 HD
ENDBRANCH  14  15
BRANCH  14  20
ATOM     19  OXT UNL     1      33.679 -11.917 -25.350  0.00  0.00    -0.253 OA
ATOM     20  C   UNL     1      34.365 -10.927 -25.133  0.00  0.00    +0.293 C 
BRANCH  20  21
ATOM     21  O   UNL     1      35.378 -10.542 -25.955  0.00  0.00    -0.482 OA
ATOM     22  H   UNL     1      35.187 -10.136 -26.777  0.00  0.00    +0.295 HD
ENDBRANCH  20  21
ENDBRANCH  14  20
ENDBRANCH  13  14
ENDBRANCH   4  13
TORSDOF 5
ENDMDL
MODEL 9
REMARK VINA RESULT:      -7.7      3.463      6.789
REMARK  Name = 5288598
REMARK  5 active torsions:
REMARK  status: ('A' for Active; 'I' for Inactive)
REMARK    1  A    between atoms: C_4  and  C_13
REMARK    2  A    between atoms: C_13  and  CA_14
REMARK    3  A    between atoms: CA_14  and  N_15
REMARK    4  A    between atoms: CA_14  and  C_20
REMARK    5  A    between atoms: C_20  and  O_21
REMARK                            x       y       z     vdW  Elec       q    Type
REMARK                         _______ _______ _______ _____ _____    ______ ____
ROOT
ATOM      1  O   UNL     1      35.159 -18.263 -24.306  0.00  0.00    -0.380 OA
ATOM      2  O   UNL     1      33.629 -15.717 -26.086  0.00  0.00    -0.264 OA
ATOM      3  N   UNL     1      34.626 -17.715 -25.483  0.00  0.00    -0.184 N 
ATOM      4  C   UNL     1      34.117 -14.867 -23.172  0.00  0.00    -0.021 C 
ATOM      5  C   UNL     1      34.532 -17.023 -20.908  0.00  0.00    +0.013 C 
ATOM      6  C   UNL     1      35.441 -17.573 -21.998  0.00  0.00    +0.068 C 
ATOM      7  C   UNL     1      34.407 -16.123 -23.833  0.00  0.00    +0.087 A 
ATOM      8  C   UNL     1      34.656 -15.517 -20.717  0.00  0.00    +0.026 C 
ATOM      9  C   UNL     1      34.986 -17.242 -23.380  0.00  0.00    +0.154 A 
ATOM     10  C   UNL     1      34.250 -14.627 -21.853  0.00  0.00    -0.030 C 
ATOM     11  C   UNL     1      34.158 -16.444 -25.261  0.00  0.00    +0.288 A 
ATOM     12  H   UNL     1      34.591 -18.179 -26.351  0.00  0.00    +0.211 HD
ENDROOT
BRANCH   4  13
ATOM     13  C   UNL     1      33.672 -13.719 -24.049  0.00  0.00    +0.015 C 
BRANCH  13  14
ATOM     14  CA  UNL     1      33.263 -12.538 -23.177  0.00  0.00    +0.040 C 
BRANCH  14  15
ATOM     15  N   UNL     1      31.823 -12.590 -22.933  0.00  0.00    +0.389 N 
ATOM     16  H1  UNL     1      31.628 -13.262 -22.190  0.00  0.00    -0.088 HD
ATOM     17  H2  UNL     1      31.344 -12.879 -23.786  0.00  0.00    -0.088 HD
ATOM     18  H3  UNL     1      31.491 -11.667 -22.653  0.00  0.00    -0.088 HD
ENDBRANCH  14  15
BRANCH  14  20
ATOM     19  OXT UNL     1      32.783 -10.232 -23.822  0.00  0.00    -0.253 OA
ATOM     20  C   UNL     1      33.535 -11.197 -23.843  0.00  0.00    +0.293 C 
BRANCH  20  21
ATOM     21  O   UNL     1      34.726 -11.187 -24.502  0.00  0.00    -0.482 OA
ATOM     22  H   UNL     1      34.893 -10.539 -25.157  0.00  0.00    +0.295 HD
ENDBRANCH  20  21
ENDBRANCH  14  20
ENDBRANCH  13  14
ENDBRANCH   4  13
TORSDOF 5
ENDMDL
