MODEL 1
REMARK VINA RESULT:     -11.9      0.000      0.000
REMARK  Name = 10224714
REMARK  8 active torsions:
REMARK  status: ('A' for Active; 'I' for Inactive)
REMARK    1  A    between atoms: N_1  and  C_12
REMARK    2  A    between atoms: N_2  and  CA_30
REMARK    3  A    between atoms: N_15  and  C_17
REMARK    4  A    between atoms: C_17  and  C_18
REMARK    5  A    between atoms: C_21  and  C_25
REMARK    6  A    between atoms: CA_30  and  C_31
REMARK    7  A    between atoms: CA_30  and  C_33
REMARK    8  A    between atoms: C_33  and  O_34
REMARK                            x       y       z     vdW  Elec       q    Type
REMARK                         _______ _______ _______ _____ _____    ______ ____
ROOT
ATOM      1  N   UNL     1      36.304 -23.286 -14.034  0.00  0.00    -0.262 N 
ATOM      2  N   UNL     1      31.855 -23.995 -15.541  0.00  0.00    -0.258 N 
ATOM      3  N   UNL     1      33.983 -23.712 -14.610  0.00  0.00    -0.311 NA
ATOM      4  N   UNL     1      37.060 -22.559 -16.001  0.00  0.00    -0.240 NA
ATOM      5  N   UNL     1      33.541 -23.185 -16.952  0.00  0.00    -0.311 NA
ATOM      6  C   UNL     1      35.237 -23.323 -14.885  0.00  0.00    +0.220 C 
ATOM      7  C   UNL     1      35.727 -22.869 -16.099  0.00  0.00    +0.167 C 
ATOM      8  C   UNL     1      34.825 -22.807 -17.158  0.00  0.00    +0.215 C 
ATOM      9  C   UNL     1      33.174 -23.617 -15.706  0.00  0.00    +0.202 C 
ATOM     10  C   UNL     1      37.375 -22.822 -14.749  0.00  0.00    +0.222 C 
ATOM     11  H   UNL     1      31.252 -23.934 -16.318  0.00  0.00    +0.160 HD
ATOM     12  N   UNL     1      35.236 -22.360 -18.426  0.00  0.00    -0.302 N 
ATOM     13  H   UNL     1      36.175 -22.090 -18.547  0.00  0.00    +0.150 HD
ENDROOT
BRANCH   1  14
ATOM     14  C   UNL     1      36.311 -23.663 -12.641  0.00  0.00    +0.077 C 
ATOM     15  C   UNL     1      36.500 -25.171 -12.457  0.00  0.00    +0.022 C 
ATOM     16  C   UNL     1      37.338 -22.865 -11.836  0.00  0.00    +0.022 C 
ENDBRANCH   1  14
BRANCH  12  17
ATOM     17  C   UNL     1      34.350 -22.277 -19.549  0.00  0.00    +0.116 C 
BRANCH  17  18
ATOM     18  C   UNL     1      34.372 -20.891 -20.135  0.00  0.00    -0.003 C 
ATOM     19  C   UNL     1      33.176 -20.231 -20.378  0.00  0.00    -0.003 C 
ATOM     20  C   UNL     1      35.590 -20.291 -20.427  0.00  0.00    -0.003 C 
ATOM     21  C   UNL     1      34.414 -18.334 -21.219  0.00  0.00    +0.018 C 
ATOM     22  C   UNL     1      33.196 -18.947 -20.923  0.00  0.00    +0.001 C 
ATOM     23  C   UNL     1      35.611 -19.006 -20.971  0.00  0.00    +0.001 C 
BRANCH  21  25
ATOM     24  N   UNL     1      34.470 -16.957 -23.132  0.00  0.00    -0.244 NA
ATOM     25  C   UNL     1      34.435 -17.002 -21.782  0.00  0.00    +0.081 C 
ATOM     26  C   UNL     1      34.422 -15.885 -20.965  0.00  0.00    +0.019 C 
ATOM     27  C   UNL     1      34.443 -14.636 -21.574  0.00  0.00    +0.003 C 
ATOM     28  C   UNL     1      34.490 -15.725 -23.688  0.00  0.00    +0.099 C 
ATOM     29  C   UNL     1      34.478 -14.545 -22.961  0.00  0.00    +0.021 C 
ENDBRANCH  21  25
ENDBRANCH  17  18
ENDBRANCH  12  17
BRANCH   2  30
ATOM     30  CA  UNL     1      31.311 -24.478 -14.286  0.00  0.00    +0.109 C 
BRANCH  30  31
ATOM     31  C   UNL     1      30.098 -25.377 -14.556  0.00  0.00    +0.023 C 
ATOM     32  C   UNL     1      28.969 -24.645 -15.268  0.00  0.00    +0.002 C 
ENDBRANCH  30  31
BRANCH  30  33
ATOM     33  C   UNL     1      30.918 -23.276 -13.427  0.00  0.00    +0.157 C 
BRANCH  33  34
ATOM     34  O   UNL     1      32.004 -22.931 -12.573  0.00  0.00    -0.380 OA
ATOM     35  H   UNL     1      32.516 -22.213 -12.976  0.00  0.00    +0.211 HD
ENDBRANCH  33  34
ENDBRANCH  30  33
ENDBRANCH   2  30
TORSDOF 8
ENDMDL
MODEL 2
REMARK VINA RESULT:     -11.8      1.501      4.150
REMARK  Name = 10224714
REMARK  8 active torsions:
REMARK  status: ('A' for Active; 'I' for Inactive)
REMARK    1  A    between atoms: N_1  and  C_12
REMARK    2  A    between atoms: N_2  and  CA_30
REMARK    3  A    between atoms: N_15  and  C_17
REMARK    4  A    between atoms: C_17  and  C_18
REMARK    5  A    between atoms: C_21  and  C_25
REMARK    6  A    between atoms: CA_30  and  C_31
REMARK    7  A    between atoms: CA_30  and  C_33
REMARK    8  A    between atoms: C_33  and  O_34
REMARK                            x       y       z     vdW  Elec       q    Type
REMARK                         _______ _______ _______ _____ _____    ______ ____
ROOT
ATOM      1  N   UNL     1      31.686 -23.943 -15.260  0.00  0.00    -0.262 N 
ATOM      2  N   UNL     1      36.432 -24.126 -15.178  0.00  0.00    -0.258 N 
ATOM      3  N   UNL     1      34.096 -24.134 -15.033  0.00  0.00    -0.311 NA
ATOM      4  N   UNL     1      31.568 -22.914 -17.234  0.00  0.00    -0.240 NA
ATOM      5  N   UNL     1      35.247 -23.167 -16.957  0.00  0.00    -0.311 NA
ATOM      6  C   UNL     1      32.976 -23.767 -15.673  0.00  0.00    +0.220 C 
ATOM      7  C   UNL     1      32.880 -23.127 -16.898  0.00  0.00    +0.167 C 
ATOM      8  C   UNL     1      34.075 -22.826 -17.544  0.00  0.00    +0.215 C 
ATOM      9  C   UNL     1      35.215 -23.798 -15.742  0.00  0.00    +0.202 C 
ATOM     10  C   UNL     1      30.877 -23.415 -16.231  0.00  0.00    +0.222 C 
ATOM     11  H   UNL     1      37.252 -23.895 -15.672  0.00  0.00    +0.160 HD
ATOM     12  N   UNL     1      34.073 -22.176 -18.791  0.00  0.00    -0.302 N 
ATOM     13  H   UNL     1      33.207 -21.940 -19.196  0.00  0.00    +0.150 HD
ENDROOT
BRANCH   1  14
ATOM     14  C   UNL     1      31.247 -24.568 -14.036  0.00  0.00    +0.077 C 
ATOM     15  C   UNL     1      31.013 -23.544 -12.923  0.00  0.00    +0.022 C 
ATOM     16  C   UNL     1      30.020 -25.455 -14.252  0.00  0.00    +0.022 C 
ENDBRANCH   1  14
BRANCH  12  17
ATOM     17  C   UNL     1      35.273 -21.843 -19.500  0.00  0.00    +0.116 C 
BRANCH  17  18
ATOM     18  C   UNL     1      35.107 -20.539 -20.232  0.00  0.00    -0.003 C 
ATOM     19  C   UNL     1      36.231 -19.811 -20.600  0.00  0.00    -0.003 C 
ATOM     20  C   UNL     1      33.831 -20.079 -20.531  0.00  0.00    -0.003 C 
ATOM     21  C   UNL     1      34.800 -18.132 -21.583  0.00  0.00    +0.018 C 
ATOM     22  C   UNL     1      36.077 -18.602 -21.277  0.00  0.00    +0.001 C 
ATOM     23  C   UNL     1      33.677 -18.870 -21.209  0.00  0.00    +0.001 C 
BRANCH  21  25
ATOM     24  N   UNL     1      34.531 -16.990 -23.628  0.00  0.00    -0.244 NA
ATOM     25  C   UNL     1      34.640 -16.878 -22.287  0.00  0.00    +0.081 C 
ATOM     26  C   UNL     1      34.610 -15.677 -21.599  0.00  0.00    +0.019 C 
ATOM     27  C   UNL     1      34.454 -14.510 -22.339  0.00  0.00    +0.003 C 
ATOM     28  C   UNL     1      34.381 -15.834 -24.314  0.00  0.00    +0.099 C 
ATOM     29  C   UNL     1      34.337 -14.581 -23.722  0.00  0.00    +0.021 C 
ENDBRANCH  21  25
ENDBRANCH  17  18
ENDBRANCH  12  17
BRANCH   2  30
ATOM     30  CA  UNL     1      36.568 -24.793 -13.896  0.00  0.00    +0.109 C 
BRANCH  30  31
ATOM     31  C   UNL     1      37.598 -24.056 -13.032  0.00  0.00    +0.023 C 
ATOM     32  C   UNL     1      36.953 -23.175 -11.970  0.00  0.00    +0.002 C 
ENDBRANCH  30  31
BRANCH  30  33
ATOM     33  C   UNL     1      36.995 -26.240 -14.139  0.00  0.00    +0.157 C 
BRANCH  33  34
ATOM     34  O   UNL     1      36.015 -26.894 -14.938  0.00  0.00    -0.380 OA
ATOM     35  H   UNL     1      35.848 -26.371 -15.737  0.00  0.00    +0.211 HD
ENDBRANCH  33  34
ENDBRANCH  30  33
ENDBRANCH   2  30
TORSDOF 8
ENDMDL
MODEL 3
REMARK VINA RESULT:     -10.5      1.219      1.488
REMARK  Name = 10224714
REMARK  8 active torsions:
REMARK  status: ('A' for Active; 'I' for Inactive)
REMARK    1  A    between atoms: N_1  and  C_12
REMARK    2  A    between atoms: N_2  and  CA_30
REMARK    3  A    between atoms: N_15  and  C_17
REMARK    4  A    between atoms: C_17  and  C_18
REMARK    5  A    between atoms: C_21  and  C_25
REMARK    6  A    between atoms: CA_30  and  C_31
REMARK    7  A    between atoms: CA_30  and  C_33
REMARK    8  A    between atoms: C_33  and  O_34
REMARK                            x       y       z     vdW  Elec       q    Type
REMARK                         _______ _______ _______ _____ _____    ______ ____
ROOT
ATOM      1  N   UNL     1      35.996 -23.148 -14.187  0.00  0.00    -0.262 N 
ATOM      2  N   UNL     1      31.645 -23.120 -16.094  0.00  0.00    -0.258 N 
ATOM      3  N   UNL     1      33.696 -23.165 -14.969  0.00  0.00    -0.311 NA
ATOM      4  N   UNL     1      37.053 -22.799 -16.118  0.00  0.00    -0.240 NA
ATOM      5  N   UNL     1      33.578 -22.814 -17.381  0.00  0.00    -0.311 NA
ATOM      6  C   UNL     1      35.022 -23.063 -15.142  0.00  0.00    +0.220 C 
ATOM      7  C   UNL     1      35.699 -22.847 -16.331  0.00  0.00    +0.167 C 
ATOM      8  C   UNL     1      34.925 -22.721 -17.481  0.00  0.00    +0.215 C 
ATOM      9  C   UNL     1      33.022 -23.030 -16.149  0.00  0.00    +0.202 C 
ATOM     10  C   UNL     1      37.198 -22.983 -14.822  0.00  0.00    +0.222 C 
ATOM     11  H   UNL     1      31.137 -23.023 -16.932  0.00  0.00    +0.160 HD
ATOM     12  N   UNL     1      35.528 -22.501 -18.732  0.00  0.00    -0.302 N 
ATOM     13  H   UNL     1      36.510 -22.437 -18.775  0.00  0.00    +0.150 HD
ENDROOT
BRANCH   1  14
ATOM     14  C   UNL     1      35.804 -23.369 -12.774  0.00  0.00    +0.077 C 
ATOM     15  C   UNL     1      35.390 -24.811 -12.471  0.00  0.00    +0.022 C 
ATOM     16  C   UNL     1      37.028 -22.951 -11.958  0.00  0.00    +0.022 C 
ENDBRANCH   1  14
BRANCH  12  17
ATOM     17  C   UNL     1      34.780 -22.364 -19.946  0.00  0.00    +0.116 C 
BRANCH  17  18
ATOM     18  C   UNL     1      34.734 -20.924 -20.376  0.00  0.00    -0.003 C 
ATOM     19  C   UNL     1      33.506 -20.307 -20.575  0.00  0.00    -0.003 C 
ATOM     20  C   UNL     1      35.920 -20.229 -20.570  0.00  0.00    -0.003 C 
ATOM     21  C   UNL     1      34.649 -18.264 -21.172  0.00  0.00    +0.018 C 
ATOM     22  C   UNL     1      33.463 -18.972 -20.976  0.00  0.00    +0.001 C 
ATOM     23  C   UNL     1      35.878 -18.892 -20.970  0.00  0.00    +0.001 C 
BRANCH  21  25
ATOM     24  N   UNL     1      34.489 -15.988 -20.578  0.00  0.00    -0.244 NA
ATOM     25  C   UNL     1      34.604 -16.879 -21.586  0.00  0.00    +0.081 C 
ATOM     26  C   UNL     1      34.676 -16.536 -22.926  0.00  0.00    +0.019 C 
ATOM     27  C   UNL     1      34.627 -15.185 -23.252  0.00  0.00    +0.003 C 
ATOM     28  C   UNL     1      34.444 -14.685 -20.934  0.00  0.00    +0.099 C 
ATOM     29  C   UNL     1      34.509 -14.235 -22.243  0.00  0.00    +0.021 C 
ENDBRANCH  21  25
ENDBRANCH  17  18
ENDBRANCH  12  17
BRANCH   2  30
ATOM     30  CA  UNL     1      30.905 -23.349 -14.866  0.00  0.00    +0.109 C 
BRANCH  30  31
ATOM     31  C   UNL     1      30.752 -24.855 -14.624  0.00  0.00    +0.023 C 
ATOM     32  C   UNL     1      31.502 -25.332 -13.387  0.00  0.00    +0.002 C 
ENDBRANCH  30  31
BRANCH  30  33
ATOM     33  C   UNL     1      29.539 -22.674 -14.983  0.00  0.00    +0.157 C 
BRANCH  33  34
ATOM     34  O   UNL     1      28.976 -22.964 -16.258  0.00  0.00    -0.380 OA
ATOM     35  H   UNL     1      28.583 -23.851 -16.243  0.00  0.00    +0.211 HD
ENDBRANCH  33  34
ENDBRANCH  30  33
ENDBRANCH   2  30
TORSDOF 8
ENDMDL
