MODEL 1
REMARK VINA RESULT:      -7.8      0.000      0.000
REMARK  Name = 445537
REMARK  4 active torsions:
REMARK  status: ('A' for Active; 'I' for Inactive)
REMARK    1  A    between atoms: C_2  and  O_16
REMARK    2  A    between atoms: C_3  and  C_10
REMARK    3  A    between atoms: C_5  and  C_18
REMARK    4  A    between atoms: C_18  and  O_19
REMARK                            x       y       z     vdW  Elec       q    Type
REMARK                         _______ _______ _______ _____ _____    ______ ____
ROOT
ATOM      1  O   UNL     1      35.157 -24.860 -14.725  0.00  0.00    -0.349 OA
ATOM      2  C   UNL     1      37.031 -23.419 -14.514  0.00  0.00    +0.143 C 
ATOM      3  C   UNL     1      35.126 -23.919 -15.810  0.00  0.00    +0.146 C 
ATOM      4  C   UNL     1      36.006 -22.747 -15.397  0.00  0.00    +0.066 C 
ATOM      5  C   UNL     1      36.223 -24.505 -13.820  0.00  0.00    +0.171 C 
ENDROOT
BRANCH   3  10
ATOM      6  O   UNL     1      34.214 -23.108 -18.379  0.00  0.00    -0.270 OA
ATOM      7  O   UNL     1      29.884 -22.410 -16.998  0.00  0.00    -0.252 OA
ATOM      8  N   UNL     1      31.448 -23.142 -15.430  0.00  0.00    -0.240 N 
ATOM      9  N   UNL     1      32.048 -22.763 -17.673  0.00  0.00    -0.236 N 
ATOM     10  C   UNL     1      33.720 -23.522 -16.095  0.00  0.00    +0.073 C 
ATOM     11  C   UNL     1      32.752 -23.509 -15.170  0.00  0.00    +0.072 C 
ATOM     12  C   UNL     1      33.374 -23.119 -17.484  0.00  0.00    +0.252 C 
ATOM     13  C   UNL     1      31.034 -22.748 -16.709  0.00  0.00    +0.314 C 
ATOM     14  C   UNL     1      30.499 -23.175 -14.323  0.00  0.00    +0.122 C 
ATOM     15  H   UNL     1      31.791 -22.491 -18.584  0.00  0.00    +0.159 HD
ENDBRANCH   3  10
BRANCH   2  16
ATOM     16  O   UNL     1      38.023 -24.016 -15.345  0.00  0.00    -0.382 OA
ATOM     17  H   UNL     1      37.591 -24.542 -16.037  0.00  0.00    +0.210 HD
ENDBRANCH   2  16
BRANCH   5  18
ATOM     18  C   UNL     1      35.591 -24.032 -12.518  0.00  0.00    +0.169 C 
BRANCH  18  19
ATOM     19  O   UNL     1      34.527 -24.907 -12.186  0.00  0.00    -0.379 OA
ATOM     20  H   UNL     1      33.713 -24.395 -12.063  0.00  0.00    +0.211 HD
ENDBRANCH  18  19
ENDBRANCH   5  18
TORSDOF 4
ENDMDL
MODEL 2
REMARK VINA RESULT:      -7.6      1.649      2.168
REMARK  Name = 445537
REMARK  4 active torsions:
REMARK  status: ('A' for Active; 'I' for Inactive)
REMARK    1  A    between atoms: C_2  and  O_16
REMARK    2  A    between atoms: C_3  and  C_10
REMARK    3  A    between atoms: C_5  and  C_18
REMARK    4  A    between atoms: C_18  and  O_19
REMARK                            x       y       z     vdW  Elec       q    Type
REMARK                         _______ _______ _______ _____ _____    ______ ____
ROOT
ATOM      1  O   UNL     1      36.386 -24.619 -15.666  0.00  0.00    -0.349 OA
ATOM      2  C   UNL     1      37.328 -24.828 -13.497  0.00  0.00    +0.143 C 
ATOM      3  C   UNL     1      35.662 -23.755 -14.775  0.00  0.00    +0.146 C 
ATOM      4  C   UNL     1      35.937 -24.254 -13.363  0.00  0.00    +0.066 C 
ATOM      5  C   UNL     1      37.323 -25.408 -14.904  0.00  0.00    +0.171 C 
ENDROOT
BRANCH   3  10
ATOM      6  O   UNL     1      34.650 -22.865 -17.279  0.00  0.00    -0.270 OA
ATOM      7  O   UNL     1      30.266 -23.743 -16.206  0.00  0.00    -0.252 OA
ATOM      8  N   UNL     1      31.913 -24.203 -14.620  0.00  0.00    -0.240 N 
ATOM      9  N   UNL     1      32.457 -23.311 -16.728  0.00  0.00    -0.236 N 
ATOM     10  C   UNL     1      34.215 -23.765 -15.127  0.00  0.00    +0.073 C 
ATOM     11  C   UNL     1      33.255 -24.193 -14.298  0.00  0.00    +0.072 C 
ATOM     12  C   UNL     1      33.819 -23.272 -16.473  0.00  0.00    +0.252 C 
ATOM     13  C   UNL     1      31.451 -23.757 -15.865  0.00  0.00    +0.314 C 
ATOM     14  C   UNL     1      30.978 -24.697 -13.617  0.00  0.00    +0.122 C 
ATOM     15  H   UNL     1      32.167 -22.989 -17.613  0.00  0.00    +0.159 HD
ENDBRANCH   3  10
BRANCH   2  16
ATOM     16  O   UNL     1      38.268 -23.759 -13.424  0.00  0.00    -0.382 OA
ATOM     17  H   UNL     1      39.162 -24.102 -13.576  0.00  0.00    +0.210 HD
ENDBRANCH   2  16
BRANCH   5  18
ATOM     18  C   UNL     1      36.855 -26.856 -14.945  0.00  0.00    +0.169 C 
BRANCH  18  19
ATOM     19  O   UNL     1      36.823 -27.285 -16.295  0.00  0.00    -0.379 OA
ATOM     20  H   UNL     1      37.661 -27.722 -16.516  0.00  0.00    +0.211 HD
ENDBRANCH  18  19
ENDBRANCH   5  18
TORSDOF 4
ENDMDL
MODEL 3
REMARK VINA RESULT:      -7.5      6.586      8.935
REMARK  Name = 445537
REMARK  4 active torsions:
REMARK  status: ('A' for Active; 'I' for Inactive)
REMARK    1  A    between atoms: C_2  and  O_16
REMARK    2  A    between atoms: C_3  and  C_10
REMARK    3  A    between atoms: C_5  and  C_18
REMARK    4  A    between atoms: C_18  and  O_19
REMARK                            x       y       z     vdW  Elec       q    Type
REMARK                         _______ _______ _______ _____ _____    ______ ____
ROOT
ATOM      1  O   UNL     1      35.227 -16.700 -21.040  0.00  0.00    -0.349 OA
ATOM      2  C   UNL     1      34.408 -16.351 -23.240  0.00  0.00    +0.143 C 
ATOM      3  C   UNL     1      35.595 -17.834 -21.843  0.00  0.00    +0.146 C 
ATOM      4  C   UNL     1      34.675 -17.827 -23.056  0.00  0.00    +0.066 C 
ATOM      5  C   UNL     1      34.373 -15.831 -21.811  0.00  0.00    +0.171 C 
ENDROOT
BRANCH   3  10
ATOM      6  O   UNL     1      37.849 -19.294 -20.907  0.00  0.00    -0.270 OA
ATOM      7  O   UNL     1      35.322 -22.515 -18.813  0.00  0.00    -0.252 OA
ATOM      8  N   UNL     1      34.221 -20.787 -19.927  0.00  0.00    -0.240 N 
ATOM      9  N   UNL     1      36.570 -20.901 -19.862  0.00  0.00    -0.236 N 
ATOM     10  C   UNL     1      35.489 -19.081 -21.036  0.00  0.00    +0.073 C 
ATOM     11  C   UNL     1      34.323 -19.631 -20.675  0.00  0.00    +0.072 C 
ATOM     12  C   UNL     1      36.748 -19.747 -20.609  0.00  0.00    +0.252 C 
ATOM     13  C   UNL     1      35.354 -21.480 -19.482  0.00  0.00    +0.314 C 
ATOM     14  C   UNL     1      32.883 -21.273 -19.608  0.00  0.00    +0.122 C 
ATOM     15  H   UNL     1      37.388 -21.363 -19.566  0.00  0.00    +0.159 HD
ENDBRANCH   3  10
BRANCH   2  16
ATOM     16  O   UNL     1      35.512 -15.775 -23.933  0.00  0.00    -0.382 OA
ATOM     17  H   UNL     1      35.192 -15.089 -24.540  0.00  0.00    +0.210 HD
ENDBRANCH   2  16
BRANCH   5  18
ATOM     18  C   UNL     1      32.981 -15.880 -21.197  0.00  0.00    +0.169 C 
BRANCH  18  19
ATOM     19  O   UNL     1      32.193 -14.854 -21.775  0.00  0.00    -0.379 OA
ATOM     20  H   UNL     1      31.700 -15.212 -22.530  0.00  0.00    +0.211 HD
ENDBRANCH  18  19
ENDBRANCH   5  18
TORSDOF 4
ENDMDL
MODEL 4
REMARK VINA RESULT:      -7.4      1.954      2.851
REMARK  Name = 445537
REMARK  4 active torsions:
REMARK  status: ('A' for Active; 'I' for Inactive)
REMARK    1  A    between atoms: C_2  and  O_16
REMARK    2  A    between atoms: C_3  and  C_10
REMARK    3  A    between atoms: C_5  and  C_18
REMARK    4  A    between atoms: C_18  and  O_19
REMARK                            x       y       z     vdW  Elec       q    Type
REMARK                         _______ _______ _______ _____ _____    ______ ____
ROOT
ATOM      1  O   UNL     1      37.846 -24.131 -14.368  0.00  0.00    -0.349 OA
ATOM      2  C   UNL     1      37.531 -23.958 -12.022  0.00  0.00    +0.143 C 
ATOM      3  C   UNL     1      36.936 -23.049 -14.115  0.00  0.00    +0.146 C 
ATOM      4  C   UNL     1      36.380 -23.265 -12.713  0.00  0.00    +0.066 C 
ATOM      5  C   UNL     1      38.127 -24.814 -13.130  0.00  0.00    +0.171 C 
ENDROOT
BRANCH   3  10
ATOM      6  O   UNL     1      37.407 -22.220 -16.793  0.00  0.00    -0.270 OA
ATOM      7  O   UNL     1      33.060 -22.902 -18.131  0.00  0.00    -0.252 OA
ATOM      8  N   UNL     1      33.628 -23.359 -15.915  0.00  0.00    -0.240 N 
ATOM      9  N   UNL     1      35.225 -22.567 -17.450  0.00  0.00    -0.236 N 
ATOM     10  C   UNL     1      35.879 -23.021 -15.164  0.00  0.00    +0.073 C 
ATOM     11  C   UNL     1      34.609 -23.383 -14.945  0.00  0.00    +0.072 C 
ATOM     12  C   UNL     1      36.260 -22.566 -16.527  0.00  0.00    +0.252 C 
ATOM     13  C   UNL     1      33.897 -22.944 -17.226  0.00  0.00    +0.314 C 
ATOM     14  C   UNL     1      32.285 -23.781 -15.533  0.00  0.00    +0.122 C 
ATOM     15  H   UNL     1      35.449 -22.269 -18.362  0.00  0.00    +0.159 HD
ENDBRANCH   3  10
BRANCH   2  16
ATOM     16  O   UNL     1      38.476 -22.971 -11.618  0.00  0.00    -0.382 OA
ATOM     17  H   UNL     1      38.200 -22.585 -10.771  0.00  0.00    +0.210 HD
ENDBRANCH   2  16
BRANCH   5  18
ATOM     18  C   UNL     1      37.501 -26.200 -13.209  0.00  0.00    +0.169 C 
BRANCH  18  19
ATOM     19  O   UNL     1      36.885 -26.491 -11.966  0.00  0.00    -0.379 OA
ATOM     20  H   UNL     1      36.396 -25.712 -11.657  0.00  0.00    +0.211 HD
ENDBRANCH  18  19
ENDBRANCH   5  18
TORSDOF 4
ENDMDL
MODEL 5
REMARK VINA RESULT:      -7.4      8.458     10.170
REMARK  Name = 445537
REMARK  4 active torsions:
REMARK  status: ('A' for Active; 'I' for Inactive)
REMARK    1  A    between atoms: C_2  and  O_16
REMARK    2  A    between atoms: C_3  and  C_10
REMARK    3  A    between atoms: C_5  and  C_18
REMARK    4  A    between atoms: C_18  and  O_19
REMARK                            x       y       z     vdW  Elec       q    Type
REMARK                         _______ _______ _______ _____ _____    ______ ____
ROOT
ATOM      1  O   UNL     1      34.473 -19.096 -22.875  0.00  0.00    -0.349 OA
ATOM      2  C   UNL     1      35.474 -18.934 -20.729  0.00  0.00    +0.143 C 
ATOM      3  C   UNL     1      35.248 -17.887 -22.830  0.00  0.00    +0.146 C 
ATOM      4  C   UNL     1      35.462 -17.560 -21.358  0.00  0.00    +0.066 C 
ATOM      5  C   UNL     1      34.460 -19.700 -21.566  0.00  0.00    +0.171 C 
ENDROOT
BRANCH   3  10
ATOM      6  O   UNL     1      34.808 -17.941 -25.639  0.00  0.00    -0.270 OA
ATOM      7  O   UNL     1      32.620 -13.898 -25.719  0.00  0.00    -0.252 OA
ATOM      8  N   UNL     1      33.395 -14.703 -23.672  0.00  0.00    -0.240 N 
ATOM      9  N   UNL     1      33.712 -15.914 -25.664  0.00  0.00    -0.236 N 
ATOM     10  C   UNL     1      34.543 -16.806 -23.572  0.00  0.00    +0.073 C 
ATOM     11  C   UNL     1      34.050 -15.707 -22.988  0.00  0.00    +0.072 C 
ATOM     12  C   UNL     1      34.378 -16.959 -25.042  0.00  0.00    +0.252 C 
ATOM     13  C   UNL     1      33.196 -14.764 -25.057  0.00  0.00    +0.314 C 
ATOM     14  C   UNL     1      32.912 -13.562 -22.904  0.00  0.00    +0.122 C 
ATOM     15  H   UNL     1      33.590 -15.989 -26.638  0.00  0.00    +0.159 HD
ENDBRANCH   3  10
BRANCH   2  16
ATOM     16  O   UNL     1      36.769 -19.502 -20.908  0.00  0.00    -0.382 OA
ATOM     17  H   UNL     1      37.021 -19.992 -20.109  0.00  0.00    +0.210 HD
ENDBRANCH   2  16
BRANCH   5  18
ATOM     18  C   UNL     1      33.043 -19.597 -21.019  0.00  0.00    +0.169 C 
BRANCH  18  19
ATOM     19  O   UNL     1      32.710 -20.820 -20.386  0.00  0.00    -0.379 OA
ATOM     20  H   UNL     1      33.378 -21.028 -19.714  0.00  0.00    +0.211 HD
ENDBRANCH  18  19
ENDBRANCH   5  18
TORSDOF 4
ENDMDL
MODEL 6
REMARK VINA RESULT:      -7.3      1.650      3.100
REMARK  Name = 445537
REMARK  4 active torsions:
REMARK  status: ('A' for Active; 'I' for Inactive)
REMARK    1  A    between atoms: C_2  and  O_16
REMARK    2  A    between atoms: C_3  and  C_10
REMARK    3  A    between atoms: C_5  and  C_18
REMARK    4  A    between atoms: C_18  and  O_19
REMARK                            x       y       z     vdW  Elec       q    Type
REMARK                         _______ _______ _______ _____ _____    ______ ____
ROOT
ATOM      1  O   UNL     1      35.983 -23.547 -13.964  0.00  0.00    -0.349 OA
ATOM      2  C   UNL     1      37.251 -25.487 -14.473  0.00  0.00    +0.143 C 
ATOM      3  C   UNL     1      35.071 -24.615 -14.263  0.00  0.00    +0.146 C 
ATOM      4  C   UNL     1      35.861 -25.660 -15.039  0.00  0.00    +0.066 C 
ATOM      5  C   UNL     1      37.332 -23.989 -14.220  0.00  0.00    +0.171 C 
ENDROOT
BRANCH   3  10
ATOM      6  O   UNL     1      32.415 -24.607 -13.246  0.00  0.00    -0.270 OA
ATOM      7  O   UNL     1      30.617 -22.659 -17.003  0.00  0.00    -0.252 OA
ATOM      8  N   UNL     1      32.912 -23.072 -16.954  0.00  0.00    -0.240 N 
ATOM      9  N   UNL     1      31.528 -23.630 -15.135  0.00  0.00    -0.236 N 
ATOM     10  C   UNL     1      33.903 -24.086 -15.020  0.00  0.00    +0.073 C 
ATOM     11  C   UNL     1      33.992 -23.564 -16.249  0.00  0.00    +0.072 C 
ATOM     12  C   UNL     1      32.566 -24.140 -14.371  0.00  0.00    +0.252 C 
ATOM     13  C   UNL     1      31.617 -23.084 -16.420  0.00  0.00    +0.314 C 
ATOM     14  C   UNL     1      33.159 -22.534 -18.286  0.00  0.00    +0.122 C 
ATOM     15  H   UNL     1      30.631 -23.654 -14.729  0.00  0.00    +0.159 HD
ENDBRANCH   3  10
BRANCH   2  16
ATOM     16  O   UNL     1      37.326 -26.187 -13.234  0.00  0.00    -0.382 OA
ATOM     17  H   UNL     1      37.538 -27.119 -13.400  0.00  0.00    +0.210 HD
ENDBRANCH   2  16
BRANCH   5  18
ATOM     18  C   UNL     1      37.857 -23.214 -15.421  0.00  0.00    +0.169 C 
BRANCH  18  19
ATOM     19  O   UNL     1      39.091 -23.782 -15.823  0.00  0.00    -0.379 OA
ATOM     20  H   UNL     1      39.044 -24.025 -16.761  0.00  0.00    +0.211 HD
ENDBRANCH  18  19
ENDBRANCH   5  18
TORSDOF 4
ENDMDL
MODEL 7
REMARK VINA RESULT:      -7.3      1.801      3.494
REMARK  Name = 445537
REMARK  4 active torsions:
REMARK  status: ('A' for Active; 'I' for Inactive)
REMARK    1  A    between atoms: C_2  and  O_16
REMARK    2  A    between atoms: C_3  and  C_10
REMARK    3  A    between atoms: C_5  and  C_18
REMARK    4  A    between atoms: C_18  and  O_19
REMARK                            x       y       z     vdW  Elec       q    Type
REMARK                         _______ _______ _______ _____ _____    ______ ____
ROOT
ATOM      1  O   UNL     1      36.149 -23.030 -14.640  0.00  0.00    -0.349 OA
ATOM      2  C   UNL     1      36.159 -25.264 -13.838  0.00  0.00    +0.143 C 
ATOM      3  C   UNL     1      34.878 -23.626 -14.949  0.00  0.00    +0.146 C 
ATOM      4  C   UNL     1      35.075 -25.134 -14.882  0.00  0.00    +0.066 C 
ATOM      5  C   UNL     1      37.023 -24.036 -14.089  0.00  0.00    +0.171 C 
ENDROOT
BRANCH   3  10
ATOM      6  O   UNL     1      32.163 -23.730 -15.786  0.00  0.00    -0.270 OA
ATOM      7  O   UNL     1      33.010 -21.896 -19.918  0.00  0.00    -0.252 OA
ATOM      8  N   UNL     1      34.796 -22.204 -18.450  0.00  0.00    -0.240 N 
ATOM      9  N   UNL     1      32.601 -22.809 -17.853  0.00  0.00    -0.236 N 
ATOM     10  C   UNL     1      34.411 -23.156 -16.283  0.00  0.00    +0.073 C 
ATOM     11  C   UNL     1      35.225 -22.641 -17.213  0.00  0.00    +0.072 C 
ATOM     12  C   UNL     1      32.962 -23.266 -16.595  0.00  0.00    +0.252 C 
ATOM     13  C   UNL     1      33.449 -22.270 -18.828  0.00  0.00    +0.314 C 
ATOM     14  C   UNL     1      35.796 -21.666 -19.364  0.00  0.00    +0.122 C 
ATOM     15  H   UNL     1      31.647 -22.871 -18.087  0.00  0.00    +0.159 HD
ENDBRANCH   3  10
BRANCH   2  16
ATOM     16  O   UNL     1      35.558 -25.172 -12.549  0.00  0.00    -0.382 OA
ATOM     17  H   UNL     1      35.319 -24.249 -12.368  0.00  0.00    +0.210 HD
ENDBRANCH   2  16
BRANCH   5  18
ATOM     18  C   UNL     1      38.134 -24.291 -15.097  0.00  0.00    +0.169 C 
BRANCH  18  19
ATOM     19  O   UNL     1      38.309 -23.126 -15.884  0.00  0.00    -0.379 OA
ATOM     20  H   UNL     1      39.120 -22.670 -15.611  0.00  0.00    +0.211 HD
ENDBRANCH  18  19
ENDBRANCH   5  18
TORSDOF 4
ENDMDL
MODEL 8
REMARK VINA RESULT:      -7.0      9.463     11.358
REMARK  Name = 445537
REMARK  4 active torsions:
REMARK  status: ('A' for Active; 'I' for Inactive)
REMARK    1  A    between atoms: C_2  and  O_16
REMARK    2  A    between atoms: C_3  and  C_10
REMARK    3  A    between atoms: C_5  and  C_18
REMARK    4  A    between atoms: C_18  and  O_19
REMARK                            x       y       z     vdW  Elec       q    Type
REMARK                         _______ _______ _______ _____ _____    ______ ____
ROOT
ATOM      1  O   UNL     1      35.637 -16.385 -22.631  0.00  0.00    -0.349 OA
ATOM      2  C   UNL     1      34.793 -18.424 -21.756  0.00  0.00    +0.143 C 
ATOM      3  C   UNL     1      34.741 -16.075 -21.552  0.00  0.00    +0.146 C 
ATOM      4  C   UNL     1      33.866 -17.305 -21.344  0.00  0.00    +0.066 C 
ATOM      5  C   UNL     1      35.592 -17.803 -22.892  0.00  0.00    +0.171 C 
ENDROOT
BRANCH   3  10
ATOM      6  O   UNL     1      32.667 -15.049 -19.899  0.00  0.00    -0.270 OA
ATOM      7  O   UNL     1      31.746 -11.499 -22.673  0.00  0.00    -0.252 OA
ATOM      8  N   UNL     1      33.437 -12.982 -23.288  0.00  0.00    -0.240 N 
ATOM      9  N   UNL     1      32.217 -13.274 -21.298  0.00  0.00    -0.236 N 
ATOM     10  C   UNL     1      33.959 -14.851 -21.879  0.00  0.00    +0.073 C 
ATOM     11  C   UNL     1      34.159 -14.118 -22.981  0.00  0.00    +0.072 C 
ATOM     12  C   UNL     1      32.901 -14.421 -20.927  0.00  0.00    +0.252 C 
ATOM     13  C   UNL     1      32.422 -12.505 -22.449  0.00  0.00    +0.314 C 
ATOM     14  C   UNL     1      33.764 -12.284 -24.526  0.00  0.00    +0.122 C 
ATOM     15  H   UNL     1      31.509 -12.967 -20.685  0.00  0.00    +0.159 HD
ENDBRANCH   3  10
BRANCH   2  16
ATOM     16  O   UNL     1      35.661 -18.717 -20.665  0.00  0.00    -0.382 OA
ATOM     17  H   UNL     1      35.149 -19.109 -19.939  0.00  0.00    +0.210 HD
ENDBRANCH   2  16
BRANCH   5  18
ATOM     18  C   UNL     1      34.941 -18.006 -24.254  0.00  0.00    +0.169 C 
BRANCH  18  19
ATOM     19  O   UNL     1      35.173 -16.853 -25.044  0.00  0.00    -0.379 OA
ATOM     20  H   UNL     1      36.123 -16.771 -25.226  0.00  0.00    +0.211 HD
ENDBRANCH  18  19
ENDBRANCH   5  18
TORSDOF 4
ENDMDL
MODEL 9
REMARK VINA RESULT:      -7.0     14.760     16.477
REMARK  Name = 445537
REMARK  4 active torsions:
REMARK  status: ('A' for Active; 'I' for Inactive)
REMARK    1  A    between atoms: C_2  and  O_16
REMARK    2  A    between atoms: C_3  and  C_10
REMARK    3  A    between atoms: C_5  and  C_18
REMARK    4  A    between atoms: C_18  and  O_19
REMARK                            x       y       z     vdW  Elec       q    Type
REMARK                         _______ _______ _______ _____ _____    ______ ____
ROOT
ATOM      1  O   UNL     1      33.403  -7.742 -22.371  0.00  0.00    -0.349 OA
ATOM      2  C   UNL     1      31.246  -6.783 -22.616  0.00  0.00    +0.143 C 
ATOM      3  C   UNL     1      32.755  -8.370 -23.490  0.00  0.00    +0.146 C 
ATOM      4  C   UNL     1      31.263  -8.114 -23.329  0.00  0.00    +0.066 C 
ATOM      5  C   UNL     1      32.467  -6.866 -21.711  0.00  0.00    +0.171 C 
ENDROOT
BRANCH   3  10
ATOM      6  O   UNL     1      34.937  -9.426 -24.977  0.00  0.00    -0.270 OA
ATOM      7  O   UNL     1      34.143 -13.773 -23.704  0.00  0.00    -0.252 OA
ATOM      8  N   UNL     1      32.732 -12.101 -22.895  0.00  0.00    -0.240 N 
ATOM      9  N   UNL     1      34.528 -11.600 -24.330  0.00  0.00    -0.236 N 
ATOM     10  C   UNL     1      33.100  -9.818 -23.527  0.00  0.00    +0.073 C 
ATOM     11  C   UNL     1      32.416 -10.758 -22.863  0.00  0.00    +0.072 C 
ATOM     12  C   UNL     1      34.268 -10.238 -24.345  0.00  0.00    +0.252 C 
ATOM     13  C   UNL     1      33.815 -12.586 -23.639  0.00  0.00    +0.314 C 
ATOM     14  C   UNL     1      31.897 -13.014 -22.123  0.00  0.00    +0.122 C 
ATOM     15  H   UNL     1      35.296 -11.906 -24.865  0.00  0.00    +0.159 HD
ENDBRANCH   3  10
BRANCH   2  16
ATOM     16  O   UNL     1      31.434  -5.750 -23.580  0.00  0.00    -0.382 OA
ATOM     17  H   UNL     1      30.896  -5.939 -24.365  0.00  0.00    +0.210 HD
ENDBRANCH   2  16
BRANCH   5  18
ATOM     18  C   UNL     1      32.153  -7.463 -20.346  0.00  0.00    +0.169 C 
BRANCH  18  19
ATOM     19  O   UNL     1      33.187  -7.104 -19.445  0.00  0.00    -0.379 OA
ATOM     20  H   UNL     1      33.968  -7.652 -19.615  0.00  0.00    +0.211 HD
ENDBRANCH  18  19
ENDBRANCH   5  18
TORSDOF 4
ENDMDL
