MODEL 1
REMARK VINA RESULT:      -8.9      0.000      0.000
REMARK  Name = 7638
REMARK  4 active torsions:
REMARK  status: ('A' for Active; 'I' for Inactive)
REMARK    1  A    between atoms: O_1  and  C_2
REMARK    2  A    between atoms: O_1  and  C_10
REMARK    3  A    between atoms: C_7  and  O_8
REMARK    4  A    between atoms: C_10  and  C_11
REMARK                            x       y       z     vdW  Elec       q    Type
REMARK                         _______ _______ _______ _____ _____    ______ ____
ROOT
ATOM      1  O   UNL     1      35.332 -17.388 -21.636  0.00  0.00    -0.471 OA
ENDROOT
BRANCH   1   2
ATOM      2  C   UNL     1      34.883 -16.932 -22.848  0.00  0.00    +0.139 C 
ATOM      3  C   UNL     1      35.029 -17.728 -23.979  0.00  0.00    +0.040 C 
ATOM      4  C   UNL     1      34.286 -15.679 -22.935  0.00  0.00    +0.040 C 
ATOM      5  C   UNL     1      34.574 -17.265 -25.213  0.00  0.00    +0.040 C 
ATOM      6  C   UNL     1      33.830 -15.216 -24.169  0.00  0.00    +0.040 C 
ATOM      7  C   UNL     1      33.974 -16.009 -25.308  0.00  0.00    +0.134 C 
BRANCH   7   8
ATOM      8  O   UNL     1      33.528 -15.556 -26.512  0.00  0.00    -0.506 OA
ATOM      9  H   UNL     1      34.133 -15.196 -27.130  0.00  0.00    +0.292 HD
ENDBRANCH   7   8
ENDBRANCH   1   2
BRANCH   1  10
ATOM     10  C   UNL     1      35.981 -18.653 -21.628  0.00  0.00    +0.232 C 
BRANCH  10  11
ATOM     11  C   UNL     1      35.139 -19.637 -20.886  0.00  0.00    +0.021 C 
ATOM     12  C   UNL     1      35.744 -20.655 -20.150  0.00  0.00    -0.001 C 
ATOM     13  C   UNL     1      33.749 -19.537 -20.928  0.00  0.00    -0.001 C 
ATOM     14  C   UNL     1      34.957 -21.575 -19.455  0.00  0.00    -0.000 C 
ATOM     15  C   UNL     1      32.962 -20.456 -20.234  0.00  0.00    -0.000 C 
ATOM     16  C   UNL     1      33.566 -21.475 -19.497  0.00  0.00    -0.000 C 
ENDBRANCH  10  11
ENDBRANCH   1  10
TORSDOF 4
ENDMDL
MODEL 2
REMARK VINA RESULT:      -8.9      0.009      1.248
REMARK  Name = 7638
REMARK  4 active torsions:
REMARK  status: ('A' for Active; 'I' for Inactive)
REMARK    1  A    between atoms: O_1  and  C_2
REMARK    2  A    between atoms: O_1  and  C_10
REMARK    3  A    between atoms: C_7  and  O_8
REMARK    4  A    between atoms: C_10  and  C_11
REMARK                            x       y       z     vdW  Elec       q    Type
REMARK                         _______ _______ _______ _____ _____    ______ ____
ROOT
ATOM      1  O   UNL     1      35.328 -17.384 -21.634  0.00  0.00    -0.471 OA
ENDROOT
BRANCH   1   2
ATOM      2  C   UNL     1      34.881 -16.928 -22.847  0.00  0.00    +0.139 C 
ATOM      3  C   UNL     1      34.285 -15.676 -22.934  0.00  0.00    +0.040 C 
ATOM      4  C   UNL     1      35.029 -17.724 -23.978  0.00  0.00    +0.040 C 
ATOM      5  C   UNL     1      33.829 -15.212 -24.168  0.00  0.00    +0.040 C 
ATOM      6  C   UNL     1      34.573 -17.260 -25.212  0.00  0.00    +0.040 C 
ATOM      7  C   UNL     1      33.973 -16.005 -25.307  0.00  0.00    +0.134 C 
BRANCH   7   8
ATOM      8  O   UNL     1      33.530 -15.552 -26.512  0.00  0.00    -0.506 OA
ATOM      9  H   UNL     1      32.631 -15.663 -26.752  0.00  0.00    +0.292 HD
ENDBRANCH   7   8
ENDBRANCH   1   2
BRANCH   1  10
ATOM     10  C   UNL     1      35.977 -18.648 -21.625  0.00  0.00    +0.232 C 
BRANCH  10  11
ATOM     11  C   UNL     1      35.132 -19.633 -20.888  0.00  0.00    +0.021 C 
ATOM     12  C   UNL     1      35.733 -20.655 -20.153  0.00  0.00    -0.001 C 
ATOM     13  C   UNL     1      33.742 -19.531 -20.933  0.00  0.00    -0.001 C 
ATOM     14  C   UNL     1      34.943 -21.575 -19.463  0.00  0.00    -0.000 C 
ATOM     15  C   UNL     1      32.953 -20.451 -20.243  0.00  0.00    -0.000 C 
ATOM     16  C   UNL     1      33.553 -21.473 -19.508  0.00  0.00    -0.000 C 
ENDBRANCH  10  11
ENDBRANCH   1  10
TORSDOF 4
ENDMDL
MODEL 3
REMARK VINA RESULT:      -8.5      1.711      2.683
REMARK  Name = 7638
REMARK  4 active torsions:
REMARK  status: ('A' for Active; 'I' for Inactive)
REMARK    1  A    between atoms: O_1  and  C_2
REMARK    2  A    between atoms: O_1  and  C_10
REMARK    3  A    between atoms: C_7  and  O_8
REMARK    4  A    between atoms: C_10  and  C_11
REMARK                            x       y       z     vdW  Elec       q    Type
REMARK                         _______ _______ _______ _____ _____    ______ ____
ROOT
ATOM      1  O   UNL     1      35.329 -17.223 -20.824  0.00  0.00    -0.471 OA
ENDROOT
BRANCH   1   2
ATOM      2  C   UNL     1      34.499 -16.262 -21.338  0.00  0.00    +0.139 C 
ATOM      3  C   UNL     1      33.580 -15.630 -20.507  0.00  0.00    +0.040 C 
ATOM      4  C   UNL     1      34.582 -15.928 -22.685  0.00  0.00    +0.040 C 
ATOM      5  C   UNL     1      32.734 -14.652 -21.029  0.00  0.00    +0.040 C 
ATOM      6  C   UNL     1      33.736 -14.950 -23.208  0.00  0.00    +0.040 C 
ATOM      7  C   UNL     1      32.812 -14.312 -22.380  0.00  0.00    +0.134 C 
BRANCH   7   8
ATOM      8  O   UNL     1      31.988 -13.357 -22.891  0.00  0.00    -0.506 OA
ATOM      9  H   UNL     1      31.679 -13.428 -23.773  0.00  0.00    +0.292 HD
ENDBRANCH   7   8
ENDBRANCH   1   2
BRANCH   1  10
ATOM     10  C   UNL     1      35.497 -18.404 -21.598  0.00  0.00    +0.232 C 
BRANCH  10  11
ATOM     11  C   UNL     1      34.957 -19.573 -20.842  0.00  0.00    +0.021 C 
ATOM     12  C   UNL     1      33.579 -19.750 -20.724  0.00  0.00    -0.001 C 
ATOM     13  C   UNL     1      35.832 -20.487 -20.255  0.00  0.00    -0.001 C 
ATOM     14  C   UNL     1      33.075 -20.843 -20.018  0.00  0.00    -0.000 C 
ATOM     15  C   UNL     1      35.328 -21.580 -19.550  0.00  0.00    -0.000 C 
ATOM     16  C   UNL     1      33.950 -21.758 -19.431  0.00  0.00    -0.000 C 
ENDBRANCH  10  11
ENDBRANCH   1  10
TORSDOF 4
ENDMDL
MODEL 4
REMARK VINA RESULT:      -8.5      1.696      2.339
REMARK  Name = 7638
REMARK  4 active torsions:
REMARK  status: ('A' for Active; 'I' for Inactive)
REMARK    1  A    between atoms: O_1  and  C_2
REMARK    2  A    between atoms: O_1  and  C_10
REMARK    3  A    between atoms: C_7  and  O_8
REMARK    4  A    between atoms: C_10  and  C_11
REMARK                            x       y       z     vdW  Elec       q    Type
REMARK                         _______ _______ _______ _____ _____    ______ ____
ROOT
ATOM      1  O   UNL     1      35.317 -17.141 -21.115  0.00  0.00    -0.471 OA
ENDROOT
BRANCH   1   2
ATOM      2  C   UNL     1      34.476 -16.162 -21.576  0.00  0.00    +0.139 C 
ATOM      3  C   UNL     1      33.503 -15.639 -20.733  0.00  0.00    +0.040 C 
ATOM      4  C   UNL     1      34.604 -15.704 -22.883  0.00  0.00    +0.040 C 
ATOM      5  C   UNL     1      32.646 -14.643 -21.202  0.00  0.00    +0.040 C 
ATOM      6  C   UNL     1      33.747 -14.708 -23.352  0.00  0.00    +0.040 C 
ATOM      7  C   UNL     1      32.768 -14.178 -22.512  0.00  0.00    +0.134 C 
BRANCH   7   8
ATOM      8  O   UNL     1      31.933 -13.205 -22.970  0.00  0.00    -0.506 OA
ATOM      9  H   UNL     1      31.032 -13.201 -22.710  0.00  0.00    +0.292 HD
ENDBRANCH   7   8
ENDBRANCH   1   2
BRANCH   1  10
ATOM     10  C   UNL     1      35.368 -18.347 -21.867  0.00  0.00    +0.232 C 
BRANCH  10  11
ATOM     11  C   UNL     1      34.819 -19.466 -21.046  0.00  0.00    +0.021 C 
ATOM     12  C   UNL     1      35.686 -20.369 -20.431  0.00  0.00    -0.001 C 
ATOM     13  C   UNL     1      33.440 -19.608 -20.894  0.00  0.00    -0.001 C 
ATOM     14  C   UNL     1      35.172 -21.415 -19.663  0.00  0.00    -0.000 C 
ATOM     15  C   UNL     1      32.927 -20.653 -20.126  0.00  0.00    -0.000 C 
ATOM     16  C   UNL     1      33.793 -21.557 -19.510  0.00  0.00    -0.000 C 
ENDBRANCH  10  11
ENDBRANCH   1  10
TORSDOF 4
ENDMDL
MODEL 5
REMARK VINA RESULT:      -8.5      1.692      6.068
REMARK  Name = 7638
REMARK  4 active torsions:
REMARK  status: ('A' for Active; 'I' for Inactive)
REMARK    1  A    between atoms: O_1  and  C_2
REMARK    2  A    between atoms: O_1  and  C_10
REMARK    3  A    between atoms: C_7  and  O_8
REMARK    4  A    between atoms: C_10  and  C_11
REMARK                            x       y       z     vdW  Elec       q    Type
REMARK                         _______ _______ _______ _____ _____    ______ ____
ROOT
ATOM      1  O   UNL     1      35.809 -18.629 -21.748  0.00  0.00    -0.471 OA
ENDROOT
BRANCH   1   2
ATOM      2  C   UNL     1      35.070 -19.538 -21.037  0.00  0.00    +0.139 C 
ATOM      3  C   UNL     1      33.684 -19.439 -21.027  0.00  0.00    +0.040 C 
ATOM      4  C   UNL     1      35.715 -20.549 -20.333  0.00  0.00    +0.040 C 
ATOM      5  C   UNL     1      32.931 -20.364 -20.303  0.00  0.00    +0.040 C 
ATOM      6  C   UNL     1      34.962 -21.474 -19.609  0.00  0.00    +0.040 C 
ATOM      7  C   UNL     1      33.570 -21.381 -19.594  0.00  0.00    +0.134 C 
BRANCH   7   8
ATOM      8  O   UNL     1      32.836 -22.284 -18.888  0.00  0.00    -0.506 OA
ATOM      9  H   UNL     1      31.927 -22.403 -19.082  0.00  0.00    +0.292 HD
ENDBRANCH   7   8
ENDBRANCH   1   2
BRANCH   1  10
ATOM     10  C   UNL     1      35.661 -18.649 -23.162  0.00  0.00    +0.232 C 
BRANCH  10  11
ATOM     11  C   UNL     1      35.021 -17.378 -23.611  0.00  0.00    +0.021 C 
ATOM     12  C   UNL     1      34.936 -16.294 -22.739  0.00  0.00    -0.001 C 
ATOM     13  C   UNL     1      34.509 -17.275 -24.905  0.00  0.00    -0.001 C 
ATOM     14  C   UNL     1      34.339 -15.105 -23.159  0.00  0.00    -0.000 C 
ATOM     15  C   UNL     1      33.912 -16.087 -25.325  0.00  0.00    -0.000 C 
ATOM     16  C   UNL     1      33.827 -15.002 -24.453  0.00  0.00    -0.000 C 
ENDBRANCH  10  11
ENDBRANCH   1  10
TORSDOF 4
ENDMDL
MODEL 6
REMARK VINA RESULT:      -8.5      1.742      6.023
REMARK  Name = 7638
REMARK  4 active torsions:
REMARK  status: ('A' for Active; 'I' for Inactive)
REMARK    1  A    between atoms: O_1  and  C_2
REMARK    2  A    between atoms: O_1  and  C_10
REMARK    3  A    between atoms: C_7  and  O_8
REMARK    4  A    between atoms: C_10  and  C_11
REMARK                            x       y       z     vdW  Elec       q    Type
REMARK                         _______ _______ _______ _____ _____    ______ ____
ROOT
ATOM      1  O   UNL     1      35.784 -18.845 -21.562  0.00  0.00    -0.471 OA
ENDROOT
BRANCH   1   2
ATOM      2  C   UNL     1      35.050 -19.753 -20.844  0.00  0.00    +0.139 C 
ATOM      3  C   UNL     1      35.701 -20.758 -20.138  0.00  0.00    +0.040 C 
ATOM      4  C   UNL     1      33.663 -19.660 -20.830  0.00  0.00    +0.040 C 
ATOM      5  C   UNL     1      34.955 -21.683 -19.408  0.00  0.00    +0.040 C 
ATOM      6  C   UNL     1      32.917 -20.585 -20.100  0.00  0.00    +0.040 C 
ATOM      7  C   UNL     1      33.562 -21.596 -19.389  0.00  0.00    +0.134 C 
BRANCH   7   8
ATOM      8  O   UNL     1      32.833 -22.498 -18.676  0.00  0.00    -0.506 OA
ATOM      9  H   UNL     1      32.232 -22.202 -18.021  0.00  0.00    +0.292 HD
ENDBRANCH   7   8
ENDBRANCH   1   2
BRANCH   1  10
ATOM     10  C   UNL     1      35.372 -17.486 -21.488  0.00  0.00    +0.232 C 
BRANCH  10  11
ATOM     11  C   UNL     1      34.903 -17.037 -22.831  0.00  0.00    +0.021 C 
ATOM     12  C   UNL     1      35.025 -17.885 -23.931  0.00  0.00    -0.001 C 
ATOM     13  C   UNL     1      34.342 -15.769 -22.986  0.00  0.00    -0.001 C 
ATOM     14  C   UNL     1      34.586 -17.464 -25.187  0.00  0.00    -0.000 C 
ATOM     15  C   UNL     1      33.903 -15.349 -24.241  0.00  0.00    -0.000 C 
ATOM     16  C   UNL     1      34.025 -16.197 -25.342  0.00  0.00    -0.000 C 
ENDBRANCH  10  11
ENDBRANCH   1  10
TORSDOF 4
ENDMDL
MODEL 7
REMARK VINA RESULT:      -8.4      4.850      8.905
REMARK  Name = 7638
REMARK  4 active torsions:
REMARK  status: ('A' for Active; 'I' for Inactive)
REMARK    1  A    between atoms: O_1  and  C_2
REMARK    2  A    between atoms: O_1  and  C_10
REMARK    3  A    between atoms: C_7  and  O_8
REMARK    4  A    between atoms: C_10  and  C_11
REMARK                            x       y       z     vdW  Elec       q    Type
REMARK                         _______ _______ _______ _____ _____    ______ ____
ROOT
ATOM      1  O   UNL     1      32.296 -22.747 -17.974  0.00  0.00    -0.471 OA
ENDROOT
BRANCH   1   2
ATOM      2  C   UNL     1      31.935 -22.996 -16.676  0.00  0.00    +0.139 C 
ATOM      3  C   UNL     1      30.598 -22.910 -16.304  0.00  0.00    +0.040 C 
ATOM      4  C   UNL     1      32.910 -23.333 -15.743  0.00  0.00    +0.040 C 
ATOM      5  C   UNL     1      30.230 -23.162 -14.983  0.00  0.00    +0.040 C 
ATOM      6  C   UNL     1      32.542 -23.586 -14.421  0.00  0.00    +0.040 C 
ATOM      7  C   UNL     1      31.203 -23.501 -14.041  0.00  0.00    +0.134 C 
BRANCH   7   8
ATOM      8  O   UNL     1      30.845 -23.749 -12.752  0.00  0.00    -0.506 OA
ATOM      9  H   UNL     1      30.482 -23.063 -12.226  0.00  0.00    +0.292 HD
ENDBRANCH   7   8
ENDBRANCH   1   2
BRANCH   1  10
ATOM     10  C   UNL     1      33.682 -22.827 -18.280  0.00  0.00    +0.232 C 
BRANCH  10  11
ATOM     11  C   UNL     1      34.045 -21.731 -19.225  0.00  0.00    +0.021 C 
ATOM     12  C   UNL     1      35.382 -21.503 -19.548  0.00  0.00    -0.001 C 
ATOM     13  C   UNL     1      33.046 -20.934 -19.786  0.00  0.00    -0.001 C 
ATOM     14  C   UNL     1      35.721 -20.478 -20.432  0.00  0.00    -0.000 C 
ATOM     15  C   UNL     1      33.385 -19.910 -20.670  0.00  0.00    -0.000 C 
ATOM     16  C   UNL     1      34.723 -19.682 -20.993  0.00  0.00    -0.000 C 
ENDBRANCH  10  11
ENDBRANCH   1  10
TORSDOF 4
ENDMDL
MODEL 8
REMARK VINA RESULT:      -8.4      4.824      8.848
REMARK  Name = 7638
REMARK  4 active torsions:
REMARK  status: ('A' for Active; 'I' for Inactive)
REMARK    1  A    between atoms: O_1  and  C_2
REMARK    2  A    between atoms: O_1  and  C_10
REMARK    3  A    between atoms: C_7  and  O_8
REMARK    4  A    between atoms: C_10  and  C_11
REMARK                            x       y       z     vdW  Elec       q    Type
REMARK                         _______ _______ _______ _____ _____    ______ ____
ROOT
ATOM      1  O   UNL     1      32.314 -22.711 -18.000  0.00  0.00    -0.471 OA
ENDROOT
BRANCH   1   2
ATOM      2  C   UNL     1      31.959 -22.974 -16.703  0.00  0.00    +0.139 C 
ATOM      3  C   UNL     1      32.934 -23.346 -15.785  0.00  0.00    +0.040 C 
ATOM      4  C   UNL     1      30.627 -22.866 -16.319  0.00  0.00    +0.040 C 
ATOM      5  C   UNL     1      32.573 -23.615 -14.464  0.00  0.00    +0.040 C 
ATOM      6  C   UNL     1      30.266 -23.135 -14.999  0.00  0.00    +0.040 C 
ATOM      7  C   UNL     1      31.238 -23.509 -14.072  0.00  0.00    +0.134 C 
BRANCH   7   8
ATOM      8  O   UNL     1      30.885 -23.770 -12.783  0.00  0.00    -0.506 OA
ATOM      9  H   UNL     1      30.448 -23.115 -12.275  0.00  0.00    +0.292 HD
ENDBRANCH   7   8
ENDBRANCH   1   2
BRANCH   1  10
ATOM     10  C   UNL     1      33.701 -22.775 -18.309  0.00  0.00    +0.232 C 
BRANCH  10  11
ATOM     11  C   UNL     1      34.046 -21.681 -19.264  0.00  0.00    +0.021 C 
ATOM     12  C   UNL     1      35.379 -21.443 -19.598  0.00  0.00    -0.001 C 
ATOM     13  C   UNL     1      33.036 -20.898 -19.823  0.00  0.00    -0.001 C 
ATOM     14  C   UNL     1      35.702 -20.421 -20.492  0.00  0.00    -0.000 C 
ATOM     15  C   UNL     1      33.359 -19.877 -20.716  0.00  0.00    -0.000 C 
ATOM     16  C   UNL     1      34.692 -19.638 -21.051  0.00  0.00    -0.000 C 
ENDBRANCH  10  11
ENDBRANCH   1  10
TORSDOF 4
ENDMDL
MODEL 9
REMARK VINA RESULT:      -8.4      3.645      6.167
REMARK  Name = 7638
REMARK  4 active torsions:
REMARK  status: ('A' for Active; 'I' for Inactive)
REMARK    1  A    between atoms: O_1  and  C_2
REMARK    2  A    between atoms: O_1  and  C_10
REMARK    3  A    between atoms: C_7  and  O_8
REMARK    4  A    between atoms: C_10  and  C_11
REMARK                            x       y       z     vdW  Elec       q    Type
REMARK                         _______ _______ _______ _____ _____    ______ ____
ROOT
ATOM      1  O   UNL     1      32.820 -22.416 -18.751  0.00  0.00    -0.471 OA
ENDROOT
BRANCH   1   2
ATOM      2  C   UNL     1      33.617 -21.544 -19.445  0.00  0.00    +0.139 C 
ATOM      3  C   UNL     1      33.036 -20.510 -20.171  0.00  0.00    +0.040 C 
ATOM      4  C   UNL     1      34.998 -21.702 -19.418  0.00  0.00    +0.040 C 
ATOM      5  C   UNL     1      33.847 -19.622 -20.879  0.00  0.00    +0.040 C 
ATOM      6  C   UNL     1      35.809 -20.815 -20.126  0.00  0.00    +0.040 C 
ATOM      7  C   UNL     1      35.233 -19.775 -20.856  0.00  0.00    +0.134 C 
BRANCH   7   8
ATOM      8  O   UNL     1      36.025 -18.909 -21.546  0.00  0.00    -0.506 OA
ATOM      9  H   UNL     1      36.000 -18.896 -22.482  0.00  0.00    +0.292 HD
ENDBRANCH   7   8
ENDBRANCH   1   2
BRANCH   1  10
ATOM     10  C   UNL     1      33.445 -23.178 -17.727  0.00  0.00    +0.232 C 
BRANCH  10  11
ATOM     11  C   UNL     1      32.579 -23.182 -16.512  0.00  0.00    +0.021 C 
ATOM     12  C   UNL     1      33.137 -23.432 -15.259  0.00  0.00    -0.001 C 
ATOM     13  C   UNL     1      31.212 -22.933 -16.630  0.00  0.00    -0.001 C 
ATOM     14  C   UNL     1      32.327 -23.434 -14.123  0.00  0.00    -0.000 C 
ATOM     15  C   UNL     1      30.402 -22.935 -15.495  0.00  0.00    -0.000 C 
ATOM     16  C   UNL     1      30.960 -23.185 -14.241  0.00  0.00    -0.000 C 
ENDBRANCH  10  11
ENDBRANCH   1  10
TORSDOF 4
ENDMDL
