MODEL 1
REMARK VINA RESULT:      -9.4      0.000      0.000
REMARK  Name = 2159
REMARK  8 active torsions:
REMARK  status: ('A' for Active; 'I' for Inactive)
REMARK    1  A    between atoms: C_1  and  C_9
REMARK    2  A    between atoms: C_2  and  S_20
REMARK    3  A    between atoms: C_4  and  O_28
REMARK    4  A    between atoms: C_5  and  N_25
REMARK    5  A    between atoms: N_8  and  C_11
REMARK    6  A    between atoms: C_11  and  C_13
REMARK    7  A    between atoms: N_12  and  C_18
REMARK    8  A    between atoms: S_20  and  C_23
REMARK                            x       y       z     vdW  Elec       q    Type
REMARK                         _______ _______ _______ _____ _____    ______ ____
ROOT
ATOM      1  C   UNL     1      33.618 -23.081 -17.348  0.00  0.00    +0.089 C 
ATOM      2  C   UNL     1      31.626 -23.159 -16.028  0.00  0.00    +0.119 C 
ATOM      3  C   UNL     1      32.244 -22.972 -17.265  0.00  0.00    +0.027 C 
ATOM      4  C   UNL     1      34.400 -23.368 -16.247  0.00  0.00    +0.144 C 
ATOM      5  C   UNL     1      32.396 -23.450 -14.901  0.00  0.00    +0.062 C 
ATOM      6  C   UNL     1      33.783 -23.554 -15.012  0.00  0.00    +0.052 C 
ENDROOT
BRANCH   1   9
ATOM      7  O   UNL     1      34.091 -23.717 -19.556  0.00  0.00    -0.270 OA
ATOM      8  N   UNL     1      34.993 -21.706 -18.831  0.00  0.00    -0.303 N 
ATOM      9  C   UNL     1      34.256 -22.877 -18.675  0.00  0.00    +0.249 C 
ATOM     10  H   UNL     1      35.070 -21.091 -18.066  0.00  0.00    +0.150 HD
BRANCH   8  11
ATOM     11  C   UNL     1      35.646 -21.356 -20.058  0.00  0.00    +0.069 C 
BRANCH  11  13
ATOM     12  N   UNL     1      35.133 -19.003 -20.737  0.00  0.00    +0.389 N 
ATOM     13  C   UNL     1      34.781 -20.422 -20.894  0.00  0.00    -0.038 C 
ATOM     14  C   UNL     1      33.317 -20.456 -20.452  0.00  0.00    -0.021 C 
ATOM     15  C   UNL     1      32.792 -19.044 -20.691  0.00  0.00    -0.025 C 
ATOM     16  C   UNL     1      33.973 -18.268 -21.248  0.00  0.00    -0.077 C 
ATOM     17  H   UNL     1      35.333 -18.788 -19.760  0.00  0.00    -0.080 HD
BRANCH  12  18
ATOM     18  C   UNL     1      36.355 -18.630 -21.439  0.00  0.00    -0.077 C 
ATOM     19  C   UNL     1      36.066 -18.198 -22.862  0.00  0.00    -0.025 C 
ENDBRANCH  12  18
ENDBRANCH  11  13
ENDBRANCH   8  11
ENDBRANCH   1   9
BRANCH   2  20
ATOM     20  S   UNL     1      29.884 -23.019 -15.930  0.00  0.00    +0.010 S 
ATOM     21  O   UNL     1      29.555 -22.486 -14.616  0.00  0.00    -0.169 OA
ATOM     22  O   UNL     1      29.402 -22.348 -17.127  0.00  0.00    -0.169 OA
BRANCH  20  23
ATOM     23  C   UNL     1      29.306 -24.698 -16.004  0.00  0.00    +0.156 C 
ATOM     24  C   UNL     1      28.950 -25.222 -14.631  0.00  0.00    +0.028 C 
ENDBRANCH  20  23
ENDBRANCH   2  20
BRANCH   5  25
ATOM     25  N   UNL     1      31.795 -23.642 -13.638  0.00  0.00    -0.356 N 
ATOM     26  H   UNL     1      31.774 -22.905 -12.985  0.00  0.00    +0.142 HD
ATOM     27  H   UNL     1      31.396 -24.513 -13.410  0.00  0.00    +0.142 HD
ENDBRANCH   5  25
BRANCH   4  28
ATOM     28  O   UNL     1      35.756 -23.475 -16.335  0.00  0.00    -0.471 OA
ATOM     29  C   UNL     1      36.528 -22.694 -15.426  0.00  0.00    +0.252 C 
ENDBRANCH   4  28
TORSDOF 8
ENDMDL
MODEL 2
REMARK VINA RESULT:      -9.3      2.835      4.842
REMARK  Name = 2159
REMARK  8 active torsions:
REMARK  status: ('A' for Active; 'I' for Inactive)
REMARK    1  A    between atoms: C_1  and  C_9
REMARK    2  A    between atoms: C_2  and  S_20
REMARK    3  A    between atoms: C_4  and  O_28
REMARK    4  A    between atoms: C_5  and  N_25
REMARK    5  A    between atoms: N_8  and  C_11
REMARK    6  A    between atoms: C_11  and  C_13
REMARK    7  A    between atoms: N_12  and  C_18
REMARK    8  A    between atoms: S_20  and  C_23
REMARK                            x       y       z     vdW  Elec       q    Type
REMARK                         _______ _______ _______ _____ _____    ______ ____
ROOT
ATOM      1  C   UNL     1      36.137 -22.547 -15.885  0.00  0.00    +0.089 C 
ATOM      2  C   UNL     1      36.465 -23.546 -13.738  0.00  0.00    +0.119 C 
ATOM      3  C   UNL     1      36.951 -22.773 -14.793  0.00  0.00    +0.027 C 
ATOM      4  C   UNL     1      34.859 -23.062 -15.967  0.00  0.00    +0.144 C 
ATOM      5  C   UNL     1      35.176 -24.077 -13.798  0.00  0.00    +0.062 C 
ATOM      6  C   UNL     1      34.373 -23.835 -14.914  0.00  0.00    +0.052 C 
ENDROOT
BRANCH   1   9
ATOM      7  O   UNL     1      37.570 -20.914 -16.769  0.00  0.00    -0.270 OA
ATOM      8  N   UNL     1      36.122 -21.949 -18.256  0.00  0.00    -0.303 N 
ATOM      9  C   UNL     1      36.674 -21.722 -16.998  0.00  0.00    +0.249 C 
ATOM     10  H   UNL     1      35.405 -22.619 -18.343  0.00  0.00    +0.150 HD
BRANCH   8  11
ATOM     11  C   UNL     1      36.551 -21.251 -19.431  0.00  0.00    +0.069 C 
BRANCH  11  13
ATOM     12  N   UNL     1      35.158 -19.463 -20.490  0.00  0.00    +0.389 N 
ATOM     13  C   UNL     1      35.371 -20.909 -20.331  0.00  0.00    -0.038 C 
ATOM     14  C   UNL     1      34.044 -21.379 -19.730  0.00  0.00    -0.021 C 
ATOM     15  C   UNL     1      33.013 -20.349 -20.176  0.00  0.00    -0.025 C 
ATOM     16  C   UNL     1      33.791 -19.337 -21.001  0.00  0.00    -0.077 C 
ATOM     17  H   UNL     1      35.290 -18.980 -19.602  0.00  0.00    -0.080 HD
BRANCH  12  18
ATOM     18  C   UNL     1      36.123 -18.832 -21.382  0.00  0.00    -0.077 C 
ATOM     19  C   UNL     1      35.501 -18.497 -22.722  0.00  0.00    -0.025 C 
ENDBRANCH  12  18
ENDBRANCH  11  13
ENDBRANCH   8  11
ENDBRANCH   1   9
BRANCH   2  20
ATOM     20  S   UNL     1      37.503 -23.829 -12.357  0.00  0.00    +0.010 S 
ATOM     21  O   UNL     1      38.086 -22.552 -11.972  0.00  0.00    -0.169 OA
ATOM     22  O   UNL     1      36.772 -24.618 -11.378  0.00  0.00    -0.169 OA
BRANCH  20  23
ATOM     23  C   UNL     1      38.805 -24.858 -12.992  0.00  0.00    +0.156 C 
ATOM     24  C   UNL     1      38.254 -26.038 -13.760  0.00  0.00    +0.028 C 
ENDBRANCH  20  23
ENDBRANCH   2  20
BRANCH   5  25
ATOM     25  N   UNL     1      34.662 -24.863 -12.744  0.00  0.00    -0.356 N 
ATOM     26  H   UNL     1      33.797 -24.631 -12.333  0.00  0.00    +0.142 HD
ATOM     27  H   UNL     1      35.167 -25.643 -12.420  0.00  0.00    +0.142 HD
ENDBRANCH   5  25
BRANCH   4  28
ATOM     28  O   UNL     1      34.059 -22.835 -17.047  0.00  0.00    -0.471 OA
ATOM     29  C   UNL     1      32.691 -23.220 -16.934  0.00  0.00    +0.252 C 
ENDBRANCH   4  28
TORSDOF 8
ENDMDL
MODEL 3
REMARK VINA RESULT:      -9.1      0.554      1.605
REMARK  Name = 2159
REMARK  8 active torsions:
REMARK  status: ('A' for Active; 'I' for Inactive)
REMARK    1  A    between atoms: C_1  and  C_9
REMARK    2  A    between atoms: C_2  and  S_20
REMARK    3  A    between atoms: C_4  and  O_28
REMARK    4  A    between atoms: C_5  and  N_25
REMARK    5  A    between atoms: N_8  and  C_11
REMARK    6  A    between atoms: C_11  and  C_13
REMARK    7  A    between atoms: N_12  and  C_18
REMARK    8  A    between atoms: S_20  and  C_23
REMARK                            x       y       z     vdW  Elec       q    Type
REMARK                         _______ _______ _______ _____ _____    ______ ____
ROOT
ATOM      1  C   UNL     1      33.741 -23.021 -17.369  0.00  0.00    +0.089 C 
ATOM      2  C   UNL     1      31.754 -23.156 -16.046  0.00  0.00    +0.119 C 
ATOM      3  C   UNL     1      32.365 -22.943 -17.282  0.00  0.00    +0.027 C 
ATOM      4  C   UNL     1      34.531 -23.303 -16.273  0.00  0.00    +0.144 C 
ATOM      5  C   UNL     1      32.532 -23.442 -14.923  0.00  0.00    +0.062 C 
ATOM      6  C   UNL     1      33.921 -23.515 -15.038  0.00  0.00    +0.052 C 
ENDROOT
BRANCH   1   9
ATOM      7  O   UNL     1      34.046 -23.497 -19.646  0.00  0.00    -0.270 OA
ATOM      8  N   UNL     1      35.291 -21.747 -18.767  0.00  0.00    -0.303 N 
ATOM      9  C   UNL     1      34.371 -22.791 -18.695  0.00  0.00    +0.249 C 
ATOM     10  H   UNL     1      35.489 -21.236 -17.949  0.00  0.00    +0.150 HD
BRANCH   8  11
ATOM     11  C   UNL     1      35.963 -21.386 -19.979  0.00  0.00    +0.069 C 
BRANCH  11  13
ATOM     12  N   UNL     1      34.593 -19.923 -21.477  0.00  0.00    +0.389 N 
ATOM     13  C   UNL     1      35.602 -19.970 -20.408  0.00  0.00    -0.038 C 
ATOM     14  C   UNL     1      36.793 -19.246 -21.038  0.00  0.00    -0.021 C 
ATOM     15  C   UNL     1      36.191 -18.327 -22.096  0.00  0.00    -0.025 C 
ATOM     16  C   UNL     1      34.693 -18.570 -22.030  0.00  0.00    -0.077 C 
ATOM     17  H   UNL     1      34.773 -20.645 -22.174  0.00  0.00    -0.080 HD
BRANCH  12  18
ATOM     18  C   UNL     1      33.243 -20.211 -21.009  0.00  0.00    -0.077 C 
ATOM     19  C   UNL     1      32.503 -18.944 -20.637  0.00  0.00    -0.025 C 
ENDBRANCH  12  18
ENDBRANCH  11  13
ENDBRANCH   8  11
ENDBRANCH   1   9
BRANCH   2  20
ATOM     20  S   UNL     1      30.009 -23.055 -15.944  0.00  0.00    +0.010 S 
ATOM     21  O   UNL     1      29.673 -22.513 -14.635  0.00  0.00    -0.169 OA
ATOM     22  O   UNL     1      29.508 -22.411 -17.147  0.00  0.00    -0.169 OA
BRANCH  20  23
ATOM     23  C   UNL     1      29.470 -24.747 -15.993  0.00  0.00    +0.156 C 
ATOM     24  C   UNL     1      28.988 -25.215 -14.638  0.00  0.00    +0.028 C 
ENDBRANCH  20  23
ENDBRANCH   2  20
BRANCH   5  25
ATOM     25  N   UNL     1      31.938 -23.660 -13.661  0.00  0.00    -0.356 N 
ATOM     26  H   UNL     1      31.101 -23.197 -13.424  0.00  0.00    +0.142 HD
ATOM     27  H   UNL     1      32.359 -24.275 -13.019  0.00  0.00    +0.142 HD
ENDBRANCH   5  25
BRANCH   4  28
ATOM     28  O   UNL     1      35.889 -23.380 -16.365  0.00  0.00    -0.471 OA
ATOM     29  C   UNL     1      36.591 -23.850 -15.216  0.00  0.00    +0.252 C 
ENDBRANCH   4  28
TORSDOF 8
ENDMDL
MODEL 4
REMARK VINA RESULT:      -9.0      7.234     10.912
REMARK  Name = 2159
REMARK  8 active torsions:
REMARK  status: ('A' for Active; 'I' for Inactive)
REMARK    1  A    between atoms: C_1  and  C_9
REMARK    2  A    between atoms: C_2  and  S_20
REMARK    3  A    between atoms: C_4  and  O_28
REMARK    4  A    between atoms: C_5  and  N_25
REMARK    5  A    between atoms: N_8  and  C_11
REMARK    6  A    between atoms: C_11  and  C_13
REMARK    7  A    between atoms: N_12  and  C_18
REMARK    8  A    between atoms: S_20  and  C_23
REMARK                            x       y       z     vdW  Elec       q    Type
REMARK                         _______ _______ _______ _____ _____    ______ ____
ROOT
ATOM      1  C   UNL     1      33.322 -14.541 -23.129  0.00  0.00    +0.089 C 
ATOM      2  C   UNL     1      34.547 -16.557 -22.740  0.00  0.00    +0.119 C 
ATOM      3  C   UNL     1      33.917 -15.416 -22.242  0.00  0.00    +0.027 C 
ATOM      4  C   UNL     1      33.332 -14.757 -24.492  0.00  0.00    +0.144 C 
ATOM      5  C   UNL     1      34.570 -16.797 -24.115  0.00  0.00    +0.062 C 
ATOM      6  C   UNL     1      33.962 -15.897 -24.990  0.00  0.00    +0.052 C 
ENDROOT
BRANCH   1   9
ATOM      7  O   UNL     1      31.933 -13.441 -21.592  0.00  0.00    -0.270 OA
ATOM      8  N   UNL     1      32.932 -12.129 -23.223  0.00  0.00    -0.303 N 
ATOM      9  C   UNL     1      32.658 -13.332 -22.577  0.00  0.00    +0.249 C 
ATOM     10  H   UNL     1      33.526 -12.139 -24.008  0.00  0.00    +0.150 HD
BRANCH   8  11
ATOM     11  C   UNL     1      32.387 -10.875 -22.795  0.00  0.00    +0.069 C 
BRANCH  11  13
ATOM     12  N   UNL     1      34.415  -9.952 -23.934  0.00  0.00    +0.389 N 
ATOM     13  C   UNL     1      33.015  -9.714 -23.555  0.00  0.00    -0.038 C 
ATOM     14  C   UNL     1      33.111  -8.455 -22.691  0.00  0.00    -0.021 C 
ATOM     15  C   UNL     1      34.378  -7.744 -23.154  0.00  0.00    -0.025 C 
ATOM     16  C   UNL     1      34.951  -8.626 -24.251  0.00  0.00    -0.077 C 
ATOM     17  H   UNL     1      34.921 -10.408 -23.175  0.00  0.00    -0.080 HD
BRANCH  12  18
ATOM     18  C   UNL     1      34.561 -10.870 -25.057  0.00  0.00    -0.077 C 
ATOM     19  C   UNL     1      35.561 -10.352 -26.070  0.00  0.00    -0.025 C 
ENDBRANCH  12  18
ENDBRANCH  11  13
ENDBRANCH   8  11
ENDBRANCH   1   9
BRANCH   2  20
ATOM     20  S   UNL     1      35.298 -17.663 -21.609  0.00  0.00    +0.010 S 
ATOM     21  O   UNL     1      36.489 -18.206 -22.246  0.00  0.00    -0.169 OA
ATOM     22  O   UNL     1      35.401 -17.008 -20.315  0.00  0.00    -0.169 OA
BRANCH  20  23
ATOM     23  C   UNL     1      34.118 -18.980 -21.437  0.00  0.00    +0.156 C 
ATOM     24  C   UNL     1      34.668 -20.111 -20.598  0.00  0.00    +0.028 C 
ENDBRANCH  20  23
ENDBRANCH   2  20
BRANCH   5  25
ATOM     25  N   UNL     1      35.201 -17.944 -24.643  0.00  0.00    -0.356 N 
ATOM     26  H   UNL     1      35.287 -18.053 -25.619  0.00  0.00    +0.142 HD
ATOM     27  H   UNL     1      35.556 -18.634 -24.038  0.00  0.00    +0.142 HD
ENDBRANCH   5  25
BRANCH   4  28
ATOM     28  O   UNL     1      32.743 -13.890 -25.363  0.00  0.00    -0.471 OA
ATOM     29  C   UNL     1      33.122 -13.991 -26.734  0.00  0.00    +0.252 C 
ENDBRANCH   4  28
TORSDOF 8
ENDMDL
MODEL 5
REMARK VINA RESULT:      -8.9      2.026      2.569
REMARK  Name = 2159
REMARK  8 active torsions:
REMARK  status: ('A' for Active; 'I' for Inactive)
REMARK    1  A    between atoms: C_1  and  C_9
REMARK    2  A    between atoms: C_2  and  S_20
REMARK    3  A    between atoms: C_4  and  O_28
REMARK    4  A    between atoms: C_5  and  N_25
REMARK    5  A    between atoms: N_8  and  C_11
REMARK    6  A    between atoms: C_11  and  C_13
REMARK    7  A    between atoms: N_12  and  C_18
REMARK    8  A    between atoms: S_20  and  C_23
REMARK                            x       y       z     vdW  Elec       q    Type
REMARK                         _______ _______ _______ _____ _____    ______ ____
ROOT
ATOM      1  C   UNL     1      35.950 -22.716 -15.896  0.00  0.00    +0.089 C 
ATOM      2  C   UNL     1      33.982 -23.509 -14.795  0.00  0.00    +0.119 C 
ATOM      3  C   UNL     1      34.573 -22.760 -15.812  0.00  0.00    +0.027 C 
ATOM      4  C   UNL     1      36.761 -23.390 -15.005  0.00  0.00    +0.144 C 
ATOM      5  C   UNL     1      34.781 -24.199 -13.882  0.00  0.00    +0.062 C 
ATOM      6  C   UNL     1      36.171 -24.138 -13.988  0.00  0.00    +0.052 C 
ENDROOT
BRANCH   1   9
ATOM      7  O   UNL     1      37.550 -21.227 -16.747  0.00  0.00    -0.270 OA
ATOM      8  N   UNL     1      35.958 -22.017 -18.239  0.00  0.00    -0.303 N 
ATOM      9  C   UNL     1      36.559 -21.912 -16.987  0.00  0.00    +0.249 C 
ATOM     10  H   UNL     1      35.165 -22.592 -18.335  0.00  0.00    +0.150 HD
BRANCH   8  11
ATOM     11  C   UNL     1      36.444 -21.323 -19.394  0.00  0.00    +0.069 C 
BRANCH  11  13
ATOM     12  N   UNL     1      35.149 -19.477 -20.478  0.00  0.00    +0.389 N 
ATOM     13  C   UNL     1      35.301 -20.930 -20.321  0.00  0.00    -0.038 C 
ATOM     14  C   UNL     1      33.942 -21.351 -19.757  0.00  0.00    -0.021 C 
ATOM     15  C   UNL     1      32.964 -20.279 -20.224  0.00  0.00    -0.025 C 
ATOM     16  C   UNL     1      33.801 -19.294 -21.023  0.00  0.00    -0.077 C 
ATOM     17  H   UNL     1      35.277 -19.003 -19.584  0.00  0.00    -0.080 HD
BRANCH  12  18
ATOM     18  C   UNL     1      36.160 -18.880 -21.342  0.00  0.00    -0.077 C 
ATOM     19  C   UNL     1      35.584 -18.505 -22.692  0.00  0.00    -0.025 C 
ENDBRANCH  12  18
ENDBRANCH  11  13
ENDBRANCH   8  11
ENDBRANCH   1   9
BRANCH   2  20
ATOM     20  S   UNL     1      32.234 -23.559 -14.695  0.00  0.00    +0.010 S 
ATOM     21  O   UNL     1      31.849 -24.921 -14.354  0.00  0.00    -0.169 OA
ATOM     22  O   UNL     1      31.782 -22.449 -13.873  0.00  0.00    -0.169 OA
BRANCH  20  23
ATOM     23  C   UNL     1      31.693 -23.234 -16.356  0.00  0.00    +0.156 C 
ATOM     24  C   UNL     1      30.212 -22.930 -16.407  0.00  0.00    +0.028 C 
ENDBRANCH  20  23
ENDBRANCH   2  20
BRANCH   5  25
ATOM     25  N   UNL     1      34.207 -24.963 -12.843  0.00  0.00    -0.356 N 
ATOM     26  H   UNL     1      34.599 -24.939 -11.939  0.00  0.00    +0.142 HD
ATOM     27  H   UNL     1      33.416 -25.521 -13.021  0.00  0.00    +0.142 HD
ENDBRANCH   5  25
BRANCH   4  28
ATOM     28  O   UNL     1      38.121 -23.344 -15.092  0.00  0.00    -0.471 OA
ATOM     29  C   UNL     1      38.826 -24.564 -14.874  0.00  0.00    +0.252 C 
ENDBRANCH   4  28
TORSDOF 8
ENDMDL
MODEL 6
REMARK VINA RESULT:      -8.9      7.637     11.247
REMARK  Name = 2159
REMARK  8 active torsions:
REMARK  status: ('A' for Active; 'I' for Inactive)
REMARK    1  A    between atoms: C_1  and  C_9
REMARK    2  A    between atoms: C_2  and  S_20
REMARK    3  A    between atoms: C_4  and  O_28
REMARK    4  A    between atoms: C_5  and  N_25
REMARK    5  A    between atoms: N_8  and  C_11
REMARK    6  A    between atoms: C_11  and  C_13
REMARK    7  A    between atoms: N_12  and  C_18
REMARK    8  A    between atoms: S_20  and  C_23
REMARK                            x       y       z     vdW  Elec       q    Type
REMARK                         _______ _______ _______ _____ _____    ______ ____
ROOT
ATOM      1  C   UNL     1      33.212 -14.338 -23.142  0.00  0.00    +0.089 C 
ATOM      2  C   UNL     1      34.442 -16.337 -22.690  0.00  0.00    +0.119 C 
ATOM      3  C   UNL     1      33.789 -15.195 -22.227  0.00  0.00    +0.027 C 
ATOM      4  C   UNL     1      33.259 -14.575 -24.501  0.00  0.00    +0.144 C 
ATOM      5  C   UNL     1      34.504 -16.598 -24.060  0.00  0.00    +0.062 C 
ATOM      6  C   UNL     1      33.912 -15.716 -24.965  0.00  0.00    +0.052 C 
ENDROOT
BRANCH   1   9
ATOM      7  O   UNL     1      31.829 -13.214 -21.617  0.00  0.00    -0.270 OA
ATOM      8  N   UNL     1      32.739 -11.946 -23.334  0.00  0.00    -0.303 N 
ATOM      9  C   UNL     1      32.522 -13.127 -22.627  0.00  0.00    +0.249 C 
ATOM     10  H   UNL     1      33.311 -11.974 -24.134  0.00  0.00    +0.150 HD
BRANCH   8  11
ATOM     11  C   UNL     1      32.165 -10.692 -22.947  0.00  0.00    +0.069 C 
BRANCH  11  13
ATOM     12  N   UNL     1      32.714  -8.251 -22.994  0.00  0.00    +0.389 N 
ATOM     13  C   UNL     1      33.233  -9.615 -22.815  0.00  0.00    -0.038 C 
ATOM     14  C   UNL     1      34.286  -9.721 -23.920  0.00  0.00    -0.021 C 
ATOM     15  C   UNL     1      34.720  -8.286 -24.200  0.00  0.00    -0.025 C 
ATOM     16  C   UNL     1      33.897  -7.428 -23.255  0.00  0.00    -0.077 C 
ATOM     17  H   UNL     1      32.039  -8.221 -23.758  0.00  0.00    -0.080 HD
BRANCH  12  18
ATOM     18  C   UNL     1      31.966  -7.763 -21.842  0.00  0.00    -0.077 C 
ATOM     19  C   UNL     1      32.802  -7.801 -20.580  0.00  0.00    -0.025 C 
ENDBRANCH  12  18
ENDBRANCH  11  13
ENDBRANCH   8  11
ENDBRANCH   1   9
BRANCH   2  20
ATOM     20  S   UNL     1      35.173 -17.419 -21.524  0.00  0.00    +0.010 S 
ATOM     21  O   UNL     1      36.348 -18.012 -22.145  0.00  0.00    -0.169 OA
ATOM     22  O   UNL     1      35.297 -16.721 -20.254  0.00  0.00    -0.169 OA
BRANCH  20  23
ATOM     23  C   UNL     1      33.962 -18.701 -21.299  0.00  0.00    +0.156 C 
ATOM     24  C   UNL     1      34.583 -19.954 -20.724  0.00  0.00    +0.028 C 
ENDBRANCH  20  23
ENDBRANCH   2  20
BRANCH   5  25
ATOM     25  N   UNL     1      35.159 -17.747 -24.555  0.00  0.00    -0.356 N 
ATOM     26  H   UNL     1      35.886 -17.654 -25.213  0.00  0.00    +0.142 HD
ATOM     27  H   UNL     1      34.889 -18.640 -24.241  0.00  0.00    +0.142 HD
ENDBRANCH   5  25
BRANCH   4  28
ATOM     28  O   UNL     1      32.686 -13.726 -25.400  0.00  0.00    -0.471 OA
ATOM     29  C   UNL     1      33.158 -13.791 -26.745  0.00  0.00    +0.252 C 
ENDBRANCH   4  28
TORSDOF 8
ENDMDL
MODEL 7
REMARK VINA RESULT:      -8.9      8.025     11.675
REMARK  Name = 2159
REMARK  8 active torsions:
REMARK  status: ('A' for Active; 'I' for Inactive)
REMARK    1  A    between atoms: C_1  and  C_9
REMARK    2  A    between atoms: C_2  and  S_20
REMARK    3  A    between atoms: C_4  and  O_28
REMARK    4  A    between atoms: C_5  and  N_25
REMARK    5  A    between atoms: N_8  and  C_11
REMARK    6  A    between atoms: C_11  and  C_13
REMARK    7  A    between atoms: N_12  and  C_18
REMARK    8  A    between atoms: S_20  and  C_23
REMARK                            x       y       z     vdW  Elec       q    Type
REMARK                         _______ _______ _______ _____ _____    ______ ____
ROOT
ATOM      1  C   UNL     1      32.855 -12.930 -23.020  0.00  0.00    +0.089 C 
ATOM      2  C   UNL     1      32.432 -10.649 -22.443  0.00  0.00    +0.119 C 
ATOM      3  C   UNL     1      32.974 -11.588 -23.321  0.00  0.00    +0.027 C 
ATOM      4  C   UNL     1      32.218 -13.373 -21.878  0.00  0.00    +0.144 C 
ATOM      5  C   UNL     1      31.784 -11.072 -21.281  0.00  0.00    +0.062 C 
ATOM      6  C   UNL     1      31.678 -12.435 -21.000  0.00  0.00    +0.052 C 
ENDROOT
BRANCH   1   9
ATOM      7  O   UNL     1      33.070 -13.911 -25.140  0.00  0.00    -0.270 OA
ATOM      8  N   UNL     1      34.406 -14.771 -23.450  0.00  0.00    -0.303 N 
ATOM      9  C   UNL     1      33.439 -13.913 -23.969  0.00  0.00    +0.249 C 
ATOM     10  H   UNL     1      34.638 -14.699 -22.496  0.00  0.00    +0.150 HD
BRANCH   8  11
ATOM     11  C   UNL     1      35.079 -15.755 -24.244  0.00  0.00    +0.069 C 
BRANCH  11  13
ATOM     12  N   UNL     1      35.542 -18.010 -23.263  0.00  0.00    +0.389 N 
ATOM     13  C   UNL     1      34.559 -17.155 -23.943  0.00  0.00    -0.038 C 
ATOM     14  C   UNL     1      34.261 -17.938 -25.223  0.00  0.00    -0.021 C 
ATOM     15  C   UNL     1      34.576 -19.392 -24.888  0.00  0.00    -0.025 C 
ATOM     16  C   UNL     1      35.043 -19.375 -23.442  0.00  0.00    -0.077 C 
ATOM     17  H   UNL     1      36.472 -17.877 -23.662  0.00  0.00    -0.080 HD
BRANCH  12  18
ATOM     18  C   UNL     1      35.713 -17.684 -21.852  0.00  0.00    -0.077 C 
ATOM     19  C   UNL     1      36.220 -18.874 -21.066  0.00  0.00    -0.025 C 
ENDBRANCH  12  18
ENDBRANCH  11  13
ENDBRANCH   8  11
ENDBRANCH   1   9
BRANCH   2  20
ATOM     20  S   UNL     1      32.587  -8.949 -22.831  0.00  0.00    +0.010 S 
ATOM     21  O   UNL     1      31.454  -8.580 -23.666  0.00  0.00    -0.169 OA
ATOM     22  O   UNL     1      32.856  -8.213 -21.605  0.00  0.00    -0.169 OA
BRANCH  20  23
ATOM     23  C   UNL     1      34.056  -8.860 -23.826  0.00  0.00    +0.156 C 
ATOM     24  C   UNL     1      34.834  -7.592 -23.554  0.00  0.00    +0.028 C 
ENDBRANCH  20  23
ENDBRANCH   2  20
BRANCH   5  25
ATOM     25  N   UNL     1      31.229 -10.142 -20.376  0.00  0.00    -0.356 N 
ATOM     26  H   UNL     1      31.810  -9.674 -19.732  0.00  0.00    +0.142 HD
ATOM     27  H   UNL     1      30.261  -9.961 -20.388  0.00  0.00    +0.142 HD
ENDBRANCH   5  25
BRANCH   4  28
ATOM     28  O   UNL     1      32.103 -14.699 -21.586  0.00  0.00    -0.471 OA
ATOM     29  C   UNL     1      32.711 -15.152 -20.378  0.00  0.00    +0.252 C 
ENDBRANCH   4  28
TORSDOF 8
ENDMDL
MODEL 8
REMARK VINA RESULT:      -8.8      1.368      1.962
REMARK  Name = 2159
REMARK  8 active torsions:
REMARK  status: ('A' for Active; 'I' for Inactive)
REMARK    1  A    between atoms: C_1  and  C_9
REMARK    2  A    between atoms: C_2  and  S_20
REMARK    3  A    between atoms: C_4  and  O_28
REMARK    4  A    between atoms: C_5  and  N_25
REMARK    5  A    between atoms: N_8  and  C_11
REMARK    6  A    between atoms: C_11  and  C_13
REMARK    7  A    between atoms: N_12  and  C_18
REMARK    8  A    between atoms: S_20  and  C_23
REMARK                            x       y       z     vdW  Elec       q    Type
REMARK                         _______ _______ _______ _____ _____    ______ ____
ROOT
ATOM      1  C   UNL     1      33.656 -22.901 -17.500  0.00  0.00    +0.089 C 
ATOM      2  C   UNL     1      32.249 -23.507 -15.664  0.00  0.00    +0.119 C 
ATOM      3  C   UNL     1      32.397 -23.197 -17.017  0.00  0.00    +0.027 C 
ATOM      4  C   UNL     1      34.773 -22.901 -16.688  0.00  0.00    +0.144 C 
ATOM      5  C   UNL     1      33.364 -23.513 -14.824  0.00  0.00    +0.062 C 
ATOM      6  C   UNL     1      34.625 -23.210 -15.337  0.00  0.00    +0.052 C 
ENDROOT
BRANCH   1   9
ATOM      7  O   UNL     1      34.017 -23.475 -19.745  0.00  0.00    -0.270 OA
ATOM      8  N   UNL     1      33.624 -21.234 -19.289  0.00  0.00    -0.303 N 
ATOM      9  C   UNL     1      33.791 -22.573 -18.943  0.00  0.00    +0.249 C 
ATOM     10  H   UNL     1      33.446 -20.581 -18.574  0.00  0.00    +0.150 HD
BRANCH   8  11
ATOM     11  C   UNL     1      33.699 -20.766 -20.641  0.00  0.00    +0.069 C 
BRANCH  11  13
ATOM     12  N   UNL     1      35.195 -19.473 -22.174  0.00  0.00    +0.389 N 
ATOM     13  C   UNL     1      34.751 -19.674 -20.787  0.00  0.00    -0.038 C 
ATOM     14  C   UNL     1      36.051 -20.038 -20.067  0.00  0.00    -0.021 C 
ATOM     15  C   UNL     1      37.162 -19.415 -20.905  0.00  0.00    -0.025 C 
ATOM     16  C   UNL     1      36.454 -18.732 -22.063  0.00  0.00    -0.077 C 
ATOM     17  H   UNL     1      35.308 -20.368 -22.649  0.00  0.00    -0.080 HD
BRANCH  12  18
ATOM     18  C   UNL     1      34.225 -18.758 -22.993  0.00  0.00    -0.077 C 
ATOM     19  C   UNL     1      34.547 -18.879 -24.467  0.00  0.00    -0.025 C 
ENDBRANCH  12  18
ENDBRANCH  11  13
ENDBRANCH   8  11
ENDBRANCH   1   9
BRANCH   2  20
ATOM     20  S   UNL     1      30.650 -23.881 -15.058  0.00  0.00    +0.010 S 
ATOM     21  O   UNL     1      30.552 -25.328 -14.930  0.00  0.00    -0.169 OA
ATOM     22  O   UNL     1      30.374 -23.030 -13.912  0.00  0.00    -0.169 OA
BRANCH  20  23
ATOM     23  C   UNL     1      29.557 -23.369 -16.363  0.00  0.00    +0.156 C 
ATOM     24  C   UNL     1      28.178 -23.045 -15.836  0.00  0.00    +0.028 C 
ENDBRANCH  20  23
ENDBRANCH   2  20
BRANCH   5  25
ATOM     25  N   UNL     1      33.240 -23.823 -13.452  0.00  0.00    -0.356 N 
ATOM     26  H   UNL     1      33.994 -24.235 -12.970  0.00  0.00    +0.142 HD
ATOM     27  H   UNL     1      32.400 -23.627 -12.977  0.00  0.00    +0.142 HD
ENDBRANCH   5  25
BRANCH   4  28
ATOM     28  O   UNL     1      36.013 -22.609 -17.171  0.00  0.00    -0.471 OA
ATOM     29  C   UNL     1      37.069 -22.492 -16.219  0.00  0.00    +0.252 C 
ENDBRANCH   4  28
TORSDOF 8
ENDMDL
MODEL 9
REMARK VINA RESULT:      -8.6      2.957      4.593
REMARK  Name = 2159
REMARK  8 active torsions:
REMARK  status: ('A' for Active; 'I' for Inactive)
REMARK    1  A    between atoms: C_1  and  C_9
REMARK    2  A    between atoms: C_2  and  S_20
REMARK    3  A    between atoms: C_4  and  O_28
REMARK    4  A    between atoms: C_5  and  N_25
REMARK    5  A    between atoms: N_8  and  C_11
REMARK    6  A    between atoms: C_11  and  C_13
REMARK    7  A    between atoms: N_12  and  C_18
REMARK    8  A    between atoms: S_20  and  C_23
REMARK                            x       y       z     vdW  Elec       q    Type
REMARK                         _______ _______ _______ _____ _____    ______ ____
ROOT
ATOM      1  C   UNL     1      35.411 -21.850 -18.649  0.00  0.00    +0.089 C 
ATOM      2  C   UNL     1      35.504 -22.840 -16.475  0.00  0.00    +0.119 C 
ATOM      3  C   UNL     1      36.137 -22.161 -17.517  0.00  0.00    +0.027 C 
ATOM      4  C   UNL     1      34.080 -22.188 -18.785  0.00  0.00    +0.144 C 
ATOM      5  C   UNL     1      34.158 -23.193 -16.589  0.00  0.00    +0.062 C 
ATOM      6  C   UNL     1      33.447 -22.867 -17.744  0.00  0.00    +0.052 C 
ENDROOT
BRANCH   1   9
ATOM      7  O   UNL     1      36.989 -21.700 -20.378  0.00  0.00    -0.270 OA
ATOM      8  N   UNL     1      35.672 -19.828 -20.000  0.00  0.00    -0.303 N 
ATOM      9  C   UNL     1      36.105 -21.128 -19.747  0.00  0.00    +0.249 C 
ATOM     10  H   UNL     1      34.955 -19.453 -19.440  0.00  0.00    +0.150 HD
BRANCH   8  11
ATOM     11  C   UNL     1      36.225 -19.014 -21.041  0.00  0.00    +0.069 C 
BRANCH  11  13
ATOM     12  N   UNL     1      35.521 -17.599 -22.981  0.00  0.00    +0.389 N 
ATOM     13  C   UNL     1      35.167 -18.100 -21.645  0.00  0.00    -0.038 C 
ATOM     14  C   UNL     1      35.001 -16.811 -20.837  0.00  0.00    -0.021 C 
ATOM     15  C   UNL     1      34.650 -15.737 -21.861  0.00  0.00    -0.025 C 
ATOM     16  C   UNL     1      34.637 -16.452 -23.201  0.00  0.00    -0.077 C 
ATOM     17  H   UNL     1      36.508 -17.346 -23.021  0.00  0.00    -0.080 HD
BRANCH  12  18
ATOM     18  C   UNL     1      35.370 -18.599 -24.031  0.00  0.00    -0.077 C 
ATOM     19  C   UNL     1      34.394 -18.143 -25.095  0.00  0.00    -0.025 C 
ENDBRANCH  12  18
ENDBRANCH  11  13
ENDBRANCH   8  11
ENDBRANCH   1   9
BRANCH   2  20
ATOM     20  S   UNL     1      36.430 -23.231 -15.042  0.00  0.00    +0.010 S 
ATOM     21  O   UNL     1      37.704 -22.532 -15.133  0.00  0.00    -0.169 OA
ATOM     22  O   UNL     1      35.583 -23.048 -13.874  0.00  0.00    -0.169 OA
BRANCH  20  23
ATOM     23  C   UNL     1      36.747 -24.974 -15.190  0.00  0.00    +0.156 C 
ATOM     24  C   UNL     1      38.112 -25.337 -14.649  0.00  0.00    +0.028 C 
ENDBRANCH  20  23
ENDBRANCH   2  20
BRANCH   5  25
ATOM     25  N   UNL     1      33.495 -23.880 -15.549  0.00  0.00    -0.356 N 
ATOM     26  H   UNL     1      33.976 -24.099 -14.718  0.00  0.00    +0.142 HD
ATOM     27  H   UNL     1      32.552 -24.142 -15.655  0.00  0.00    +0.142 HD
ENDBRANCH   5  25
BRANCH   4  28
ATOM     28  O   UNL     1      33.368 -21.878 -19.904  0.00  0.00    -0.471 OA
ATOM     29  C   UNL     1      32.662 -20.639 -19.901  0.00  0.00    +0.252 C 
ENDBRANCH   4  28
TORSDOF 8
ENDMDL
