MODEL 1
REMARK VINA RESULT:      -8.4      0.000      0.000
REMARK  Name = 68470595
REMARK  3 active torsions:
REMARK  status: ('A' for Active; 'I' for Inactive)
REMARK    1  A    between atoms: C_4  and  C_19
REMARK    2  A    between atoms: C_5  and  C_13
REMARK    3  A    between atoms: C_19  and  O_20
REMARK                            x       y       z     vdW  Elec       q    Type
REMARK                         _______ _______ _______ _____ _____    ______ ____
ROOT
ATOM      1  N   UNL     1      35.992 -22.953 -14.083  0.00  0.00    +0.388 N 
ATOM      2  C   UNL     1      34.824 -23.755 -14.501  0.00  0.00    -0.055 C 
ATOM      3  C   UNL     1      37.054 -23.430 -14.985  0.00  0.00    -0.058 C 
ATOM      4  C   UNL     1      34.301 -23.104 -15.813  0.00  0.00    +0.015 C 
ATOM      5  C   UNL     1      35.391 -23.114 -16.928  0.00  0.00    +0.021 C 
ATOM      6  C   UNL     1      36.791 -22.774 -16.356  0.00  0.00    -0.016 C 
ATOM      7  C   UNL     1      35.392 -25.167 -14.701  0.00  0.00    -0.023 C 
ATOM      8  C   UNL     1      36.870 -24.949 -15.032  0.00  0.00    -0.023 C 
ATOM      9  C   UNL     1      36.326 -23.130 -12.672  0.00  0.00    -0.100 C 
ATOM     10  H   UNL     1      35.831 -21.949 -14.155  0.00  0.00    -0.080 HD
ENDROOT
BRANCH   5  13
ATOM     11 CL   UNL     1      37.040 -19.740 -20.525  0.00  0.00    -0.081 Cl
ATOM     12 CL   UNL     1      34.002 -19.584 -21.627  0.00  0.00    -0.081 Cl
ATOM     13  C   UNL     1      35.057 -22.219 -18.112  0.00  0.00    -0.022 C 
ATOM     14  C   UNL     1      36.060 -21.466 -18.722  0.00  0.00    +0.008 C 
ATOM     15  C   UNL     1      33.747 -22.153 -18.588  0.00  0.00    -0.003 C 
ATOM     16  C   UNL     1      35.754 -20.647 -19.809  0.00  0.00    +0.068 C 
ATOM     17  C   UNL     1      33.441 -21.333 -19.674  0.00  0.00    +0.012 C 
ATOM     18  C   UNL     1      34.444 -20.580 -20.285  0.00  0.00    +0.068 C 
ENDBRANCH   5  13
BRANCH   4  19
ATOM     19  C   UNL     1      33.004 -23.772 -16.286  0.00  0.00    +0.140 C 
BRANCH  19  20
ATOM     20  O   UNL     1      31.937 -23.263 -15.513  0.00  0.00    -0.351 OA
ATOM     21  C   UNL     1      30.822 -22.902 -16.322  0.00  0.00    +0.174 C 
ENDBRANCH  19  20
ENDBRANCH   4  19
TORSDOF 3
ENDMDL
MODEL 2
REMARK VINA RESULT:      -8.4      7.278      9.813
REMARK  Name = 68470595
REMARK  3 active torsions:
REMARK  status: ('A' for Active; 'I' for Inactive)
REMARK    1  A    between atoms: C_4  and  C_19
REMARK    2  A    between atoms: C_5  and  C_13
REMARK    3  A    between atoms: C_19  and  O_20
REMARK                            x       y       z     vdW  Elec       q    Type
REMARK                         _______ _______ _______ _____ _____    ______ ____
ROOT
ATOM      1  N   UNL     1      34.151 -18.687 -21.925  0.00  0.00    +0.388 N 
ATOM      2  C   UNL     1      34.691 -18.321 -23.250  0.00  0.00    -0.055 C 
ATOM      3  C   UNL     1      35.018 -17.936 -21.001  0.00  0.00    -0.058 C 
ATOM      4  C   UNL     1      34.149 -16.896 -23.558  0.00  0.00    +0.015 C 
ATOM      5  C   UNL     1      34.611 -15.866 -22.482  0.00  0.00    +0.021 C 
ATOM      6  C   UNL     1      34.546 -16.469 -21.055  0.00  0.00    -0.016 C 
ATOM      7  C   UNL     1      36.213 -18.371 -23.060  0.00  0.00    -0.023 C 
ATOM      8  C   UNL     1      36.429 -18.105 -21.569  0.00  0.00    -0.023 C 
ATOM      9  C   UNL     1      34.177 -20.127 -21.680  0.00  0.00    -0.100 C 
ATOM     10  H   UNL     1      33.164 -18.456 -21.820  0.00  0.00    -0.080 HD
ENDROOT
BRANCH   5  13
ATOM     11 CL   UNL     1      34.017 -11.231 -24.761  0.00  0.00    -0.081 Cl
ATOM     12 CL   UNL     1      31.604 -10.634 -22.689  0.00  0.00    -0.081 Cl
ATOM     13  C   UNL     1      33.864 -14.543 -22.546  0.00  0.00    -0.022 C 
ATOM     14  C   UNL     1      34.219 -13.587 -23.498  0.00  0.00    +0.008 C 
ATOM     15  C   UNL     1      32.823 -14.286 -21.654  0.00  0.00    -0.003 C 
ATOM     16  C   UNL     1      33.533 -12.374 -23.558  0.00  0.00    +0.068 C 
ATOM     17  C   UNL     1      32.137 -13.073 -21.713  0.00  0.00    +0.012 C 
ATOM     18  C   UNL     1      32.492 -12.117 -22.665  0.00  0.00    +0.068 C 
ENDBRANCH   5  13
BRANCH   4  19
ATOM     19  C   UNL     1      34.538 -16.447 -24.972  0.00  0.00    +0.140 C 
BRANCH  19  20
ATOM     20  O   UNL     1      33.403 -16.574 -25.803  0.00  0.00    -0.351 OA
ATOM     21  C   UNL     1      32.969 -15.314 -26.304  0.00  0.00    +0.174 C 
ENDBRANCH  19  20
ENDBRANCH   4  19
TORSDOF 3
ENDMDL
MODEL 3
REMARK VINA RESULT:      -8.1     10.729     13.410
REMARK  Name = 68470595
REMARK  3 active torsions:
REMARK  status: ('A' for Active; 'I' for Inactive)
REMARK    1  A    between atoms: C_4  and  C_19
REMARK    2  A    between atoms: C_5  and  C_13
REMARK    3  A    between atoms: C_19  and  O_20
REMARK                            x       y       z     vdW  Elec       q    Type
REMARK                         _______ _______ _______ _____ _____    ______ ____
ROOT
ATOM      1  N   UNL     1      31.683  -8.922 -23.726  0.00  0.00    +0.388 N 
ATOM      2  C   UNL     1      31.584  -9.512 -22.376  0.00  0.00    -0.055 C 
ATOM      3  C   UNL     1      33.138  -8.847 -23.944  0.00  0.00    -0.058 C 
ATOM      4  C   UNL     1      31.854 -11.034 -22.550  0.00  0.00    +0.015 C 
ATOM      5  C   UNL     1      33.268 -11.297 -23.154  0.00  0.00    +0.021 C 
ATOM      6  C   UNL     1      33.604 -10.280 -24.274  0.00  0.00    -0.016 C 
ATOM      7  C   UNL     1      32.670  -8.785 -21.570  0.00  0.00    -0.023 C 
ATOM      8  C   UNL     1      33.705  -8.353 -22.610  0.00  0.00    -0.023 C 
ATOM      9  C   UNL     1      31.029  -7.619 -23.824  0.00  0.00    -0.100 C 
ATOM     10  H   UNL     1      31.203  -9.473 -24.436  0.00  0.00    -0.080 HD
ENDROOT
BRANCH   5  13
ATOM     11 CL   UNL     1      34.935 -16.119 -22.152  0.00  0.00    -0.081 Cl
ATOM     12 CL   UNL     1      34.021 -16.948 -25.143  0.00  0.00    -0.081 Cl
ATOM     13  C   UNL     1      33.465 -12.725 -23.640  0.00  0.00    -0.022 C 
ATOM     14  C   UNL     1      34.040 -13.675 -22.798  0.00  0.00    +0.008 C 
ATOM     15  C   UNL     1      33.070 -13.083 -24.930  0.00  0.00    -0.003 C 
ATOM     16  C   UNL     1      34.220 -14.985 -23.244  0.00  0.00    +0.068 C 
ATOM     17  C   UNL     1      33.250 -14.391 -25.375  0.00  0.00    +0.012 C 
ATOM     18  C   UNL     1      33.825 -15.343 -24.533  0.00  0.00    +0.068 C 
ENDBRANCH   5  13
BRANCH   4  19
ATOM     19  C   UNL     1      31.656 -11.788 -21.229  0.00  0.00    +0.140 C 
BRANCH  19  20
ATOM     20  O   UNL     1      30.671 -11.111 -20.477  0.00  0.00    -0.351 OA
ATOM     21  C   UNL     1      31.102 -10.863 -19.142  0.00  0.00    +0.174 C 
ENDBRANCH  19  20
ENDBRANCH   4  19
TORSDOF 3
ENDMDL
MODEL 4
REMARK VINA RESULT:      -8.1     10.613     13.468
REMARK  Name = 68470595
REMARK  3 active torsions:
REMARK  status: ('A' for Active; 'I' for Inactive)
REMARK    1  A    between atoms: C_4  and  C_19
REMARK    2  A    between atoms: C_5  and  C_13
REMARK    3  A    between atoms: C_19  and  O_20
REMARK                            x       y       z     vdW  Elec       q    Type
REMARK                         _______ _______ _______ _____ _____    ______ ____
ROOT
ATOM      1  N   UNL     1      31.747  -9.005 -23.788  0.00  0.00    +0.388 N 
ATOM      2  C   UNL     1      31.607  -9.532 -22.415  0.00  0.00    -0.055 C 
ATOM      3  C   UNL     1      33.208  -8.930 -23.960  0.00  0.00    -0.058 C 
ATOM      4  C   UNL     1      31.891 -11.058 -22.507  0.00  0.00    +0.015 C 
ATOM      5  C   UNL     1      33.326 -11.338 -23.050  0.00  0.00    +0.021 C 
ATOM      6  C   UNL     1      33.694 -10.374 -24.206  0.00  0.00    -0.016 C 
ATOM      7  C   UNL     1      32.660  -8.759 -21.609  0.00  0.00    -0.023 C 
ATOM      8  C   UNL     1      33.728  -8.369 -22.634  0.00  0.00    -0.023 C 
ATOM      9  C   UNL     1      31.089  -7.714 -23.971  0.00  0.00    -0.100 C 
ATOM     10  H   UNL     1      31.294  -9.593 -24.487  0.00  0.00    -0.080 HD
ENDROOT
BRANCH   5  13
ATOM     11 CL   UNL     1      32.758 -15.052 -26.645  0.00  0.00    -0.081 Cl
ATOM     12 CL   UNL     1      34.240 -17.097 -24.621  0.00  0.00    -0.081 Cl
ATOM     13  C   UNL     1      33.548 -12.786 -23.461  0.00  0.00    -0.022 C 
ATOM     14  C   UNL     1      33.113 -13.232 -24.708  0.00  0.00    +0.008 C 
ATOM     15  C   UNL     1      34.188 -13.668 -22.588  0.00  0.00    -0.003 C 
ATOM     16  C   UNL     1      33.317 -14.560 -25.085  0.00  0.00    +0.068 C 
ATOM     17  C   UNL     1      34.392 -14.994 -22.965  0.00  0.00    +0.012 C 
ATOM     18  C   UNL     1      33.957 -15.441 -24.212  0.00  0.00    +0.068 C 
ENDBRANCH   5  13
BRANCH   4  19
ATOM     19  C   UNL     1      31.653 -11.750 -21.159  0.00  0.00    +0.140 C 
BRANCH  19  20
ATOM     20  O   UNL     1      30.578 -11.100 -20.512  0.00  0.00    -0.351 OA
ATOM     21  C   UNL     1      30.907 -10.736 -19.175  0.00  0.00    +0.174 C 
ENDBRANCH  19  20
ENDBRANCH   4  19
TORSDOF 3
ENDMDL
MODEL 5
REMARK VINA RESULT:      -7.9      3.556      6.240
REMARK  Name = 68470595
REMARK  3 active torsions:
REMARK  status: ('A' for Active; 'I' for Inactive)
REMARK    1  A    between atoms: C_4  and  C_19
REMARK    2  A    between atoms: C_5  and  C_13
REMARK    3  A    between atoms: C_19  and  O_20
REMARK                            x       y       z     vdW  Elec       q    Type
REMARK                         _______ _______ _______ _____ _____    ______ ____
ROOT
ATOM      1  N   UNL     1      30.276 -22.826 -14.773  0.00  0.00    +0.388 N 
ATOM      2  C   UNL     1      30.933 -23.098 -16.067  0.00  0.00    -0.055 C 
ATOM      3  C   UNL     1      30.230 -24.157 -14.144  0.00  0.00    -0.058 C 
ATOM      4  C   UNL     1      32.451 -23.242 -15.759  0.00  0.00    +0.015 C 
ATOM      5  C   UNL     1      32.721 -24.408 -14.759  0.00  0.00    +0.021 C 
ATOM      6  C   UNL     1      31.657 -24.447 -13.633  0.00  0.00    -0.016 C 
ATOM      7  C   UNL     1      30.280 -24.399 -16.552  0.00  0.00    -0.023 C 
ATOM      8  C   UNL     1      29.823 -25.106 -15.274  0.00  0.00    -0.023 C 
ATOM      9  C   UNL     1      28.952 -22.226 -14.923  0.00  0.00    -0.100 C 
ATOM     10  H   UNL     1      30.776 -22.138 -14.211  0.00  0.00    -0.080 HD
ENDROOT
BRANCH   5  13
ATOM     11 CL   UNL     1      37.670 -25.962 -15.121  0.00  0.00    -0.081 Cl
ATOM     12 CL   UNL     1      38.279 -24.320 -12.400  0.00  0.00    -0.081 Cl
ATOM     13  C   UNL     1      34.126 -24.396 -14.177  0.00  0.00    -0.022 C 
ATOM     14  C   UNL     1      35.151 -25.093 -14.816  0.00  0.00    +0.008 C 
ATOM     15  C   UNL     1      34.389 -23.687 -13.005  0.00  0.00    -0.003 C 
ATOM     16  C   UNL     1      36.441 -25.081 -14.282  0.00  0.00    +0.068 C 
ATOM     17  C   UNL     1      35.678 -23.675 -12.472  0.00  0.00    +0.012 C 
ATOM     18  C   UNL     1      36.704 -24.373 -13.110  0.00  0.00    +0.068 C 
ENDBRANCH   5  13
BRANCH   4  19
ATOM     19  C   UNL     1      33.267 -23.403 -17.047  0.00  0.00    +0.140 C 
BRANCH  19  20
ATOM     20  O   UNL     1      32.652 -22.633 -18.060  0.00  0.00    -0.351 OA
ATOM     21  C   UNL     1      33.595 -22.173 -19.022  0.00  0.00    +0.174 C 
ENDBRANCH  19  20
ENDBRANCH   4  19
TORSDOF 3
ENDMDL
MODEL 6
REMARK VINA RESULT:      -7.9     11.549     14.244
REMARK  Name = 68470595
REMARK  3 active torsions:
REMARK  status: ('A' for Active; 'I' for Inactive)
REMARK    1  A    between atoms: C_4  and  C_19
REMARK    2  A    between atoms: C_5  and  C_13
REMARK    3  A    between atoms: C_19  and  O_20
REMARK                            x       y       z     vdW  Elec       q    Type
REMARK                         _______ _______ _______ _____ _____    ______ ____
ROOT
ATOM      1  N   UNL     1      32.172  -7.801 -23.836  0.00  0.00    +0.388 N 
ATOM      2  C   UNL     1      31.594  -8.487 -22.662  0.00  0.00    -0.055 C 
ATOM      3  C   UNL     1      33.621  -7.971 -23.632  0.00  0.00    -0.058 C 
ATOM      4  C   UNL     1      31.677 -10.010 -22.968  0.00  0.00    +0.015 C 
ATOM      5  C   UNL     1      33.152 -10.467 -23.191  0.00  0.00    +0.021 C 
ATOM      6  C   UNL     1      33.948  -9.428 -24.020  0.00  0.00    -0.016 C 
ATOM      7  C   UNL     1      32.488  -8.046 -21.495  0.00  0.00    -0.023 C 
ATOM      8  C   UNL     1      33.835  -7.714 -22.138  0.00  0.00    -0.023 C 
ATOM      9  C   UNL     1      31.774  -6.399 -23.926  0.00  0.00    -0.100 C 
ATOM     10  H   UNL     1      31.847  -8.188 -24.721  0.00  0.00    -0.080 HD
ENDROOT
BRANCH   5  13
ATOM     11 CL   UNL     1      33.598 -13.397 -27.463  0.00  0.00    -0.081 Cl
ATOM     12 CL   UNL     1      33.632 -16.005 -25.548  0.00  0.00    -0.081 Cl
ATOM     13  C   UNL     1      33.273 -11.855 -23.800  0.00  0.00    -0.022 C 
ATOM     14  C   UNL     1      33.368 -12.004 -25.184  0.00  0.00    +0.008 C 
ATOM     15  C   UNL     1      33.288 -12.980 -22.975  0.00  0.00    -0.003 C 
ATOM     16  C   UNL     1      33.480 -13.277 -25.742  0.00  0.00    +0.068 C 
ATOM     17  C   UNL     1      33.400 -14.252 -23.533  0.00  0.00    +0.012 C 
ATOM     18  C   UNL     1      33.496 -14.402 -24.917  0.00  0.00    +0.068 C 
ENDBRANCH   5  13
BRANCH   4  19
ATOM     19  C   UNL     1      30.990 -10.835 -21.873  0.00  0.00    +0.140 C 
BRANCH  19  20
ATOM     20  O   UNL     1      31.859 -10.904 -20.761  0.00  0.00    -0.351 OA
ATOM     21  C   UNL     1      31.147 -10.845 -19.529  0.00  0.00    +0.174 C 
ENDBRANCH  19  20
ENDBRANCH   4  19
TORSDOF 3
ENDMDL
MODEL 7
REMARK VINA RESULT:      -7.9      7.000      9.267
REMARK  Name = 68470595
REMARK  3 active torsions:
REMARK  status: ('A' for Active; 'I' for Inactive)
REMARK    1  A    between atoms: C_4  and  C_19
REMARK    2  A    between atoms: C_5  and  C_13
REMARK    3  A    between atoms: C_19  and  O_20
REMARK                            x       y       z     vdW  Elec       q    Type
REMARK                         _______ _______ _______ _____ _____    ______ ____
ROOT
ATOM      1  N   UNL     1      36.164 -18.154 -21.797  0.00  0.00    +0.388 N 
ATOM      2  C   UNL     1      34.945 -17.710 -21.090  0.00  0.00    -0.055 C 
ATOM      3  C   UNL     1      35.621 -18.906 -22.941  0.00  0.00    -0.058 C 
ATOM      4  C   UNL     1      34.393 -16.502 -21.898  0.00  0.00    +0.015 C 
ATOM      5  C   UNL     1      34.051 -16.906 -23.365  0.00  0.00    +0.021 C 
ATOM      6  C   UNL     1      35.123 -17.856 -23.956  0.00  0.00    -0.016 C 
ATOM      7  C   UNL     1      34.027 -18.940 -21.120  0.00  0.00    -0.023 C 
ATOM      8  C   UNL     1      34.469 -19.727 -22.355  0.00  0.00    -0.023 C 
ATOM      9  C   UNL     1      37.045 -18.961 -20.957  0.00  0.00    -0.100 C 
ATOM     10  H   UNL     1      36.763 -17.380 -22.078  0.00  0.00    -0.080 HD
ENDROOT
BRANCH   5  13
ATOM     11 CL   UNL     1      33.880 -11.744 -23.961  0.00  0.00    -0.081 Cl
ATOM     12 CL   UNL     1      33.098 -12.229 -27.063  0.00  0.00    -0.081 Cl
ATOM     13  C   UNL     1      33.813 -15.717 -24.284  0.00  0.00    -0.022 C 
ATOM     14  C   UNL     1      33.932 -14.419 -23.789  0.00  0.00    +0.008 C 
ATOM     15  C   UNL     1      33.477 -15.927 -25.621  0.00  0.00    -0.003 C 
ATOM     16  C   UNL     1      33.715 -13.329 -24.632  0.00  0.00    +0.068 C 
ATOM     17  C   UNL     1      33.260 -14.837 -26.464  0.00  0.00    +0.012 C 
ATOM     18  C   UNL     1      33.379 -13.538 -25.970  0.00  0.00    +0.068 C 
ENDBRANCH   5  13
BRANCH   4  19
ATOM     19  C   UNL     1      33.189 -15.865 -21.193  0.00  0.00    +0.140 C 
BRANCH  19  20
ATOM     20  O   UNL     1      33.624 -14.681 -20.557  0.00  0.00    -0.351 OA
ATOM     21  C   UNL     1      32.607 -13.685 -20.538  0.00  0.00    +0.174 C 
ENDBRANCH  19  20
ENDBRANCH   4  19
TORSDOF 3
ENDMDL
MODEL 8
REMARK VINA RESULT:      -7.6     10.589     13.785
REMARK  Name = 68470595
REMARK  3 active torsions:
REMARK  status: ('A' for Active; 'I' for Inactive)
REMARK    1  A    between atoms: C_4  and  C_19
REMARK    2  A    between atoms: C_5  and  C_13
REMARK    3  A    between atoms: C_19  and  O_20
REMARK                            x       y       z     vdW  Elec       q    Type
REMARK                         _______ _______ _______ _____ _____    ______ ____
ROOT
ATOM      1  N   UNL     1      32.875  -8.610 -21.943  0.00  0.00    +0.388 N 
ATOM      2  C   UNL     1      33.250  -8.979 -23.323  0.00  0.00    -0.055 C 
ATOM      3  C   UNL     1      31.489  -9.099 -21.840  0.00  0.00    -0.058 C 
ATOM      4  C   UNL     1      33.562 -10.503 -23.292  0.00  0.00    +0.015 C 
ATOM      5  C   UNL     1      32.323 -11.329 -22.828  0.00  0.00    +0.021 C 
ATOM      6  C   UNL     1      31.578 -10.629 -21.663  0.00  0.00    -0.016 C 
ATOM      7  C   UNL     1      32.010  -8.623 -24.155  0.00  0.00    -0.023 C 
ATOM      8  C   UNL     1      30.841  -8.713 -23.172  0.00  0.00    -0.023 C 
ATOM      9  C   UNL     1      32.988  -7.176 -21.688  0.00  0.00    -0.100 C 
ATOM     10  H   UNL     1      33.493  -9.016 -21.241  0.00  0.00    -0.080 HD
ENDROOT
BRANCH   5  13
ATOM     11 CL   UNL     1      34.007 -15.993 -24.392  0.00  0.00    -0.081 Cl
ATOM     12 CL   UNL     1      33.612 -17.041 -21.356  0.00  0.00    -0.081 Cl
ATOM     13  C   UNL     1      32.651 -12.771 -22.474  0.00  0.00    -0.022 C 
ATOM     14  C   UNL     1      33.122 -13.641 -23.457  0.00  0.00    +0.008 C 
ATOM     15  C   UNL     1      32.482 -13.223 -21.164  0.00  0.00    -0.003 C 
ATOM     16  C   UNL     1      33.424 -14.963 -23.131  0.00  0.00    +0.068 C 
ATOM     17  C   UNL     1      32.784 -14.544 -20.839  0.00  0.00    +0.012 C 
ATOM     18  C   UNL     1      33.255 -15.415 -21.822  0.00  0.00    +0.068 C 
ENDBRANCH   5  13
BRANCH   4  19
ATOM     19  C   UNL     1      34.089 -10.990 -24.647  0.00  0.00    +0.140 C 
BRANCH  19  20
ATOM     20  O   UNL     1      35.154 -10.147 -25.035  0.00  0.00    -0.351 OA
ATOM     21  C   UNL     1      35.616 -10.449 -26.348  0.00  0.00    +0.174 C 
ENDBRANCH  19  20
ENDBRANCH   4  19
TORSDOF 3
ENDMDL
MODEL 9
REMARK VINA RESULT:      -7.6     10.113     13.248
REMARK  Name = 68470595
REMARK  3 active torsions:
REMARK  status: ('A' for Active; 'I' for Inactive)
REMARK    1  A    between atoms: C_4  and  C_19
REMARK    2  A    between atoms: C_5  and  C_13
REMARK    3  A    between atoms: C_19  and  O_20
REMARK                            x       y       z     vdW  Elec       q    Type
REMARK                         _______ _______ _______ _____ _____    ______ ____
ROOT
ATOM      1  N   UNL     1      32.648  -9.632 -21.416  0.00  0.00    +0.388 N 
ATOM      2  C   UNL     1      32.922  -9.498 -22.862  0.00  0.00    -0.055 C 
ATOM      3  C   UNL     1      31.390 -10.398 -21.392  0.00  0.00    -0.058 C 
ATOM      4  C   UNL     1      33.496 -10.868 -23.320  0.00  0.00    +0.015 C 
ATOM      5  C   UNL     1      32.482 -12.025 -23.066  0.00  0.00    +0.021 C 
ATOM      6  C   UNL     1      31.765 -11.862 -21.702  0.00  0.00    -0.016 C 
ATOM      7  C   UNL     1      31.551  -9.171 -23.473  0.00  0.00    -0.023 C 
ATOM      8  C   UNL     1      30.536  -9.778 -22.502  0.00  0.00    -0.023 C 
ATOM      9  C   UNL     1      32.538  -8.342 -20.738  0.00  0.00    -0.100 C 
ATOM     10  H   UNL     1      33.403 -10.092 -20.910  0.00  0.00    -0.080 HD
ENDROOT
BRANCH   5  13
ATOM     11 CL   UNL     1      34.812 -16.059 -20.756  0.00  0.00    -0.081 Cl
ATOM     12 CL   UNL     1      34.904 -17.527 -23.638  0.00  0.00    -0.081 Cl
ATOM     13  C   UNL     1      33.096 -13.411 -23.194  0.00  0.00    -0.022 C 
ATOM     14  C   UNL     1      33.620 -14.048 -22.069  0.00  0.00    +0.008 C 
ATOM     15  C   UNL     1      33.134 -14.045 -24.436  0.00  0.00    -0.003 C 
ATOM     16  C   UNL     1      34.182 -15.320 -22.186  0.00  0.00    +0.068 C 
ATOM     17  C   UNL     1      33.696 -15.315 -24.553  0.00  0.00    +0.012 C 
ATOM     18  C   UNL     1      34.221 -15.953 -23.429  0.00  0.00    +0.068 C 
ENDBRANCH   5  13
BRANCH   4  19
ATOM     19  C   UNL     1      33.942 -10.821 -24.787  0.00  0.00    +0.140 C 
BRANCH  19  20
ATOM     20  O   UNL     1      35.179 -10.142 -24.852  0.00  0.00    -0.351 OA
ATOM     21  C   UNL     1      35.767 -10.235 -26.145  0.00  0.00    +0.174 C 
ENDBRANCH  19  20
ENDBRANCH   4  19
TORSDOF 3
ENDMDL
