MODEL 1
REMARK VINA RESULT:      -1.5      0.000      0.000
REMARK  Name = 11987878
REMARK  2 active torsions:
REMARK  status: ('A' for Active; 'I' for Inactive)
REMARK    1  A    between atoms: C_18  and  O_23
REMARK    2  A    between atoms: C_21  and  O_25
REMARK                            x       y       z     vdW  Elec       q    Type
REMARK                         _______ _______ _______ _____ _____    ______ ____
ROOT
ATOM      1 CL   UNL     1      32.712  -8.739 -22.110  0.00  0.00    -0.079 Cl
ATOM      2  O   UNL     1      33.790 -13.515 -25.648  0.00  0.00    -0.445 OA
ATOM      3  O   UNL     1      31.258 -13.507 -23.424  0.00  0.00    -0.296 OA
ATOM      4  O   UNL     1      31.964 -12.369 -26.497  0.00  0.00    -0.245 OA
ATOM      5  C   UNL     1      34.247 -13.413 -21.481  0.00  0.00    +0.001 C 
ATOM      6  C   UNL     1      32.809 -13.582 -20.980  0.00  0.00    +0.008 C 
ATOM      7  C   UNL     1      35.161 -14.581 -21.091  0.00  0.00    +0.005 C 
ATOM      8  C   UNL     1      31.921 -12.406 -21.391  0.00  0.00    +0.065 C 
ATOM      9  C   UNL     1      34.850 -15.911 -21.789  0.00  0.00    +0.026 C 
ATOM     10  C   UNL     1      31.506 -11.134 -23.610  0.00  0.00    +0.092 C 
ATOM     11  C   UNL     1      31.546 -12.449 -22.863  0.00  0.00    +0.155 C 
ATOM     12  C   UNL     1      32.872 -10.686 -24.065  0.00  0.00    +0.008 C 
ATOM     13  C   UNL     1      33.580 -11.311 -25.106  0.00  0.00    +0.107 C 
ATOM     14  C   UNL     1      35.012 -15.826 -23.279  0.00  0.00    -0.031 C 
ATOM     15  C   UNL     1      33.491  -9.617 -23.396  0.00  0.00    +0.088 C 
ATOM     16  C   UNL     1      34.179 -15.892 -25.643  0.00  0.00    +0.073 C 
ATOM     17  C   UNL     1      34.018 -16.034 -24.155  0.00  0.00    -0.027 C 
ATOM     18  C   UNL     1      34.862 -10.879 -25.471  0.00  0.00    +0.143 C 
ATOM     19  C   UNL     1      33.312 -14.760 -26.187  0.00  0.00    +0.213 C 
ATOM     20  C   UNL     1      32.997 -12.435 -25.856  0.00  0.00    +0.344 C 
ATOM     21  C   UNL     1      34.769  -9.186 -23.758  0.00  0.00    +0.147 C 
ATOM     22  C   UNL     1      35.454  -9.816 -24.793  0.00  0.00    +0.074 C 
ENDROOT
BRANCH  18  23
ATOM     23  O   UNL     1      35.550 -11.459 -26.496  0.00  0.00    -0.505 OA
ATOM     24  H   UNL     1      35.534 -12.389 -26.603  0.00  0.00    +0.292 HD
ENDBRANCH  18  23
BRANCH  21  25
ATOM     25  O   UNL     1      35.383  -8.146 -23.122  0.00  0.00    -0.505 OA
ATOM     26  H   UNL     1      35.136  -7.920 -22.247  0.00  0.00    +0.292 HD
ENDBRANCH  21  25
TORSDOF 2
ENDMDL
MODEL 2
REMARK VINA RESULT:      -0.9     13.058     16.003
REMARK  Name = 11987878
REMARK  2 active torsions:
REMARK  status: ('A' for Active; 'I' for Inactive)
REMARK    1  A    between atoms: C_18  and  O_23
REMARK    2  A    between atoms: C_21  and  O_25
REMARK                            x       y       z     vdW  Elec       q    Type
REMARK                         _______ _______ _______ _____ _____    ______ ____
ROOT
ATOM      1 CL   UNL     1      38.153 -25.571 -11.341  0.00  0.00    -0.079 Cl
ATOM      2  O   UNL     1      33.762 -24.016 -15.186  0.00  0.00    -0.445 OA
ATOM      3  O   UNL     1      36.339 -25.961 -16.150  0.00  0.00    -0.296 OA
ATOM      4  O   UNL     1      33.417 -26.210 -14.525  0.00  0.00    -0.245 OA
ATOM      5  C   UNL     1      37.760 -22.773 -15.417  0.00  0.00    +0.001 C 
ATOM      6  C   UNL     1      38.453 -23.986 -16.046  0.00  0.00    +0.008 C 
ATOM      7  C   UNL     1      37.802 -21.526 -16.310  0.00  0.00    +0.005 C 
ATOM      8  C   UNL     1      38.388 -25.214 -15.137  0.00  0.00    +0.065 C 
ATOM      9  C   UNL     1      36.957 -21.613 -17.587  0.00  0.00    +0.026 C 
ATOM     10  C   UNL     1      36.502 -26.385 -13.800  0.00  0.00    +0.092 C 
ATOM     11  C   UNL     1      37.009 -25.853 -15.123  0.00  0.00    +0.155 C 
ATOM     12  C   UNL     1      35.909 -25.304 -12.932  0.00  0.00    +0.008 C 
ATOM     13  C   UNL     1      34.680 -24.682 -13.208  0.00  0.00    +0.107 C 
ATOM     14  C   UNL     1      35.494 -21.782 -17.295  0.00  0.00    -0.031 C 
ATOM     15  C   UNL     1      36.633 -24.864 -11.810  0.00  0.00    +0.088 C 
ATOM     16  C   UNL     1      33.319 -23.027 -17.337  0.00  0.00    +0.073 C 
ATOM     17  C   UNL     1      34.770 -22.842 -17.682  0.00  0.00    -0.027 C 
ATOM     18  C   UNL     1      34.186 -23.657 -12.389  0.00  0.00    +0.143 C 
ATOM     19  C   UNL     1      33.113 -24.250 -16.448  0.00  0.00    +0.213 C 
ATOM     20  C   UNL     1      33.863 -25.088 -14.363  0.00  0.00    +0.344 C 
ATOM     21  C   UNL     1      36.143 -23.843 -10.994  0.00  0.00    +0.147 C 
ATOM     22  C   UNL     1      34.922 -23.240 -11.283  0.00  0.00    +0.074 C 
ENDROOT
BRANCH  18  23
ATOM     23  O   UNL     1      32.983 -23.062 -12.631  0.00  0.00    -0.505 OA
ATOM     24  H   UNL     1      32.686 -22.946 -13.511  0.00  0.00    +0.292 HD
ENDBRANCH  18  23
BRANCH  21  25
ATOM     25  O   UNL     1      36.830 -23.407  -9.898  0.00  0.00    -0.505 OA
ATOM     26  H   UNL     1      37.663 -22.989 -10.003  0.00  0.00    +0.292 HD
ENDBRANCH  21  25
TORSDOF 2
ENDMDL
MODEL 3
REMARK VINA RESULT:       0.2      2.868      5.321
REMARK  Name = 11987878
REMARK  2 active torsions:
REMARK  status: ('A' for Active; 'I' for Inactive)
REMARK    1  A    between atoms: C_18  and  O_23
REMARK    2  A    between atoms: C_21  and  O_25
REMARK                            x       y       z     vdW  Elec       q    Type
REMARK                         _______ _______ _______ _____ _____    ______ ____
ROOT
ATOM      1 CL   UNL     1      34.564  -5.919 -25.868  0.00  0.00    -0.079 Cl
ATOM      2  O   UNL     1      31.935  -9.985 -22.255  0.00  0.00    -0.445 OA
ATOM      3  O   UNL     1      35.233 -10.108 -22.937  0.00  0.00    -0.296 OA
ATOM      4  O   UNL     1      33.096  -8.473 -20.938  0.00  0.00    -0.245 OA
ATOM      5  C   UNL     1      33.584 -10.779 -26.028  0.00  0.00    +0.001 C 
ATOM      6  C   UNL     1      35.085 -10.864 -25.728  0.00  0.00    +0.008 C 
ATOM      7  C   UNL     1      32.992 -12.106 -26.517  0.00  0.00    +0.005 C 
ATOM      8  C   UNL     1      35.643  -9.529 -25.235  0.00  0.00    +0.065 C 
ATOM      9  C   UNL     1      32.933 -13.219 -25.464  0.00  0.00    +0.026 C 
ATOM     10  C   UNL     1      34.901  -7.795 -23.458  0.00  0.00    +0.092 C 
ATOM     11  C   UNL     1      35.247  -9.228 -23.799  0.00  0.00    +0.155 C 
ATOM     12  C   UNL     1      33.484  -7.439 -23.827  0.00  0.00    +0.008 C 
ATOM     13  C   UNL     1      32.362  -7.926 -23.135  0.00  0.00    +0.107 C 
ATOM     14  C   UNL     1      32.059 -12.858 -24.298  0.00  0.00    -0.031 C 
ATOM     15  C   UNL     1      33.262  -6.611 -24.941  0.00  0.00    +0.088 C 
ATOM     16  C   UNL     1      31.624 -12.344 -21.883  0.00  0.00    +0.073 C 
ATOM     17  C   UNL     1      32.496 -12.761 -23.034  0.00  0.00    -0.027 C 
ATOM     18  C   UNL     1      31.061  -7.593 -23.537  0.00  0.00    +0.143 C 
ATOM     19  C   UNL     1      32.099 -11.027 -21.277  0.00  0.00    +0.213 C 
ATOM     20  C   UNL     1      32.512  -8.795 -21.957  0.00  0.00    +0.344 C 
ATOM     21  C   UNL     1      31.967  -6.280 -25.344  0.00  0.00    +0.147 C 
ATOM     22  C   UNL     1      30.868  -6.770 -24.644  0.00  0.00    +0.074 C 
ENDROOT
BRANCH  18  23
ATOM     23  O   UNL     1      29.964  -8.036 -22.859  0.00  0.00    -0.505 OA
ATOM     24  H   UNL     1      29.327  -7.424 -22.547  0.00  0.00    +0.292 HD
ENDBRANCH  18  23
BRANCH  21  25
ATOM     25  O   UNL     1      31.734  -5.474 -26.421  0.00  0.00    -0.505 OA
ATOM     26  H   UNL     1      30.927  -5.544 -26.893  0.00  0.00    +0.292 HD
ENDBRANCH  21  25
TORSDOF 2
ENDMDL
MODEL 4
REMARK VINA RESULT:       0.3      3.524      7.233
REMARK  Name = 11987878
REMARK  2 active torsions:
REMARK  status: ('A' for Active; 'I' for Inactive)
REMARK    1  A    between atoms: C_18  and  O_23
REMARK    2  A    between atoms: C_21  and  O_25
REMARK                            x       y       z     vdW  Elec       q    Type
REMARK                         _______ _______ _______ _____ _____    ______ ____
ROOT
ATOM      1 CL   UNL     1      31.004  -9.801 -19.964  0.00  0.00    -0.079 Cl
ATOM      2  O   UNL     1      34.205  -7.432 -24.506  0.00  0.00    -0.445 OA
ATOM      3  O   UNL     1      33.362  -5.603 -21.805  0.00  0.00    -0.296 OA
ATOM      4  O   UNL     1      35.644  -7.871 -22.743  0.00  0.00    -0.245 OA
ATOM      5  C   UNL     1      30.291  -6.353 -23.457  0.00  0.00    +0.001 C 
ATOM      6  C   UNL     1      30.509  -5.419 -22.262  0.00  0.00    +0.008 C 
ATOM      7  C   UNL     1      29.669  -5.647 -24.668  0.00  0.00    +0.005 C 
ATOM      8  C   UNL     1      31.136  -6.149 -21.074  0.00  0.00    +0.065 C 
ATOM      9  C   UNL     1      30.579  -4.627 -25.363  0.00  0.00    +0.026 C 
ATOM     10  C   UNL     1      33.146  -7.760 -20.789  0.00  0.00    +0.092 C 
ATOM     11  C   UNL     1      32.615  -6.431 -21.282  0.00  0.00    +0.155 C 
ATOM     12  C   UNL     1      32.889  -8.881 -21.763  0.00  0.00    +0.008 C 
ATOM     13  C   UNL     1      33.567  -9.009 -22.988  0.00  0.00    +0.107 C 
ATOM     14  C   UNL     1      31.820  -5.257 -25.927  0.00  0.00    -0.031 C 
ATOM     15  C   UNL     1      31.897  -9.829 -21.458  0.00  0.00    +0.088 C 
ATOM     16  C   UNL     1      34.297  -5.611 -26.078  0.00  0.00    +0.073 C 
ATOM     17  C   UNL     1      33.065  -4.934 -25.546  0.00  0.00    -0.027 C 
ATOM     18  C   UNL     1      33.269 -10.051 -23.876  0.00  0.00    +0.143 C 
ATOM     19  C   UNL     1      35.038  -6.358 -24.974  0.00  0.00    +0.213 C 
ATOM     20  C   UNL     1      34.621  -8.058 -23.377  0.00  0.00    +0.344 C 
ATOM     21  C   UNL     1      31.598 -10.867 -22.342  0.00  0.00    +0.147 C 
ATOM     22  C   UNL     1      32.282 -10.978 -23.550  0.00  0.00    +0.074 C 
ENDROOT
BRANCH  18  23
ATOM     23  O   UNL     1      33.938 -10.202 -25.055  0.00  0.00    -0.505 OA
ATOM     24  H   UNL     1      33.791 -10.962 -25.583  0.00  0.00    +0.292 HD
ENDBRANCH  18  23
BRANCH  21  25
ATOM     25  O   UNL     1      30.641 -11.798 -22.060  0.00  0.00    -0.505 OA
ATOM     26  H   UNL     1      30.112 -11.709 -21.291  0.00  0.00    +0.292 HD
ENDBRANCH  21  25
TORSDOF 2
ENDMDL
MODEL 5
REMARK VINA RESULT:       0.5      3.853      6.506
REMARK  Name = 11987878
REMARK  2 active torsions:
REMARK  status: ('A' for Active; 'I' for Inactive)
REMARK    1  A    between atoms: C_18  and  O_23
REMARK    2  A    between atoms: C_21  and  O_25
REMARK                            x       y       z     vdW  Elec       q    Type
REMARK                         _______ _______ _______ _____ _____    ______ ____
ROOT
ATOM      1 CL   UNL     1      34.183  -5.744 -26.128  0.00  0.00    -0.079 Cl
ATOM      2  O   UNL     1      31.629  -7.659 -21.000  0.00  0.00    -0.445 OA
ATOM      3  O   UNL     1      34.785  -8.510 -21.819  0.00  0.00    -0.296 OA
ATOM      4  O   UNL     1      33.095  -5.938 -20.492  0.00  0.00    -0.245 OA
ATOM      5  C   UNL     1      32.700 -10.087 -24.246  0.00  0.00    +0.001 C 
ATOM      6  C   UNL     1      34.210 -10.263 -24.051  0.00  0.00    +0.008 C 
ATOM      7  C   UNL     1      31.919 -11.400 -24.115  0.00  0.00    +0.005 C 
ATOM      8  C   UNL     1      34.960  -8.937 -24.180  0.00  0.00    +0.065 C 
ATOM      9  C   UNL     1      31.880 -11.994 -22.702  0.00  0.00    +0.026 C 
ATOM     10  C   UNL     1      34.628  -6.561 -23.200  0.00  0.00    +0.092 C 
ATOM     11  C   UNL     1      34.780  -8.048 -22.961  0.00  0.00    +0.155 C 
ATOM     12  C   UNL     1      33.219  -6.177 -23.574  0.00  0.00    +0.008 C 
ATOM     13  C   UNL     1      32.149  -6.189 -22.662  0.00  0.00    +0.107 C 
ATOM     14  C   UNL     1      31.200 -11.086 -21.718  0.00  0.00    -0.031 C 
ATOM     15  C   UNL     1      32.944  -5.826 -24.907  0.00  0.00    +0.088 C 
ATOM     16  C   UNL     1      31.128  -9.616 -19.689  0.00  0.00    +0.073 C 
ATOM     17  C   UNL     1      31.801 -10.569 -20.636  0.00  0.00    -0.027 C 
ATOM     18  C   UNL     1      30.850  -5.856 -23.066  0.00  0.00    +0.143 C 
ATOM     19  C   UNL     1      31.807  -8.250 -19.701  0.00  0.00    +0.213 C 
ATOM     20  C   UNL     1      32.357  -6.544 -21.249  0.00  0.00    +0.344 C 
ATOM     21  C   UNL     1      31.650  -5.495 -25.311  0.00  0.00    +0.147 C 
ATOM     22  C   UNL     1      30.604  -5.510 -24.393  0.00  0.00    +0.074 C 
ENDROOT
BRANCH  18  23
ATOM     23  O   UNL     1      29.807  -5.838 -22.187  0.00  0.00    -0.505 OA
ATOM     24  H   UNL     1      29.638  -5.070 -21.677  0.00  0.00    +0.292 HD
ENDBRANCH  18  23
BRANCH  21  25
ATOM     25  O   UNL     1      31.366  -5.146 -26.600  0.00  0.00    -0.505 OA
ATOM     26  H   UNL     1      31.798  -4.413 -26.993  0.00  0.00    +0.292 HD
ENDBRANCH  21  25
TORSDOF 2
ENDMDL
MODEL 6
REMARK VINA RESULT:       0.7      2.447      5.825
REMARK  Name = 11987878
REMARK  2 active torsions:
REMARK  status: ('A' for Active; 'I' for Inactive)
REMARK    1  A    between atoms: C_18  and  O_23
REMARK    2  A    between atoms: C_21  and  O_25
REMARK                            x       y       z     vdW  Elec       q    Type
REMARK                         _______ _______ _______ _____ _____    ______ ____
ROOT
ATOM      1 CL   UNL     1      34.519 -16.590 -25.766  0.00  0.00    -0.079 Cl
ATOM      2  O   UNL     1      32.594 -11.773 -22.671  0.00  0.00    -0.445 OA
ATOM      3  O   UNL     1      31.857 -12.178 -25.934  0.00  0.00    -0.296 OA
ATOM      4  O   UNL     1      30.818 -13.238 -22.929  0.00  0.00    -0.245 OA
ATOM      5  C   UNL     1      35.390 -11.707 -25.796  0.00  0.00    +0.001 C 
ATOM      6  C   UNL     1      34.502 -11.783 -27.043  0.00  0.00    +0.008 C 
ATOM      7  C   UNL     1      36.167 -10.389 -25.689  0.00  0.00    +0.005 C 
ATOM      8  C   UNL     1      33.736 -13.104 -27.117  0.00  0.00    +0.065 C 
ATOM      9  C   UNL     1      35.308  -9.149 -25.410  0.00  0.00    +0.026 C 
ATOM     10  C   UNL     1      32.314 -14.475 -25.439  0.00  0.00    +0.092 C 
ATOM     11  C   UNL     1      32.576 -13.158 -26.136  0.00  0.00    +0.155 C 
ATOM     12  C   UNL     1      33.213 -14.686 -24.247  0.00  0.00    +0.008 C 
ATOM     13  C   UNL     1      33.081 -13.968 -23.046  0.00  0.00    +0.107 C 
ATOM     14  C   UNL     1      34.587  -9.235 -24.096  0.00  0.00    -0.031 C 
ATOM     15  C   UNL     1      34.262 -15.616 -24.346  0.00  0.00    +0.088 C 
ATOM     16  C   UNL     1      32.541  -9.365 -22.654  0.00  0.00    +0.073 C 
ATOM     17  C   UNL     1      33.252  -9.223 -23.970  0.00  0.00    -0.027 C 
ATOM     18  C   UNL     1      33.962 -14.176 -21.977  0.00  0.00    +0.143 C 
ATOM     19  C   UNL     1      31.707 -10.642 -22.611  0.00  0.00    +0.213 C 
ATOM     20  C   UNL     1      32.006 -12.979 -22.864  0.00  0.00    +0.344 C 
ATOM     21  C   UNL     1      35.142 -15.824 -23.282  0.00  0.00    +0.147 C 
ATOM     22  C   UNL     1      34.993 -15.104 -22.099  0.00  0.00    +0.074 C 
ENDROOT
BRANCH  18  23
ATOM     23  O   UNL     1      33.829 -13.506 -20.796  0.00  0.00    -0.505 OA
ATOM     24  H   UNL     1      33.847 -13.977 -19.986  0.00  0.00    +0.292 HD
ENDBRANCH  18  23
BRANCH  21  25
ATOM     25  O   UNL     1      36.163 -16.726 -23.359  0.00  0.00    -0.505 OA
ATOM     26  H   UNL     1      36.705 -16.885 -22.612  0.00  0.00    +0.292 HD
ENDBRANCH  21  25
TORSDOF 2
ENDMDL
