MODEL 1
REMARK VINA RESULT:      -8.5      0.000      0.000
REMARK  Name = 25113101
REMARK  8 active torsions:
REMARK  status: ('A' for Active; 'I' for Inactive)
REMARK    1  A    between atoms: C_1  and  C_2
REMARK    2  A    between atoms: C_1  and  O_11
REMARK    3  A    between atoms: C_1  and  CA_13
REMARK    4  A    between atoms: C_7  and  N_10
REMARK    5  A    between atoms: CA_13  and  N_15
REMARK    6  A    between atoms: CA_13  and  C_21
REMARK    7  A    between atoms: C_16  and  C_20
REMARK    8  A    between atoms: C_21  and  O_22
REMARK                            x       y       z     vdW  Elec       q    Type
REMARK                         _______ _______ _______ _____ _____    ______ ____
ROOT
ATOM      1  C   UNL     1      35.443 -17.670 -21.847  0.00  0.00    +0.153 C 
ENDROOT
BRANCH   1   2
ATOM      2  C   UNL     1      34.938 -18.916 -21.154  0.00  0.00    +0.006 C 
ATOM      3  C   UNL     1      33.567 -19.147 -21.049  0.00  0.00    -0.000 C 
ATOM      4  C   UNL     1      35.844 -19.834 -20.623  0.00  0.00    -0.000 C 
ATOM      5  C   UNL     1      33.101 -20.296 -20.411  0.00  0.00    +0.024 C 
ATOM      6  C   UNL     1      35.378 -20.984 -19.984  0.00  0.00    +0.024 C 
ATOM      7  C   UNL     1      34.005 -21.215 -19.879  0.00  0.00    +0.143 C 
BRANCH   7  10
ATOM      8  O   UNL     1      34.084 -23.484 -19.479  0.00  0.00    -0.126 OA
ATOM      9  O   UNL     1      32.572 -22.290 -18.427  0.00  0.00    -0.126 OA
ATOM     10  N   UNL     1      33.531 -22.386 -19.231  0.00  0.00    +0.058 N 
ENDBRANCH   7  10
ENDBRANCH   1   2
BRANCH   1  11
ATOM     11  O   UNL     1      35.712 -18.026 -23.207  0.00  0.00    -0.378 OA
ATOM     12  H   UNL     1      35.792 -18.990 -23.279  0.00  0.00    +0.211 HD
ENDBRANCH   1  11
BRANCH   1  13
ATOM     13  CA  UNL     1      34.449 -16.489 -21.812  0.00  0.00    +0.132 C 
BRANCH  13  15
ATOM     14  O   UNL     1      32.579 -14.575 -22.854  0.00  0.00    -0.273 OA
ATOM     15  N   UNL     1      34.608 -15.684 -23.009  0.00  0.00    -0.300 N 
ATOM     16  C   UNL     1      33.646 -14.784 -23.430  0.00  0.00    +0.244 C 
ATOM     17  H   UNL     1      35.432 -15.782 -23.540  0.00  0.00    +0.150 HD
BRANCH  16  20
ATOM     18 BR   UNL     1      33.028 -14.854 -26.143  0.00  0.00    -0.059 Br
ATOM     19 BR   UNL     1      33.691 -12.186 -24.427  0.00  0.00    -0.059 Br
ATOM     20  C   UNL     1      34.048 -14.070 -24.697  0.00  0.00    +0.189 C 
ENDBRANCH  16  20
ENDBRANCH  13  15
BRANCH  13  21
ATOM     21  C   UNL     1      34.580 -15.593 -20.575  0.00  0.00    +0.159 C 
BRANCH  21  22
ATOM     22  O   UNL     1      33.307 -15.183 -20.090  0.00  0.00    -0.380 OA
ATOM     23  H   UNL     1      33.032 -14.373 -20.548  0.00  0.00    +0.211 HD
ENDBRANCH  21  22
ENDBRANCH  13  21
ENDBRANCH   1  13
TORSDOF 8
ENDMDL
MODEL 2
REMARK VINA RESULT:      -8.4      1.992      2.875
REMARK  Name = 25113101
REMARK  8 active torsions:
REMARK  status: ('A' for Active; 'I' for Inactive)
REMARK    1  A    between atoms: C_1  and  C_2
REMARK    2  A    between atoms: C_1  and  O_11
REMARK    3  A    between atoms: C_1  and  CA_13
REMARK    4  A    between atoms: C_7  and  N_10
REMARK    5  A    between atoms: CA_13  and  N_15
REMARK    6  A    between atoms: CA_13  and  C_21
REMARK    7  A    between atoms: C_16  and  C_20
REMARK    8  A    between atoms: C_21  and  O_22
REMARK                            x       y       z     vdW  Elec       q    Type
REMARK                         _______ _______ _______ _____ _____    ______ ____
ROOT
ATOM      1  C   UNL     1      35.775 -18.266 -21.853  0.00  0.00    +0.153 C 
ENDROOT
BRANCH   1   2
ATOM      2  C   UNL     1      35.129 -19.382 -21.064  0.00  0.00    +0.006 C 
ATOM      3  C   UNL     1      35.917 -20.386 -20.503  0.00  0.00    -0.000 C 
ATOM      4  C   UNL     1      33.744 -19.407 -20.898  0.00  0.00    -0.000 C 
ATOM      5  C   UNL     1      35.321 -21.416 -19.775  0.00  0.00    +0.024 C 
ATOM      6  C   UNL     1      33.147 -20.437 -20.169  0.00  0.00    +0.024 C 
ATOM      7  C   UNL     1      33.937 -21.441 -19.607  0.00  0.00    +0.143 C 
BRANCH   7  10
ATOM      8  O   UNL     1      32.284 -22.246 -18.217  0.00  0.00    -0.126 OA
ATOM      9  O   UNL     1      33.856 -23.628 -18.878  0.00  0.00    -0.126 OA
ATOM     10  N   UNL     1      33.330 -22.488 -18.865  0.00  0.00    +0.058 N 
ENDBRANCH   7  10
ENDBRANCH   1   2
BRANCH   1  11
ATOM     11  O   UNL     1      37.188 -18.496 -21.825  0.00  0.00    -0.378 OA
ATOM     12  H   UNL     1      37.511 -18.415 -20.914  0.00  0.00    +0.211 HD
ENDBRANCH   1  11
BRANCH   1  13
ATOM     13  CA  UNL     1      35.299 -18.178 -23.319  0.00  0.00    +0.132 C 
BRANCH  13  15
ATOM     14  O   UNL     1      34.808 -16.745 -25.758  0.00  0.00    -0.273 OA
ATOM     15  N   UNL     1      34.446 -17.016 -23.485  0.00  0.00    -0.300 N 
ATOM     16  C   UNL     1      34.273 -16.393 -24.707  0.00  0.00    +0.244 C 
ATOM     17  H   UNL     1      33.973 -16.659 -22.698  0.00  0.00    +0.150 HD
BRANCH  16  20
ATOM     18 BR   UNL     1      34.084 -13.990 -23.315  0.00  0.00    -0.059 Br
ATOM     19 BR   UNL     1      33.199 -14.459 -26.397  0.00  0.00    -0.059 Br
ATOM     20  C   UNL     1      33.338 -15.212 -24.618  0.00  0.00    +0.189 C 
ENDBRANCH  16  20
ENDBRANCH  13  15
BRANCH  13  21
ATOM     21  C   UNL     1      34.560 -19.427 -23.815  0.00  0.00    +0.159 C 
BRANCH  21  22
ATOM     22  O   UNL     1      34.967 -19.787 -25.129  0.00  0.00    -0.380 OA
ATOM     23  H   UNL     1      34.568 -19.176 -25.770  0.00  0.00    +0.211 HD
ENDBRANCH  21  22
ENDBRANCH  13  21
ENDBRANCH   1  13
TORSDOF 8
ENDMDL
MODEL 3
REMARK VINA RESULT:      -8.4      9.428     11.172
REMARK  Name = 25113101
REMARK  8 active torsions:
REMARK  status: ('A' for Active; 'I' for Inactive)
REMARK    1  A    between atoms: C_1  and  C_2
REMARK    2  A    between atoms: C_1  and  O_11
REMARK    3  A    between atoms: C_1  and  CA_13
REMARK    4  A    between atoms: C_7  and  N_10
REMARK    5  A    between atoms: CA_13  and  N_15
REMARK    6  A    between atoms: CA_13  and  C_21
REMARK    7  A    between atoms: C_16  and  C_20
REMARK    8  A    between atoms: C_21  and  O_22
REMARK                            x       y       z     vdW  Elec       q    Type
REMARK                         _______ _______ _______ _____ _____    ______ ____
ROOT
ATOM      1  C   UNL     1      33.167 -24.021 -14.000  0.00  0.00    +0.153 C 
ENDROOT
BRANCH   1   2
ATOM      2  C   UNL     1      31.807 -23.946 -14.656  0.00  0.00    +0.006 C 
ATOM      3  C   UNL     1      31.534 -22.937 -15.580  0.00  0.00    -0.000 C 
ATOM      4  C   UNL     1      30.826 -24.886 -14.338  0.00  0.00    -0.000 C 
ATOM      5  C   UNL     1      30.280 -22.867 -16.185  0.00  0.00    +0.024 C 
ATOM      6  C   UNL     1      29.571 -24.816 -14.944  0.00  0.00    +0.024 C 
ATOM      7  C   UNL     1      29.298 -23.806 -15.869  0.00  0.00    +0.143 C 
BRANCH   7  10
ATOM      8  O   UNL     1      27.793 -24.453 -17.490  0.00  0.00    -0.126 OA
ATOM      9  O   UNL     1      27.157 -22.960 -16.011  0.00  0.00    -0.126 OA
ATOM     10  N   UNL     1      28.022 -23.736 -16.486  0.00  0.00    +0.058 N 
ENDBRANCH   7  10
ENDBRANCH   1   2
BRANCH   1  11
ATOM     11  O   UNL     1      33.089 -25.029 -12.986  0.00  0.00    -0.378 OA
ATOM     12  H   UNL     1      33.670 -25.770 -13.221  0.00  0.00    +0.211 HD
ENDBRANCH   1  11
BRANCH   1  13
ATOM     13  CA  UNL     1      34.314 -24.365 -14.976  0.00  0.00    +0.132 C 
BRANCH  13  15
ATOM     14  O   UNL     1      36.114 -26.422 -15.856  0.00  0.00    -0.273 OA
ATOM     15  N   UNL     1      35.437 -24.909 -14.236  0.00  0.00    -0.300 N 
ATOM     16  C   UNL     1      36.250 -25.904 -14.748  0.00  0.00    +0.244 C 
ATOM     17  H   UNL     1      35.627 -24.557 -13.336  0.00  0.00    +0.150 HD
BRANCH  16  20
ATOM     18 BR   UNL     1      39.027 -25.790 -14.605  0.00  0.00    -0.059 Br
ATOM     19 BR   UNL     1      36.992 -25.384 -12.116  0.00  0.00    -0.059 Br
ATOM     20  C   UNL     1      37.346 -26.295 -13.788  0.00  0.00    +0.189 C 
ENDBRANCH  16  20
ENDBRANCH  13  15
BRANCH  13  21
ATOM     21  C   UNL     1      34.790 -23.183 -15.827  0.00  0.00    +0.159 C 
BRANCH  21  22
ATOM     22  O   UNL     1      34.618 -23.435 -17.216  0.00  0.00    -0.380 OA
ATOM     23  H   UNL     1      35.483 -23.595 -17.626  0.00  0.00    +0.211 HD
ENDBRANCH  21  22
ENDBRANCH  13  21
ENDBRANCH   1  13
TORSDOF 8
ENDMDL
MODEL 4
REMARK VINA RESULT:      -8.2      1.328      2.353
REMARK  Name = 25113101
REMARK  8 active torsions:
REMARK  status: ('A' for Active; 'I' for Inactive)
REMARK    1  A    between atoms: C_1  and  C_2
REMARK    2  A    between atoms: C_1  and  O_11
REMARK    3  A    between atoms: C_1  and  CA_13
REMARK    4  A    between atoms: C_7  and  N_10
REMARK    5  A    between atoms: CA_13  and  N_15
REMARK    6  A    between atoms: CA_13  and  C_21
REMARK    7  A    between atoms: C_16  and  C_20
REMARK    8  A    between atoms: C_21  and  O_22
REMARK                            x       y       z     vdW  Elec       q    Type
REMARK                         _______ _______ _______ _____ _____    ______ ____
ROOT
ATOM      1  C   UNL     1      34.314 -17.422 -21.543  0.00  0.00    +0.153 C 
ENDROOT
BRANCH   1   2
ATOM      2  C   UNL     1      34.371 -18.806 -20.936  0.00  0.00    +0.006 C 
ATOM      3  C   UNL     1      33.190 -19.483 -20.633  0.00  0.00    -0.000 C 
ATOM      4  C   UNL     1      35.605 -19.405 -20.681  0.00  0.00    -0.000 C 
ATOM      5  C   UNL     1      33.243 -20.760 -20.073  0.00  0.00    +0.024 C 
ATOM      6  C   UNL     1      35.657 -20.683 -20.121  0.00  0.00    +0.024 C 
ATOM      7  C   UNL     1      34.475 -21.360 -19.818  0.00  0.00    +0.143 C 
BRANCH   7  10
ATOM      8  O   UNL     1      35.041 -22.806 -18.115  0.00  0.00    -0.126 OA
ATOM      9  O   UNL     1      34.061 -23.628 -19.899  0.00  0.00    -0.126 OA
ATOM     10  N   UNL     1      34.529 -22.660 -19.250  0.00  0.00    +0.058 N 
ENDBRANCH   7  10
ENDBRANCH   1   2
BRANCH   1  11
ATOM     11  O   UNL     1      35.131 -16.573 -20.730  0.00  0.00    -0.378 OA
ATOM     12  H   UNL     1      35.673 -16.005 -21.299  0.00  0.00    +0.211 HD
ENDBRANCH   1  11
BRANCH   1  13
ATOM     13  CA  UNL     1      34.808 -17.361 -23.005  0.00  0.00    +0.132 C 
BRANCH  13  15
ATOM     14  O   UNL     1      34.836 -14.502 -22.740  0.00  0.00    -0.273 OA
ATOM     15  N   UNL     1      34.001 -16.413 -23.751  0.00  0.00    -0.300 N 
ATOM     16  C   UNL     1      34.087 -15.047 -23.551  0.00  0.00    +0.244 C 
ATOM     17  H   UNL     1      33.369 -16.755 -24.425  0.00  0.00    +0.150 HD
BRANCH  16  20
ATOM     18 BR   UNL     1      33.767 -12.443 -24.480  0.00  0.00    -0.059 Br
ATOM     19 BR   UNL     1      33.188 -15.139 -26.183  0.00  0.00    -0.059 Br
ATOM     20  C   UNL     1      33.150 -14.278 -24.449  0.00  0.00    +0.189 C 
ENDBRANCH  16  20
ENDBRANCH  13  15
BRANCH  13  21
ATOM     21  C   UNL     1      34.803 -18.712 -23.727  0.00  0.00    +0.159 C 
BRANCH  21  22
ATOM     22  O   UNL     1      34.347 -18.587 -25.069  0.00  0.00    -0.380 OA
ATOM     23  H   UNL     1      33.470 -18.171 -25.074  0.00  0.00    +0.211 HD
ENDBRANCH  21  22
ENDBRANCH  13  21
ENDBRANCH   1  13
TORSDOF 8
ENDMDL
MODEL 5
REMARK VINA RESULT:      -7.8      7.448     10.236
REMARK  Name = 25113101
REMARK  8 active torsions:
REMARK  status: ('A' for Active; 'I' for Inactive)
REMARK    1  A    between atoms: C_1  and  C_2
REMARK    2  A    between atoms: C_1  and  O_11
REMARK    3  A    between atoms: C_1  and  CA_13
REMARK    4  A    between atoms: C_7  and  N_10
REMARK    5  A    between atoms: CA_13  and  N_15
REMARK    6  A    between atoms: CA_13  and  C_21
REMARK    7  A    between atoms: C_16  and  C_20
REMARK    8  A    between atoms: C_21  and  O_22
REMARK                            x       y       z     vdW  Elec       q    Type
REMARK                         _______ _______ _______ _____ _____    ______ ____
ROOT
ATOM      1  C   UNL     1      34.593 -24.633 -13.356  0.00  0.00    +0.153 C 
ENDROOT
BRANCH   1   2
ATOM      2  C   UNL     1      36.062 -24.907 -13.586  0.00  0.00    +0.006 C 
ATOM      3  C   UNL     1      36.460 -25.735 -14.636  0.00  0.00    -0.000 C 
ATOM      4  C   UNL     1      37.018 -24.331 -12.749  0.00  0.00    -0.000 C 
ATOM      5  C   UNL     1      37.815 -25.987 -14.848  0.00  0.00    +0.024 C 
ATOM      6  C   UNL     1      38.374 -24.584 -12.963  0.00  0.00    +0.024 C 
ATOM      7  C   UNL     1      38.772 -25.412 -14.013  0.00  0.00    +0.143 C 
BRANCH   7  10
ATOM      8  O   UNL     1      40.521 -26.842 -14.468  0.00  0.00    -0.126 OA
ATOM      9  O   UNL     1      40.963 -24.711 -14.180  0.00  0.00    -0.126 OA
ATOM     10  N   UNL     1      40.152 -25.668 -14.231  0.00  0.00    +0.058 N 
ENDBRANCH   7  10
ENDBRANCH   1   2
BRANCH   1  11
ATOM     11  O   UNL     1      34.509 -23.571 -12.399  0.00  0.00    -0.378 OA
ATOM     12  H   UNL     1      34.845 -23.881 -11.543  0.00  0.00    +0.211 HD
ENDBRANCH   1  11
BRANCH   1  13
ATOM     13  CA  UNL     1      33.824 -24.233 -14.634  0.00  0.00    +0.132 C 
BRANCH  13  15
ATOM     14  O   UNL     1      34.024 -23.907 -17.479  0.00  0.00    -0.273 OA
ATOM     15  N   UNL     1      34.557 -23.197 -15.339  0.00  0.00    -0.300 N 
ATOM     16  C   UNL     1      34.592 -23.124 -16.719  0.00  0.00    +0.244 C 
ATOM     17  H   UNL     1      35.045 -22.522 -14.814  0.00  0.00    +0.150 HD
BRANCH  16  20
ATOM     18 BR   UNL     1      37.217 -22.215 -16.542  0.00  0.00    -0.059 Br
ATOM     19 BR   UNL     1      35.299 -21.947 -19.140  0.00  0.00    -0.059 Br
ATOM     20  C   UNL     1      35.417 -21.959 -17.207  0.00  0.00    +0.189 C 
ENDBRANCH  16  20
ENDBRANCH  13  15
BRANCH  13  21
ATOM     21  C   UNL     1      32.388 -23.759 -14.381  0.00  0.00    +0.159 C 
BRANCH  21  22
ATOM     22  O   UNL     1      32.353 -22.400 -13.962  0.00  0.00    -0.380 OA
ATOM     23  H   UNL     1      32.694 -22.331 -13.056  0.00  0.00    +0.211 HD
ENDBRANCH  21  22
ENDBRANCH  13  21
ENDBRANCH   1  13
TORSDOF 8
ENDMDL
MODEL 6
REMARK VINA RESULT:      -7.7      2.364      3.481
REMARK  Name = 25113101
REMARK  8 active torsions:
REMARK  status: ('A' for Active; 'I' for Inactive)
REMARK    1  A    between atoms: C_1  and  C_2
REMARK    2  A    between atoms: C_1  and  O_11
REMARK    3  A    between atoms: C_1  and  CA_13
REMARK    4  A    between atoms: C_7  and  N_10
REMARK    5  A    between atoms: CA_13  and  N_15
REMARK    6  A    between atoms: CA_13  and  C_21
REMARK    7  A    between atoms: C_16  and  C_20
REMARK    8  A    between atoms: C_21  and  O_22
REMARK                            x       y       z     vdW  Elec       q    Type
REMARK                         _______ _______ _______ _____ _____    ______ ____
ROOT
ATOM      1  C   UNL     1      34.463 -19.968 -21.240  0.00  0.00    +0.153 C 
ENDROOT
BRANCH   1   2
ATOM      2  C   UNL     1      34.711 -20.842 -20.032  0.00  0.00    +0.006 C 
ATOM      3  C   UNL     1      35.993 -20.933 -19.488  0.00  0.00    -0.000 C 
ATOM      4  C   UNL     1      33.658 -21.557 -19.460  0.00  0.00    -0.000 C 
ATOM      5  C   UNL     1      36.222 -21.739 -18.373  0.00  0.00    +0.024 C 
ATOM      6  C   UNL     1      33.888 -22.363 -18.344  0.00  0.00    +0.024 C 
ATOM      7  C   UNL     1      35.170 -22.453 -17.800  0.00  0.00    +0.143 C 
BRANCH   7  10
ATOM      8  O   UNL     1      36.545 -23.283 -16.148  0.00  0.00    -0.126 OA
ATOM      9  O   UNL     1      34.459 -23.963 -16.208  0.00  0.00    -0.126 OA
ATOM     10  N   UNL     1      35.402 -23.272 -16.664  0.00  0.00    +0.058 N 
ENDBRANCH   7  10
ENDBRANCH   1   2
BRANCH   1  11
ATOM     11  O   UNL     1      33.051 -19.746 -21.314  0.00  0.00    -0.378 OA
ATOM     12  H   UNL     1      32.655 -20.381 -21.932  0.00  0.00    +0.211 HD
ENDBRANCH   1  11
BRANCH   1  13
ATOM     13  CA  UNL     1      35.194 -18.609 -21.190  0.00  0.00    +0.132 C 
BRANCH  13  15
ATOM     14  O   UNL     1      34.947 -15.943 -20.153  0.00  0.00    -0.273 OA
ATOM     15  N   UNL     1      34.315 -17.565 -21.683  0.00  0.00    -0.300 N 
ATOM     16  C   UNL     1      34.269 -16.306 -21.113  0.00  0.00    +0.244 C 
ATOM     17  H   UNL     1      33.731 -17.761 -22.451  0.00  0.00    +0.150 HD
BRANCH  16  20
ATOM     18 BR   UNL     1      32.704 -14.084 -20.511  0.00  0.00    -0.059 Br
ATOM     19 BR   UNL     1      34.184 -14.639 -23.341  0.00  0.00    -0.059 Br
ATOM     20  C   UNL     1      33.280 -15.402 -21.807  0.00  0.00    +0.189 C 
ENDBRANCH  16  20
ENDBRANCH  13  15
BRANCH  13  21
ATOM     21  C   UNL     1      36.513 -18.576 -21.970  0.00  0.00    +0.159 C 
BRANCH  21  22
ATOM     22  O   UNL     1      36.312 -18.170 -23.319  0.00  0.00    -0.380 OA
ATOM     23  H   UNL     1      37.155 -18.209 -23.797  0.00  0.00    +0.211 HD
ENDBRANCH  21  22
ENDBRANCH  13  21
ENDBRANCH   1  13
TORSDOF 8
ENDMDL
MODEL 7
REMARK VINA RESULT:      -7.7      8.647     10.928
REMARK  Name = 25113101
REMARK  8 active torsions:
REMARK  status: ('A' for Active; 'I' for Inactive)
REMARK    1  A    between atoms: C_1  and  C_2
REMARK    2  A    between atoms: C_1  and  O_11
REMARK    3  A    between atoms: C_1  and  CA_13
REMARK    4  A    between atoms: C_7  and  N_10
REMARK    5  A    between atoms: CA_13  and  N_15
REMARK    6  A    between atoms: CA_13  and  C_21
REMARK    7  A    between atoms: C_16  and  C_20
REMARK    8  A    between atoms: C_21  and  O_22
REMARK                            x       y       z     vdW  Elec       q    Type
REMARK                         _______ _______ _______ _____ _____    ______ ____
ROOT
ATOM      1  C   UNL     1      34.577 -24.733 -13.891  0.00  0.00    +0.153 C 
ENDROOT
BRANCH   1   2
ATOM      2  C   UNL     1      36.062 -24.992 -14.008  0.00  0.00    +0.006 C 
ATOM      3  C   UNL     1      36.535 -25.943 -14.913  0.00  0.00    -0.000 C 
ATOM      4  C   UNL     1      36.959 -24.278 -13.213  0.00  0.00    -0.000 C 
ATOM      5  C   UNL     1      37.904 -26.181 -15.022  0.00  0.00    +0.024 C 
ATOM      6  C   UNL     1      38.330 -24.517 -13.322  0.00  0.00    +0.024 C 
ATOM      7  C   UNL     1      38.802 -25.468 -14.227  0.00  0.00    +0.143 C 
BRANCH   7  10
ATOM      8  O   UNL     1      40.598 -26.886 -14.505  0.00  0.00    -0.126 OA
ATOM      9  O   UNL     1      40.990 -24.739 -14.269  0.00  0.00    -0.126 OA
ATOM     10  N   UNL     1      40.197 -25.710 -14.339  0.00  0.00    +0.058 N 
ENDBRANCH   7  10
ENDBRANCH   1   2
BRANCH   1  11
ATOM     11  O   UNL     1      34.265 -24.703 -12.494  0.00  0.00    -0.378 OA
ATOM     12  H   UNL     1      34.787 -25.377 -12.032  0.00  0.00    +0.211 HD
ENDBRANCH   1  11
BRANCH   1  13
ATOM     13  CA  UNL     1      34.119 -23.412 -14.547  0.00  0.00    +0.132 C 
BRANCH  13  15
ATOM     14  O   UNL     1      31.820 -23.115 -12.852  0.00  0.00    -0.273 OA
ATOM     15  N   UNL     1      32.728 -23.524 -14.945  0.00  0.00    -0.300 N 
ATOM     16  C   UNL     1      31.686 -23.362 -14.050  0.00  0.00    +0.244 C 
ATOM     17  H   UNL     1      32.518 -23.721 -15.887  0.00  0.00    +0.150 HD
BRANCH  16  20
ATOM     18 BR   UNL     1      30.466 -22.734 -16.471  0.00  0.00    -0.059 Br
ATOM     19 BR   UNL     1      29.938 -25.418 -14.734  0.00  0.00    -0.059 Br
ATOM     20  C   UNL     1      30.338 -23.523 -14.709  0.00  0.00    +0.189 C 
ENDBRANCH  16  20
ENDBRANCH  13  15
BRANCH  13  21
ATOM     21  C   UNL     1      34.961 -22.985 -15.754  0.00  0.00    +0.159 C 
BRANCH  21  22
ATOM     22  O   UNL     1      34.491 -23.581 -16.957  0.00  0.00    -0.380 OA
ATOM     23  H   UNL     1      34.818 -24.493 -17.016  0.00  0.00    +0.211 HD
ENDBRANCH  21  22
ENDBRANCH  13  21
ENDBRANCH   1  13
TORSDOF 8
ENDMDL
MODEL 8
REMARK VINA RESULT:      -7.7      3.828      5.737
REMARK  Name = 25113101
REMARK  8 active torsions:
REMARK  status: ('A' for Active; 'I' for Inactive)
REMARK    1  A    between atoms: C_1  and  C_2
REMARK    2  A    between atoms: C_1  and  O_11
REMARK    3  A    between atoms: C_1  and  CA_13
REMARK    4  A    between atoms: C_7  and  N_10
REMARK    5  A    between atoms: CA_13  and  N_15
REMARK    6  A    between atoms: CA_13  and  C_21
REMARK    7  A    between atoms: C_16  and  C_20
REMARK    8  A    between atoms: C_21  and  O_22
REMARK                            x       y       z     vdW  Elec       q    Type
REMARK                         _______ _______ _______ _____ _____    ______ ____
ROOT
ATOM      1  C   UNL     1      32.852 -13.300 -23.913  0.00  0.00    +0.153 C 
ENDROOT
BRANCH   1   2
ATOM      2  C   UNL     1      33.610 -14.479 -23.344  0.00  0.00    +0.006 C 
ATOM      3  C   UNL     1      33.887 -14.536 -21.979  0.00  0.00    -0.000 C 
ATOM      4  C   UNL     1      34.031 -15.509 -24.186  0.00  0.00    -0.000 C 
ATOM      5  C   UNL     1      34.586 -15.623 -21.454  0.00  0.00    +0.024 C 
ATOM      6  C   UNL     1      34.731 -16.596 -23.660  0.00  0.00    +0.024 C 
ATOM      7  C   UNL     1      35.007 -16.654 -22.294  0.00  0.00    +0.143 C 
BRANCH   7  10
ATOM      8  O   UNL     1      36.419 -18.460 -22.527  0.00  0.00    -0.126 OA
ATOM      9  O   UNL     1      35.622 -18.010 -20.532  0.00  0.00    -0.126 OA
ATOM     10  N   UNL     1      35.717 -17.761 -21.759  0.00  0.00    +0.058 N 
ENDBRANCH   7  10
ENDBRANCH   1   2
BRANCH   1  11
ATOM     11  O   UNL     1      32.011 -12.800 -22.869  0.00  0.00    -0.378 OA
ATOM     12  H   UNL     1      32.558 -12.520 -22.119  0.00  0.00    +0.211 HD
ENDBRANCH   1  11
BRANCH   1  13
ATOM     13  CA  UNL     1      33.761 -12.163 -24.430  0.00  0.00    +0.132 C 
BRANCH  13  15
ATOM     14  O   UNL     1      35.325  -9.763 -24.235  0.00  0.00    -0.273 OA
ATOM     15  N   UNL     1      33.346 -10.904 -23.840  0.00  0.00    -0.300 N 
ATOM     16  C   UNL     1      34.176  -9.799 -23.794  0.00  0.00    +0.244 C 
ATOM     17  H   UNL     1      32.440 -10.834 -23.459  0.00  0.00    +0.150 HD
BRANCH  16  20
ATOM     18 BR   UNL     1      34.103  -7.031 -24.080  0.00  0.00    -0.059 Br
ATOM     19 BR   UNL     1      31.601  -8.907 -23.228  0.00  0.00    -0.059 Br
ATOM     20  C   UNL     1      33.513  -8.614 -23.135  0.00  0.00    +0.189 C 
ENDBRANCH  16  20
ENDBRANCH  13  15
BRANCH  13  21
ATOM     21  C   UNL     1      33.789 -12.026 -25.956  0.00  0.00    +0.159 C 
BRANCH  21  22
ATOM     22  O   UNL     1      33.199 -13.152 -26.593  0.00  0.00    -0.380 OA
ATOM     23  H   UNL     1      32.367 -13.378 -26.147  0.00  0.00    +0.211 HD
ENDBRANCH  21  22
ENDBRANCH  13  21
ENDBRANCH   1  13
TORSDOF 8
ENDMDL
MODEL 9
REMARK VINA RESULT:      -7.6      5.830      9.763
REMARK  Name = 25113101
REMARK  8 active torsions:
REMARK  status: ('A' for Active; 'I' for Inactive)
REMARK    1  A    between atoms: C_1  and  C_2
REMARK    2  A    between atoms: C_1  and  O_11
REMARK    3  A    between atoms: C_1  and  CA_13
REMARK    4  A    between atoms: C_7  and  N_10
REMARK    5  A    between atoms: CA_13  and  N_15
REMARK    6  A    between atoms: CA_13  and  C_21
REMARK    7  A    between atoms: C_16  and  C_20
REMARK    8  A    between atoms: C_21  and  O_22
REMARK                            x       y       z     vdW  Elec       q    Type
REMARK                         _______ _______ _______ _____ _____    ______ ____
ROOT
ATOM      1  C   UNL     1      34.282 -10.340 -25.020  0.00  0.00    +0.153 C 
ENDROOT
BRANCH   1   2
ATOM      2  C   UNL     1      33.766  -9.497 -23.876  0.00  0.00    +0.006 C 
ATOM      3  C   UNL     1      32.646  -9.910 -23.155  0.00  0.00    -0.000 C 
ATOM      4  C   UNL     1      34.411  -8.306 -23.541  0.00  0.00    -0.000 C 
ATOM      5  C   UNL     1      32.170  -9.133 -22.100  0.00  0.00    +0.024 C 
ATOM      6  C   UNL     1      33.935  -7.528 -22.485  0.00  0.00    +0.024 C 
ATOM      7  C   UNL     1      32.815  -7.942 -21.763  0.00  0.00    +0.143 C 
BRANCH   7  10
ATOM      8  O   UNL     1      32.523  -7.543 -19.512  0.00  0.00    -0.126 OA
ATOM      9  O   UNL     1      31.726  -6.082 -20.943  0.00  0.00    -0.126 OA
ATOM     10  N   UNL     1      32.331  -7.152 -20.688  0.00  0.00    +0.058 N 
ENDBRANCH   7  10
ENDBRANCH   1   2
BRANCH   1  11
ATOM     11  O   UNL     1      35.693 -10.484 -24.832  0.00  0.00    -0.378 OA
ATOM     12  H   UNL     1      35.905 -11.417 -24.672  0.00  0.00    +0.211 HD
ENDBRANCH   1  11
BRANCH   1  13
ATOM     13  CA  UNL     1      33.631 -11.737 -25.110  0.00  0.00    +0.132 C 
BRANCH  13  15
ATOM     14  O   UNL     1      32.280 -13.692 -23.498  0.00  0.00    -0.273 OA
ATOM     15  N   UNL     1      34.235 -12.619 -24.128  0.00  0.00    -0.300 N 
ATOM     16  C   UNL     1      33.496 -13.533 -23.399  0.00  0.00    +0.244 C 
ATOM     17  H   UNL     1      35.207 -12.565 -23.977  0.00  0.00    +0.150 HD
BRANCH  16  20
ATOM     18 BR   UNL     1      33.304 -14.637 -20.851  0.00  0.00    -0.059 Br
ATOM     19 BR   UNL     1      34.860 -15.959 -23.368  0.00  0.00    -0.059 Br
ATOM     20  C   UNL     1      34.354 -14.331 -22.449  0.00  0.00    +0.189 C 
ENDBRANCH  16  20
ENDBRANCH  13  15
BRANCH  13  21
ATOM     21  C   UNL     1      33.718 -12.384 -26.497  0.00  0.00    +0.159 C 
BRANCH  21  22
ATOM     22  O   UNL     1      32.887 -13.534 -26.591  0.00  0.00    -0.380 OA
ATOM     23  H   UNL     1      33.427 -14.306 -26.820  0.00  0.00    +0.211 HD
ENDBRANCH  21  22
ENDBRANCH  13  21
ENDBRANCH   1  13
TORSDOF 8
ENDMDL
