MODEL 1
REMARK VINA RESULT:      -9.0      0.000      0.000
REMARK  Name = 3102
REMARK  2 active torsions:
REMARK  status: ('A' for Active; 'I' for Inactive)
REMARK    1  A    between atoms: C_2  and  C_3
REMARK    2  A    between atoms: C_2  and  C_9
REMARK                            x       y       z     vdW  Elec       q    Type
REMARK                         _______ _______ _______ _____ _____    ______ ____
ROOT
ATOM      1  O   UNL     1      37.040 -18.774 -21.364  0.00  0.00    -0.287 OA
ATOM      2  C   UNL     1      35.851 -18.951 -21.669  0.00  0.00    +0.196 C 
ENDROOT
BRANCH   2   3
ATOM      3  C   UNL     1      35.016 -19.841 -20.878  0.00  0.00    +0.039 C 
ATOM      4  C   UNL     1      33.637 -19.638 -20.822  0.00  0.00    +0.003 C 
ATOM      5  C   UNL     1      35.595 -20.898 -20.176  0.00  0.00    +0.003 C 
ATOM      6  C   UNL     1      32.837 -20.492 -20.063  0.00  0.00    +0.000 C 
ATOM      7  C   UNL     1      34.794 -21.752 -19.417  0.00  0.00    +0.000 C 
ATOM      8  C   UNL     1      33.415 -21.549 -19.361  0.00  0.00    +0.000 C 
ENDBRANCH   2   3
BRANCH   2   9
ATOM      9  C   UNL     1      35.333 -18.219 -22.865  0.00  0.00    +0.039 C 
ATOM     10  C   UNL     1      35.263 -16.847 -22.816  0.00  0.00    +0.003 C 
ATOM     11  C   UNL     1      34.948 -18.948 -23.965  0.00  0.00    +0.003 C 
ATOM     12  C   UNL     1      34.779 -16.164 -23.932  0.00  0.00    +0.000 C 
ATOM     13  C   UNL     1      34.465 -18.264 -25.082  0.00  0.00    +0.000 C 
ATOM     14  C   UNL     1      34.380 -16.873 -25.065  0.00  0.00    +0.000 C 
ENDBRANCH   2   9
TORSDOF 2
ENDMDL
MODEL 2
REMARK VINA RESULT:      -9.0      0.041      1.292
REMARK  Name = 3102
REMARK  2 active torsions:
REMARK  status: ('A' for Active; 'I' for Inactive)
REMARK    1  A    between atoms: C_2  and  C_3
REMARK    2  A    between atoms: C_2  and  C_9
REMARK                            x       y       z     vdW  Elec       q    Type
REMARK                         _______ _______ _______ _____ _____    ______ ____
ROOT
ATOM      1  O   UNL     1      37.021 -18.729 -21.387  0.00  0.00    -0.287 OA
ATOM      2  C   UNL     1      35.835 -18.921 -21.693  0.00  0.00    +0.196 C 
ENDROOT
BRANCH   2   3
ATOM      3  C   UNL     1      35.009 -19.816 -20.898  0.00  0.00    +0.039 C 
ATOM      4  C   UNL     1      35.596 -20.871 -20.200  0.00  0.00    +0.003 C 
ATOM      5  C   UNL     1      33.630 -19.619 -20.834  0.00  0.00    +0.003 C 
ATOM      6  C   UNL     1      34.804 -21.729 -19.438  0.00  0.00    +0.000 C 
ATOM      7  C   UNL     1      32.838 -20.477 -20.071  0.00  0.00    +0.000 C 
ATOM      8  C   UNL     1      33.424 -21.532 -19.374  0.00  0.00    +0.000 C 
ENDBRANCH   2   3
BRANCH   2   9
ATOM      9  C   UNL     1      35.311 -18.202 -22.894  0.00  0.00    +0.039 C 
ATOM     10  C   UNL     1      35.218 -16.831 -22.850  0.00  0.00    +0.003 C 
ATOM     11  C   UNL     1      34.943 -18.941 -23.994  0.00  0.00    +0.003 C 
ATOM     12  C   UNL     1      34.729 -16.160 -23.971  0.00  0.00    +0.000 C 
ATOM     13  C   UNL     1      34.455 -18.270 -25.115  0.00  0.00    +0.000 C 
ATOM     14  C   UNL     1      34.347 -16.880 -25.104  0.00  0.00    +0.000 C 
ENDBRANCH   2   9
TORSDOF 2
ENDMDL
MODEL 3
REMARK VINA RESULT:      -9.0      0.060      5.063
REMARK  Name = 3102
REMARK  2 active torsions:
REMARK  status: ('A' for Active; 'I' for Inactive)
REMARK    1  A    between atoms: C_2  and  C_3
REMARK    2  A    between atoms: C_2  and  C_9
REMARK                            x       y       z     vdW  Elec       q    Type
REMARK                         _______ _______ _______ _____ _____    ______ ____
ROOT
ATOM      1  O   UNL     1      37.034 -18.760 -21.369  0.00  0.00    -0.287 OA
ATOM      2  C   UNL     1      35.849 -18.901 -21.711  0.00  0.00    +0.196 C 
ENDROOT
BRANCH   2   3
ATOM      3  C   UNL     1      35.329 -18.186 -22.865  0.00  0.00    +0.039 C 
ATOM      4  C   UNL     1      34.948 -18.889 -24.008  0.00  0.00    +0.003 C 
ATOM      5  C   UNL     1      35.211 -16.797 -22.829  0.00  0.00    +0.003 C 
ATOM      6  C   UNL     1      34.449 -18.203 -25.114  0.00  0.00    +0.000 C 
ATOM      7  C   UNL     1      34.712 -16.111 -23.936  0.00  0.00    +0.000 C 
ATOM      8  C   UNL     1      34.331 -16.813 -25.079  0.00  0.00    +0.000 C 
ENDBRANCH   2   3
BRANCH   2   9
ATOM      9  C   UNL     1      35.005 -19.824 -20.892  0.00  0.00    +0.039 C 
ATOM     10  C   UNL     1      33.650 -19.598 -20.836  0.00  0.00    +0.003 C 
ATOM     11  C   UNL     1      35.618 -20.860 -20.229  0.00  0.00    +0.003 C 
ATOM     12  C   UNL     1      32.862 -20.459 -20.072  0.00  0.00    +0.000 C 
ATOM     13  C   UNL     1      34.830 -21.722 -19.466  0.00  0.00    +0.000 C 
ATOM     14  C   UNL     1      33.452 -21.521 -19.386  0.00  0.00    +0.000 C 
ENDBRANCH   2   9
TORSDOF 2
ENDMDL
MODEL 4
REMARK VINA RESULT:      -8.9      0.825      5.076
REMARK  Name = 3102
REMARK  2 active torsions:
REMARK  status: ('A' for Active; 'I' for Inactive)
REMARK    1  A    between atoms: C_2  and  C_3
REMARK    2  A    between atoms: C_2  and  C_9
REMARK                            x       y       z     vdW  Elec       q    Type
REMARK                         _______ _______ _______ _____ _____    ______ ____
ROOT
ATOM      1  O   UNL     1      35.642 -17.584 -20.500  0.00  0.00    -0.287 OA
ATOM      2  C   UNL     1      35.132 -18.451 -21.226  0.00  0.00    +0.196 C 
ENDROOT
BRANCH   2   3
ATOM      3  C   UNL     1      34.908 -18.186 -22.638  0.00  0.00    +0.039 C 
ATOM      4  C   UNL     1      34.810 -16.870 -23.093  0.00  0.00    +0.003 C 
ATOM      5  C   UNL     1      34.792 -19.245 -23.537  0.00  0.00    +0.003 C 
ATOM      6  C   UNL     1      34.595 -16.616 -24.447  0.00  0.00    +0.000 C 
ATOM      7  C   UNL     1      34.577 -18.990 -24.891  0.00  0.00    +0.000 C 
ATOM      8  C   UNL     1      34.478 -17.676 -25.346  0.00  0.00    +0.000 C 
ENDBRANCH   2   3
BRANCH   2   9
ATOM      9  C   UNL     1      34.770 -19.753 -20.588  0.00  0.00    +0.039 C 
ATOM     10  C   UNL     1      33.439 -20.057 -20.424  0.00  0.00    +0.003 C 
ATOM     11  C   UNL     1      35.782 -20.595 -20.191  0.00  0.00    +0.003 C 
ATOM     12  C   UNL     1      33.100 -21.272 -19.829  0.00  0.00    +0.000 C 
ATOM     13  C   UNL     1      35.444 -21.811 -19.597  0.00  0.00    +0.000 C 
ATOM     14  C   UNL     1      34.103 -22.149 -19.415  0.00  0.00    +0.000 C 
ENDBRANCH   2   9
TORSDOF 2
ENDMDL
MODEL 5
REMARK VINA RESULT:      -8.8      1.277      1.920
REMARK  Name = 3102
REMARK  2 active torsions:
REMARK  status: ('A' for Active; 'I' for Inactive)
REMARK    1  A    between atoms: C_2  and  C_3
REMARK    2  A    between atoms: C_2  and  C_9
REMARK                            x       y       z     vdW  Elec       q    Type
REMARK                         _______ _______ _______ _____ _____    ______ ____
ROOT
ATOM      1  O   UNL     1      36.883 -18.580 -21.998  0.00  0.00    -0.287 OA
ATOM      2  C   UNL     1      35.730 -18.351 -21.601  0.00  0.00    +0.196 C 
ENDROOT
BRANCH   2   3
ATOM      3  C   UNL     1      34.966 -19.390 -20.930  0.00  0.00    +0.039 C 
ATOM      4  C   UNL     1      33.571 -19.355 -20.953  0.00  0.00    +0.003 C 
ATOM      5  C   UNL     1      35.626 -20.421 -20.263  0.00  0.00    +0.003 C 
ATOM      6  C   UNL     1      32.838 -20.351 -20.309  0.00  0.00    +0.000 C 
ATOM      7  C   UNL     1      34.892 -21.418 -19.620  0.00  0.00    +0.000 C 
ATOM      8  C   UNL     1      33.499 -21.383 -19.643  0.00  0.00    +0.000 C 
ENDBRANCH   2   3
BRANCH   2   9
ATOM      9  C   UNL     1      35.181 -16.982 -21.843  0.00  0.00    +0.039 C 
ATOM     10  C   UNL     1      34.805 -16.223 -20.760  0.00  0.00    +0.003 C 
ATOM     11  C   UNL     1      35.075 -16.537 -23.139  0.00  0.00    +0.003 C 
ATOM     12  C   UNL     1      34.293 -14.946 -20.986  0.00  0.00    +0.000 C 
ATOM     13  C   UNL     1      34.564 -15.259 -23.365  0.00  0.00    +0.000 C 
ATOM     14  C   UNL     1      34.171 -14.463 -22.289  0.00  0.00    +0.000 C 
ENDBRANCH   2   9
TORSDOF 2
ENDMDL
MODEL 6
REMARK VINA RESULT:      -8.6      1.497      2.342
REMARK  Name = 3102
REMARK  2 active torsions:
REMARK  status: ('A' for Active; 'I' for Inactive)
REMARK    1  A    between atoms: C_2  and  C_3
REMARK    2  A    between atoms: C_2  and  C_9
REMARK                            x       y       z     vdW  Elec       q    Type
REMARK                         _______ _______ _______ _____ _____    ______ ____
ROOT
ATOM      1  O   UNL     1      36.005 -18.673 -23.211  0.00  0.00    -0.287 OA
ATOM      2  C   UNL     1      35.275 -18.361 -22.258  0.00  0.00    +0.196 C 
ENDROOT
BRANCH   2   3
ATOM      3  C   UNL     1      34.804 -19.378 -21.333  0.00  0.00    +0.039 C 
ATOM      4  C   UNL     1      33.435 -19.562 -21.135  0.00  0.00    +0.003 C 
ATOM      5  C   UNL     1      35.721 -20.170 -20.642  0.00  0.00    +0.003 C 
ATOM      6  C   UNL     1      32.984 -20.537 -20.247  0.00  0.00    +0.000 C 
ATOM      7  C   UNL     1      35.268 -21.146 -19.754  0.00  0.00    +0.000 C 
ATOM      8  C   UNL     1      33.900 -21.330 -19.556  0.00  0.00    +0.000 C 
ENDBRANCH   2   3
BRANCH   2   9
ATOM      9  C   UNL     1      34.913 -16.918 -22.115  0.00  0.00    +0.039 C 
ATOM     10  C   UNL     1      34.719 -16.173 -23.255  0.00  0.00    +0.003 C 
ATOM     11  C   UNL     1      34.788 -16.394 -20.850  0.00  0.00    +0.003 C 
ATOM     12  C   UNL     1      34.381 -14.826 -23.121  0.00  0.00    +0.000 C 
ATOM     13  C   UNL     1      34.450 -15.047 -20.717  0.00  0.00    +0.000 C 
ATOM     14  C   UNL     1      34.247 -14.263 -21.851  0.00  0.00    +0.000 C 
ENDBRANCH   2   9
TORSDOF 2
ENDMDL
MODEL 7
REMARK VINA RESULT:      -8.6      1.516      5.161
REMARK  Name = 3102
REMARK  2 active torsions:
REMARK  status: ('A' for Active; 'I' for Inactive)
REMARK    1  A    between atoms: C_2  and  C_3
REMARK    2  A    between atoms: C_2  and  C_9
REMARK                            x       y       z     vdW  Elec       q    Type
REMARK                         _______ _______ _______ _____ _____    ______ ____
ROOT
ATOM      1  O   UNL     1      35.331 -18.981 -23.552  0.00  0.00    -0.287 OA
ATOM      2  C   UNL     1      34.914 -18.550 -22.466  0.00  0.00    +0.196 C 
ENDROOT
BRANCH   2   3
ATOM      3  C   UNL     1      34.729 -17.122 -22.266  0.00  0.00    +0.039 C 
ATOM      4  C   UNL     1      34.703 -16.595 -20.975  0.00  0.00    +0.003 C 
ATOM      5  C   UNL     1      34.576 -16.279 -23.367  0.00  0.00    +0.003 C 
ATOM      6  C   UNL     1      34.525 -15.225 -20.784  0.00  0.00    +0.000 C 
ATOM      7  C   UNL     1      34.398 -14.909 -23.175  0.00  0.00    +0.000 C 
ATOM      8  C   UNL     1      34.372 -14.382 -21.884  0.00  0.00    +0.000 C 
ENDBRANCH   2   3
BRANCH   2   9
ATOM      9  C   UNL     1      34.621 -19.553 -21.397  0.00  0.00    +0.039 C 
ATOM     10  C   UNL     1      33.309 -19.788 -21.059  0.00  0.00    +0.003 C 
ATOM     11  C   UNL     1      35.674 -20.200 -20.796  0.00  0.00    +0.003 C 
ATOM     12  C   UNL     1      33.035 -20.724 -20.062  0.00  0.00    +0.000 C 
ATOM     13  C   UNL     1      35.400 -21.137 -19.799  0.00  0.00    +0.000 C 
ATOM     14  C   UNL     1      34.081 -21.399 -19.431  0.00  0.00    +0.000 C 
ENDBRANCH   2   9
TORSDOF 2
ENDMDL
MODEL 8
REMARK VINA RESULT:      -8.5      3.163      5.209
REMARK  Name = 3102
REMARK  2 active torsions:
REMARK  status: ('A' for Active; 'I' for Inactive)
REMARK    1  A    between atoms: C_2  and  C_3
REMARK    2  A    between atoms: C_2  and  C_9
REMARK                            x       y       z     vdW  Elec       q    Type
REMARK                         _______ _______ _______ _____ _____    ______ ____
ROOT
ATOM      1  O   UNL     1      33.877 -24.145 -19.476  0.00  0.00    -0.287 OA
ATOM      2  C   UNL     1      33.831 -23.095 -18.817  0.00  0.00    +0.196 C 
ENDROOT
BRANCH   2   3
ATOM      3  C   UNL     1      33.435 -23.126 -17.418  0.00  0.00    +0.039 C 
ATOM      4  C   UNL     1      32.083 -23.079 -17.074  0.00  0.00    +0.003 C 
ATOM      5  C   UNL     1      34.406 -23.203 -16.420  0.00  0.00    +0.003 C 
ATOM      6  C   UNL     1      31.704 -23.109 -15.732  0.00  0.00    +0.000 C 
ATOM      7  C   UNL     1      34.026 -23.233 -15.078  0.00  0.00    +0.000 C 
ATOM      8  C   UNL     1      32.675 -23.186 -14.734  0.00  0.00    +0.000 C 
ENDBRANCH   2   3
BRANCH   2   9
ATOM      9  C   UNL     1      34.195 -21.827 -19.518  0.00  0.00    +0.039 C 
ATOM     10  C   UNL     1      35.526 -21.526 -19.684  0.00  0.00    +0.003 C 
ATOM     11  C   UNL     1      33.183 -21.013 -19.970  0.00  0.00    +0.003 C 
ATOM     12  C   UNL     1      35.866 -20.342 -20.339  0.00  0.00    +0.000 C 
ATOM     13  C   UNL     1      33.523 -19.830 -20.626  0.00  0.00    +0.000 C 
ATOM     14  C   UNL     1      34.864 -19.493 -20.810  0.00  0.00    +0.000 C 
ENDBRANCH   2   9
TORSDOF 2
ENDMDL
MODEL 9
REMARK VINA RESULT:      -8.5      3.108      7.156
REMARK  Name = 3102
REMARK  2 active torsions:
REMARK  status: ('A' for Active; 'I' for Inactive)
REMARK    1  A    between atoms: C_2  and  C_3
REMARK    2  A    between atoms: C_2  and  C_9
REMARK                            x       y       z     vdW  Elec       q    Type
REMARK                         _______ _______ _______ _____ _____    ______ ____
ROOT
ATOM      1  O   UNL     1      33.902 -24.113 -19.489  0.00  0.00    -0.287 OA
ATOM      2  C   UNL     1      33.854 -23.035 -18.877  0.00  0.00    +0.196 C 
ENDROOT
BRANCH   2   3
ATOM      3  C   UNL     1      34.165 -21.790 -19.560  0.00  0.00    +0.039 C 
ATOM      4  C   UNL     1      35.495 -21.421 -19.767  0.00  0.00    +0.003 C 
ATOM      5  C   UNL     1      33.135 -20.964 -20.008  0.00  0.00    +0.003 C 
ATOM      6  C   UNL     1      35.794 -20.227 -20.422  0.00  0.00    +0.000 C 
ATOM      7  C   UNL     1      33.434 -19.769 -20.664  0.00  0.00    +0.000 C 
ATOM      8  C   UNL     1      34.763 -19.401 -20.870  0.00  0.00    +0.000 C 
ENDBRANCH   2   3
BRANCH   2   9
ATOM      9  C   UNL     1      33.467 -23.083 -17.434  0.00  0.00    +0.039 C 
ATOM     10  C   UNL     1      34.463 -23.142 -16.488  0.00  0.00    +0.003 C 
ATOM     11  C   UNL     1      32.131 -23.066 -17.111  0.00  0.00    +0.003 C 
ATOM     12  C   UNL     1      34.102 -23.186 -15.142  0.00  0.00    +0.000 C 
ATOM     13  C   UNL     1      31.770 -23.109 -15.765  0.00  0.00    +0.000 C 
ATOM     14  C   UNL     1      32.755 -23.170 -14.780  0.00  0.00    +0.000 C 
ENDBRANCH   2   9
TORSDOF 2
ENDMDL
