MODEL 1
REMARK VINA RESULT:     -10.8      0.000      0.000
REMARK  Name = 16046068
REMARK  5 active torsions:
REMARK  status: ('A' for Active; 'I' for Inactive)
REMARK    1  A    between atoms: C_1  and  C_8
REMARK    2  A    between atoms: C_6  and  O_19
REMARK    3  A    between atoms: C_10  and  C_16
REMARK    4  A    between atoms: O_19  and  C_20
REMARK    5  A    between atoms: C_20  and  C_22
REMARK                            x       y       z     vdW  Elec       q    Type
REMARK                         _______ _______ _______ _____ _____    ______ ____
ROOT
ATOM      1  C   UNL     1      33.764 -14.214 -22.634  0.00  0.00    -0.042 C 
ATOM      2  C   UNL     1      33.680 -14.331 -21.245  0.00  0.00    -0.003 C 
ATOM      3  C   UNL     1      34.412 -15.202 -23.376  0.00  0.00    -0.003 C 
ATOM      4  C   UNL     1      34.242 -15.434 -20.601  0.00  0.00    +0.037 C 
ATOM      5  C   UNL     1      34.974 -16.305 -22.732  0.00  0.00    +0.037 C 
ATOM      6  C   UNL     1      34.889 -16.420 -21.345  0.00  0.00    +0.139 C 
ENDROOT
BRANCH   1   8
ATOM      7  N   UNL     1      34.114 -12.286 -24.168  0.00  0.00    +0.395 N 
ATOM      8  C   UNL     1      33.157 -13.020 -23.330  0.00  0.00    -0.038 C 
ATOM      9  C   UNL     1      32.658 -11.940 -22.378  0.00  0.00    -0.019 C 
ATOM     10  C   UNL     1      33.549 -10.955 -24.389  0.00  0.00    +0.017 C 
ATOM     11  C   UNL     1      32.532 -10.721 -23.278  0.00  0.00    -0.014 C 
ATOM     12  H   UNL     1      34.240 -12.766 -25.059  0.00  0.00    -0.083 HD
ATOM     13  H   UNL     1      35.026 -12.226 -23.716  0.00  0.00    -0.083 HD
BRANCH  10  16
ATOM     14  O   UNL     1      34.702  -9.051 -23.533  0.00  0.00    -0.278 OA
ATOM     15  N   UNL     1      35.693 -10.259 -25.222  0.00  0.00    -0.330 N 
ATOM     16  C   UNL     1      34.690  -9.994 -24.319  0.00  0.00    +0.199 C 
ATOM     17  H   UNL     1      36.490  -9.682 -25.255  0.00  0.00    +0.145 HD
ATOM     18  H   UNL     1      35.614 -11.026 -25.834  0.00  0.00    +0.145 HD
ENDBRANCH  10  16
ENDBRANCH   1   8
BRANCH   6  19
ATOM     19  O   UNL     1      35.436 -17.496 -20.717  0.00  0.00    -0.471 OA
BRANCH  19  20
ATOM     20  C   UNL     1      35.504 -18.715 -21.455  0.00  0.00    +0.234 C 
BRANCH  20  22
ATOM     21  F   UNL     1      37.095 -20.700 -20.227  0.00  0.00    -0.204 F 
ATOM     22  C   UNL     1      34.925 -19.860 -20.693  0.00  0.00    +0.049 C 
ATOM     23  C   UNL     1      35.765 -20.808 -20.108  0.00  0.00    +0.140 C 
ATOM     24  C   UNL     1      33.541 -19.981 -20.567  0.00  0.00    +0.002 C 
ATOM     25  C   UNL     1      35.220 -21.877 -19.397  0.00  0.00    +0.029 C 
ATOM     26  C   UNL     1      32.997 -21.051 -19.855  0.00  0.00    -0.000 C 
ATOM     27  C   UNL     1      33.836 -21.999 -19.271  0.00  0.00    +0.002 C 
ENDBRANCH  20  22
ENDBRANCH  19  20
ENDBRANCH   6  19
TORSDOF 5
ENDMDL
MODEL 2
REMARK VINA RESULT:     -10.8      0.974      1.724
REMARK  Name = 16046068
REMARK  5 active torsions:
REMARK  status: ('A' for Active; 'I' for Inactive)
REMARK    1  A    between atoms: C_1  and  C_8
REMARK    2  A    between atoms: C_6  and  O_19
REMARK    3  A    between atoms: C_10  and  C_16
REMARK    4  A    between atoms: O_19  and  C_20
REMARK    5  A    between atoms: C_20  and  C_22
REMARK                            x       y       z     vdW  Elec       q    Type
REMARK                         _______ _______ _______ _____ _____    ______ ____
ROOT
ATOM      1  C   UNL     1      33.793 -14.234 -22.667  0.00  0.00    -0.042 C 
ATOM      2  C   UNL     1      34.466 -15.219 -23.393  0.00  0.00    -0.003 C 
ATOM      3  C   UNL     1      33.669 -14.356 -21.282  0.00  0.00    -0.003 C 
ATOM      4  C   UNL     1      35.013 -16.320 -22.735  0.00  0.00    +0.037 C 
ATOM      5  C   UNL     1      34.217 -15.457 -20.624  0.00  0.00    +0.037 C 
ATOM      6  C   UNL     1      34.888 -16.440 -21.352  0.00  0.00    +0.139 C 
ENDROOT
BRANCH   1   8
ATOM      7  N   UNL     1      34.160 -12.338 -24.238  0.00  0.00    +0.395 N 
ATOM      8  C   UNL     1      33.199 -13.042 -23.378  0.00  0.00    -0.038 C 
ATOM      9  C   UNL     1      32.727 -11.939 -22.440  0.00  0.00    -0.019 C 
ATOM     10  C   UNL     1      33.614 -11.002 -24.476  0.00  0.00    +0.017 C 
ATOM     11  C   UNL     1      32.612 -10.733 -23.359  0.00  0.00    -0.014 C 
ATOM     12  H   UNL     1      34.270 -12.835 -25.122  0.00  0.00    -0.083 HD
ATOM     13  H   UNL     1      35.077 -12.286 -23.795  0.00  0.00    -0.083 HD
BRANCH  10  16
ATOM     14  O   UNL     1      34.827  -9.130 -23.632  0.00  0.00    -0.278 OA
ATOM     15  N   UNL     1      35.735 -10.322 -25.378  0.00  0.00    -0.330 N 
ATOM     16  C   UNL     1      34.771 -10.059 -24.433  0.00  0.00    +0.199 C 
ATOM     17  H   UNL     1      36.539  -9.756 -25.431  0.00  0.00    +0.145 HD
ATOM     18  H   UNL     1      35.622 -11.077 -26.000  0.00  0.00    +0.145 HD
ENDBRANCH  10  16
ENDBRANCH   1   8
BRANCH   6  19
ATOM     19  O   UNL     1      35.424 -17.514 -20.710  0.00  0.00    -0.471 OA
BRANCH  19  20
ATOM     20  C   UNL     1      35.514 -18.732 -21.447  0.00  0.00    +0.234 C 
BRANCH  20  22
ATOM     21  F   UNL     1      32.786 -19.291 -20.969  0.00  0.00    -0.204 F 
ATOM     22  C   UNL     1      35.056 -19.903 -20.643  0.00  0.00    +0.049 C 
ATOM     23  C   UNL     1      33.693 -20.126 -20.444  0.00  0.00    +0.140 C 
ATOM     24  C   UNL     1      35.993 -20.776 -20.091  0.00  0.00    +0.002 C 
ATOM     25  C   UNL     1      33.268 -21.221 -19.692  0.00  0.00    +0.029 C 
ATOM     26  C   UNL     1      35.568 -21.871 -19.339  0.00  0.00    -0.000 C 
ATOM     27  C   UNL     1      34.205 -22.094 -19.140  0.00  0.00    +0.002 C 
ENDBRANCH  20  22
ENDBRANCH  19  20
ENDBRANCH   6  19
TORSDOF 5
ENDMDL
MODEL 3
REMARK VINA RESULT:     -10.8      3.842      6.512
REMARK  Name = 16046068
REMARK  5 active torsions:
REMARK  status: ('A' for Active; 'I' for Inactive)
REMARK    1  A    between atoms: C_1  and  C_8
REMARK    2  A    between atoms: C_6  and  O_19
REMARK    3  A    between atoms: C_10  and  C_16
REMARK    4  A    between atoms: O_19  and  C_20
REMARK    5  A    between atoms: C_20  and  C_22
REMARK                            x       y       z     vdW  Elec       q    Type
REMARK                         _______ _______ _______ _____ _____    ______ ____
ROOT
ATOM      1  C   UNL     1      34.852 -20.089 -20.636  0.00  0.00    -0.042 C 
ATOM      2  C   UNL     1      35.731 -20.999 -20.045  0.00  0.00    -0.003 C 
ATOM      3  C   UNL     1      33.476 -20.232 -20.447  0.00  0.00    -0.003 C 
ATOM      4  C   UNL     1      35.236 -22.045 -19.267  0.00  0.00    +0.037 C 
ATOM      5  C   UNL     1      32.980 -21.278 -19.669  0.00  0.00    +0.037 C 
ATOM      6  C   UNL     1      33.861 -22.185 -19.080  0.00  0.00    +0.139 C 
ENDROOT
BRANCH   1   8
ATOM      7  N   UNL     1      35.132 -17.630 -20.902  0.00  0.00    +0.395 N 
ATOM      8  C   UNL     1      35.387 -18.957 -21.479  0.00  0.00    -0.038 C 
ATOM      9  C   UNL     1      34.734 -18.850 -22.851  0.00  0.00    -0.019 C 
ATOM     10  C   UNL     1      35.268 -16.664 -21.991  0.00  0.00    +0.017 C 
ATOM     11  C   UNL     1      35.089 -17.439 -23.291  0.00  0.00    -0.014 C 
ATOM     12  H   UNL     1      35.812 -17.431 -20.168  0.00  0.00    -0.083 HD
ATOM     13  H   UNL     1      34.203 -17.585 -20.486  0.00  0.00    -0.083 HD
BRANCH  10  16
ATOM     14  O   UNL     1      33.387 -15.365 -22.672  0.00  0.00    -0.278 OA
ATOM     15  N   UNL     1      34.215 -15.056 -20.548  0.00  0.00    -0.330 N 
ATOM     16  C   UNL     1      34.194 -15.647 -21.790  0.00  0.00    +0.199 C 
ATOM     17  H   UNL     1      33.546 -14.372 -20.317  0.00  0.00    +0.145 HD
ATOM     18  H   UNL     1      34.898 -15.319 -19.890  0.00  0.00    +0.145 HD
ENDBRANCH  10  16
ENDBRANCH   1   8
BRANCH   6  19
ATOM     19  O   UNL     1      33.378 -23.206 -18.320  0.00  0.00    -0.471 OA
BRANCH  19  20
ATOM     20  C   UNL     1      33.770 -23.237 -16.949  0.00  0.00    +0.234 C 
BRANCH  20  22
ATOM     21  F   UNL     1      33.984 -23.722 -14.173  0.00  0.00    -0.204 F 
ATOM     22  C   UNL     1      32.591 -23.239 -16.034  0.00  0.00    +0.049 C 
ATOM     23  C   UNL     1      32.763 -23.484 -14.671  0.00  0.00    +0.140 C 
ATOM     24  C   UNL     1      31.315 -22.996 -16.543  0.00  0.00    +0.002 C 
ATOM     25  C   UNL     1      31.659 -23.487 -13.819  0.00  0.00    +0.029 C 
ATOM     26  C   UNL     1      30.212 -22.998 -15.690  0.00  0.00    -0.000 C 
ATOM     27  C   UNL     1      30.384 -23.244 -14.328  0.00  0.00    +0.002 C 
ENDBRANCH  20  22
ENDBRANCH  19  20
ENDBRANCH   6  19
TORSDOF 5
ENDMDL
MODEL 4
REMARK VINA RESULT:     -10.7      5.408      9.802
REMARK  Name = 16046068
REMARK  5 active torsions:
REMARK  status: ('A' for Active; 'I' for Inactive)
REMARK    1  A    between atoms: C_1  and  C_8
REMARK    2  A    between atoms: C_6  and  O_19
REMARK    3  A    between atoms: C_10  and  C_16
REMARK    4  A    between atoms: O_19  and  C_20
REMARK    5  A    between atoms: C_20  and  C_22
REMARK                            x       y       z     vdW  Elec       q    Type
REMARK                         _______ _______ _______ _____ _____    ______ ____
ROOT
ATOM      1  C   UNL     1      34.356 -22.029 -18.842  0.00  0.00    -0.042 C 
ATOM      2  C   UNL     1      33.524 -21.233 -19.632  0.00  0.00    -0.003 C 
ATOM      3  C   UNL     1      35.741 -21.870 -18.914  0.00  0.00    -0.003 C 
ATOM      4  C   UNL     1      34.076 -20.280 -20.488  0.00  0.00    +0.037 C 
ATOM      5  C   UNL     1      36.293 -20.917 -19.770  0.00  0.00    +0.037 C 
ATOM      6  C   UNL     1      35.460 -20.123 -20.558  0.00  0.00    +0.139 C 
ENDROOT
BRANCH   1   8
ATOM      7  N   UNL     1      32.303 -22.939 -17.768  0.00  0.00    +0.395 N 
ATOM      8  C   UNL     1      33.760 -23.061 -17.916  0.00  0.00    -0.038 C 
ATOM      9  C   UNL     1      34.247 -22.950 -16.476  0.00  0.00    -0.019 C 
ATOM     10  C   UNL     1      31.942 -23.651 -16.542  0.00  0.00    +0.017 C 
ATOM     11  C   UNL     1      33.210 -23.746 -15.700  0.00  0.00    -0.014 C 
ATOM     12  H   UNL     1      31.833 -23.359 -18.569  0.00  0.00    -0.083 HD
ATOM     13  H   UNL     1      32.021 -21.960 -17.720  0.00  0.00    -0.083 HD
BRANCH  10  16
ATOM     14  O   UNL     1      30.986 -22.458 -14.712  0.00  0.00    -0.278 OA
ATOM     15  N   UNL     1      29.798 -22.573 -16.679  0.00  0.00    -0.330 N 
ATOM     16  C   UNL     1      30.884 -22.834 -15.876  0.00  0.00    +0.199 C 
ATOM     17  H   UNL     1      29.046 -22.041 -16.331  0.00  0.00    +0.145 HD
ATOM     18  H   UNL     1      29.774 -22.916 -17.601  0.00  0.00    +0.145 HD
ENDBRANCH  10  16
ENDBRANCH   1   8
BRANCH   6  19
ATOM     19  O   UNL     1      35.997 -19.193 -21.393  0.00  0.00    -0.471 OA
BRANCH  19  20
ATOM     20  C   UNL     1      35.434 -17.882 -21.356  0.00  0.00    +0.234 C 
BRANCH  20  22
ATOM     21  F   UNL     1      34.803 -15.188 -21.927  0.00  0.00    -0.204 F 
ATOM     22  C   UNL     1      35.016 -17.419 -22.712  0.00  0.00    +0.049 C 
ATOM     23  C   UNL     1      34.719 -16.073 -22.930  0.00  0.00    +0.140 C 
ATOM     24  C   UNL     1      34.923 -18.333 -23.761  0.00  0.00    +0.002 C 
ATOM     25  C   UNL     1      34.327 -15.643 -24.198  0.00  0.00    +0.029 C 
ATOM     26  C   UNL     1      34.532 -17.902 -25.029  0.00  0.00    -0.000 C 
ATOM     27  C   UNL     1      34.234 -16.557 -25.247  0.00  0.00    +0.002 C 
ENDBRANCH  20  22
ENDBRANCH  19  20
ENDBRANCH   6  19
TORSDOF 5
ENDMDL
MODEL 5
REMARK VINA RESULT:     -10.6      1.634      2.140
REMARK  Name = 16046068
REMARK  5 active torsions:
REMARK  status: ('A' for Active; 'I' for Inactive)
REMARK    1  A    between atoms: C_1  and  C_8
REMARK    2  A    between atoms: C_6  and  O_19
REMARK    3  A    between atoms: C_10  and  C_16
REMARK    4  A    between atoms: O_19  and  C_20
REMARK    5  A    between atoms: C_20  and  C_22
REMARK                            x       y       z     vdW  Elec       q    Type
REMARK                         _______ _______ _______ _____ _____    ______ ____
ROOT
ATOM      1  C   UNL     1      32.862 -14.006 -21.653  0.00  0.00    -0.042 C 
ATOM      2  C   UNL     1      33.689 -14.235 -22.754  0.00  0.00    -0.003 C 
ATOM      3  C   UNL     1      32.937 -14.847 -20.541  0.00  0.00    -0.003 C 
ATOM      4  C   UNL     1      34.591 -15.300 -22.741  0.00  0.00    +0.037 C 
ATOM      5  C   UNL     1      33.839 -15.911 -20.528  0.00  0.00    +0.037 C 
ATOM      6  C   UNL     1      34.665 -16.138 -21.629  0.00  0.00    +0.139 C 
ENDROOT
BRANCH   1   8
ATOM      7  N   UNL     1      32.270 -11.776 -22.587  0.00  0.00    +0.395 N 
ATOM      8  C   UNL     1      31.886 -12.855 -21.667  0.00  0.00    -0.038 C 
ATOM      9  C   UNL     1      31.775 -12.126 -20.333  0.00  0.00    -0.019 C 
ATOM     10  C   UNL     1      31.535 -10.582 -22.168  0.00  0.00    +0.017 C 
ATOM     11  C   UNL     1      31.127 -10.805 -20.716  0.00  0.00    -0.014 C 
ATOM     12  H   UNL     1      32.019 -12.025 -23.543  0.00  0.00    -0.083 HD
ATOM     13  H   UNL     1      33.276 -11.615 -22.561  0.00  0.00    -0.083 HD
BRANCH  10  16
ATOM     14  O   UNL     1      33.208  -9.311 -23.297  0.00  0.00    -0.278 OA
ATOM     15  N   UNL     1      32.455  -8.557 -21.257  0.00  0.00    -0.330 N 
ATOM     16  C   UNL     1      32.477  -9.433 -22.317  0.00  0.00    +0.199 C 
ATOM     17  H   UNL     1      33.041  -7.766 -21.261  0.00  0.00    +0.145 HD
ATOM     18  H   UNL     1      31.853  -8.721 -20.496  0.00  0.00    +0.145 HD
ENDBRANCH  10  16
ENDBRANCH   1   8
BRANCH   6  19
ATOM     19  O   UNL     1      35.544 -17.176 -21.617  0.00  0.00    -0.471 OA
BRANCH  19  20
ATOM     20  C   UNL     1      35.139 -18.380 -22.266  0.00  0.00    +0.234 C 
BRANCH  20  22
ATOM     21  F   UNL     1      37.030 -19.859 -20.777  0.00  0.00    -0.204 F 
ATOM     22  C   UNL     1      34.751 -19.437 -21.287  0.00  0.00    +0.049 C 
ATOM     23  C   UNL     1      35.733 -20.132 -20.581  0.00  0.00    +0.140 C 
ATOM     24  C   UNL     1      33.403 -19.729 -21.078  0.00  0.00    +0.002 C 
ATOM     25  C   UNL     1      35.366 -21.119 -19.667  0.00  0.00    +0.029 C 
ATOM     26  C   UNL     1      33.037 -20.716 -20.164  0.00  0.00    -0.000 C 
ATOM     27  C   UNL     1      34.018 -21.412 -19.458  0.00  0.00    +0.002 C 
ENDBRANCH  20  22
ENDBRANCH  19  20
ENDBRANCH   6  19
TORSDOF 5
ENDMDL
MODEL 6
REMARK VINA RESULT:     -10.6      4.939      9.724
REMARK  Name = 16046068
REMARK  5 active torsions:
REMARK  status: ('A' for Active; 'I' for Inactive)
REMARK    1  A    between atoms: C_1  and  C_8
REMARK    2  A    between atoms: C_6  and  O_19
REMARK    3  A    between atoms: C_10  and  C_16
REMARK    4  A    between atoms: O_19  and  C_20
REMARK    5  A    between atoms: C_20  and  C_22
REMARK                            x       y       z     vdW  Elec       q    Type
REMARK                         _______ _______ _______ _____ _____    ______ ____
ROOT
ATOM      1  C   UNL     1      34.059 -21.552 -19.374  0.00  0.00    -0.042 C 
ATOM      2  C   UNL     1      32.982 -20.808 -19.862  0.00  0.00    -0.003 C 
ATOM      3  C   UNL     1      35.361 -21.218 -19.751  0.00  0.00    -0.003 C 
ATOM      4  C   UNL     1      33.209 -19.733 -20.722  0.00  0.00    +0.037 C 
ATOM      5  C   UNL     1      35.587 -20.144 -20.611  0.00  0.00    +0.037 C 
ATOM      6  C   UNL     1      34.510 -19.402 -21.098  0.00  0.00    +0.139 C 
ENDROOT
BRANCH   1   8
ATOM      7  N   UNL     1      32.440 -22.770 -17.928  0.00  0.00    +0.395 N 
ATOM      8  C   UNL     1      33.814 -22.715 -18.444  0.00  0.00    -0.038 C 
ATOM      9  C   UNL     1      34.644 -22.666 -17.167  0.00  0.00    -0.019 C 
ATOM     10  C   UNL     1      32.471 -23.615 -16.734  0.00  0.00    +0.017 C 
ATOM     11  C   UNL     1      33.916 -23.634 -16.247  0.00  0.00    -0.014 C 
ATOM     12  H   UNL     1      31.819 -23.175 -18.628  0.00  0.00    -0.083 HD
ATOM     13  H   UNL     1      32.095 -21.837 -17.708  0.00  0.00    -0.083 HD
BRANCH  10  16
ATOM     14  O   UNL     1      31.919 -22.682 -14.610  0.00  0.00    -0.278 OA
ATOM     15  N   UNL     1      30.275 -22.786 -16.217  0.00  0.00    -0.330 N 
ATOM     16  C   UNL     1      31.552 -22.979 -15.744  0.00  0.00    +0.199 C 
ATOM     17  H   UNL     1      29.594 -22.372 -15.638  0.00  0.00    +0.145 HD
ATOM     18  H   UNL     1      30.044 -23.059 -17.133  0.00  0.00    +0.145 HD
ENDBRANCH  10  16
ENDBRANCH   1   8
BRANCH   6  19
ATOM     19  O   UNL     1      34.730 -18.353 -21.936  0.00  0.00    -0.471 OA
BRANCH  19  20
ATOM     20  C   UNL     1      35.156 -17.126 -21.345  0.00  0.00    +0.234 C 
BRANCH  20  22
ATOM     21  F   UNL     1      35.366 -15.833 -23.848  0.00  0.00    -0.204 F 
ATOM     22  C   UNL     1      34.280 -15.985 -21.743  0.00  0.00    +0.049 C 
ATOM     23  C   UNL     1      34.433 -15.389 -22.994  0.00  0.00    +0.140 C 
ATOM     24  C   UNL     1      33.309 -15.514 -20.860  0.00  0.00    +0.002 C 
ATOM     25  C   UNL     1      33.614 -14.321 -23.363  0.00  0.00    +0.029 C 
ATOM     26  C   UNL     1      32.490 -14.447 -21.229  0.00  0.00    -0.000 C 
ATOM     27  C   UNL     1      32.642 -13.851 -22.480  0.00  0.00    +0.002 C 
ENDBRANCH  20  22
ENDBRANCH  19  20
ENDBRANCH   6  19
TORSDOF 5
ENDMDL
MODEL 7
REMARK VINA RESULT:     -10.6      3.676      6.252
REMARK  Name = 16046068
REMARK  5 active torsions:
REMARK  status: ('A' for Active; 'I' for Inactive)
REMARK    1  A    between atoms: C_1  and  C_8
REMARK    2  A    between atoms: C_6  and  O_19
REMARK    3  A    between atoms: C_10  and  C_16
REMARK    4  A    between atoms: O_19  and  C_20
REMARK    5  A    between atoms: C_20  and  C_22
REMARK                            x       y       z     vdW  Elec       q    Type
REMARK                         _______ _______ _______ _____ _____    ______ ____
ROOT
ATOM      1  C   UNL     1      35.419 -19.692 -20.908  0.00  0.00    -0.042 C 
ATOM      2  C   UNL     1      34.118 -20.132 -20.658  0.00  0.00    -0.003 C 
ATOM      3  C   UNL     1      36.491 -20.279 -20.233  0.00  0.00    -0.003 C 
ATOM      4  C   UNL     1      33.890 -21.157 -19.740  0.00  0.00    +0.037 C 
ATOM      5  C   UNL     1      36.264 -21.304 -19.315  0.00  0.00    +0.037 C 
ATOM      6  C   UNL     1      34.963 -21.742 -19.067  0.00  0.00    +0.139 C 
ENDROOT
BRANCH   1   8
ATOM      7  N   UNL     1      35.177 -17.274 -21.447  0.00  0.00    +0.395 N 
ATOM      8  C   UNL     1      35.666 -18.583 -21.901  0.00  0.00    -0.038 C 
ATOM      9  C   UNL     1      34.933 -18.767 -23.224  0.00  0.00    -0.019 C 
ATOM     10  C   UNL     1      35.054 -16.433 -22.637  0.00  0.00    +0.017 C 
ATOM     11  C   UNL     1      34.968 -17.375 -23.833  0.00  0.00    -0.014 C 
ATOM     12  H   UNL     1      35.839 -16.861 -20.791  0.00  0.00    -0.083 HD
ATOM     13  H   UNL     1      34.281 -17.365 -20.968  0.00  0.00    -0.083 HD
BRANCH  10  16
ATOM     14  O   UNL     1      33.385 -14.879 -23.335  0.00  0.00    -0.278 OA
ATOM     15  N   UNL     1      33.204 -15.805 -21.237  0.00  0.00    -0.330 N 
ATOM     16  C   UNL     1      33.806 -15.632 -22.461  0.00  0.00    +0.199 C 
ATOM     17  H   UNL     1      32.375 -15.320 -21.023  0.00  0.00    +0.145 HD
ATOM     18  H   UNL     1      33.602 -16.415 -20.575  0.00  0.00    +0.145 HD
ENDBRANCH  10  16
ENDBRANCH   1   8
BRANCH   6  19
ATOM     19  O   UNL     1      34.740 -22.742 -18.172  0.00  0.00    -0.471 OA
BRANCH  19  20
ATOM     20  C   UNL     1      33.385 -23.129 -17.953  0.00  0.00    +0.234 C 
BRANCH  20  22
ATOM     21  F   UNL     1      30.809 -22.769 -16.849  0.00  0.00    -0.204 F 
ATOM     22  C   UNL     1      33.090 -23.326 -16.503  0.00  0.00    +0.049 C 
ATOM     23  C   UNL     1      31.796 -23.134 -16.019  0.00  0.00    +0.140 C 
ATOM     24  C   UNL     1      34.112 -23.704 -15.632  0.00  0.00    +0.002 C 
ATOM     25  C   UNL     1      31.524 -23.318 -14.664  0.00  0.00    +0.029 C 
ATOM     26  C   UNL     1      33.839 -23.889 -14.276  0.00  0.00    -0.000 C 
ATOM     27  C   UNL     1      32.546 -23.696 -13.792  0.00  0.00    +0.002 C 
ENDBRANCH  20  22
ENDBRANCH  19  20
ENDBRANCH   6  19
TORSDOF 5
ENDMDL
MODEL 8
REMARK VINA RESULT:     -10.4      6.108     11.141
REMARK  Name = 16046068
REMARK  5 active torsions:
REMARK  status: ('A' for Active; 'I' for Inactive)
REMARK    1  A    between atoms: C_1  and  C_8
REMARK    2  A    between atoms: C_6  and  O_19
REMARK    3  A    between atoms: C_10  and  C_16
REMARK    4  A    between atoms: O_19  and  C_20
REMARK    5  A    between atoms: C_20  and  C_22
REMARK                            x       y       z     vdW  Elec       q    Type
REMARK                         _______ _______ _______ _____ _____    ______ ____
ROOT
ATOM      1  C   UNL     1      35.726 -22.398 -17.148  0.00  0.00    -0.042 C 
ATOM      2  C   UNL     1      36.800 -21.678 -17.676  0.00  0.00    -0.003 C 
ATOM      3  C   UNL     1      34.543 -22.515 -17.880  0.00  0.00    -0.003 C 
ATOM      4  C   UNL     1      36.691 -21.080 -18.932  0.00  0.00    +0.037 C 
ATOM      5  C   UNL     1      34.434 -21.918 -19.136  0.00  0.00    +0.037 C 
ATOM      6  C   UNL     1      35.508 -21.199 -19.661  0.00  0.00    +0.139 C 
ENDROOT
BRANCH   1   8
ATOM      7  N   UNL     1      36.903 -24.057 -15.715  0.00  0.00    +0.395 N 
ATOM      8  C   UNL     1      35.842 -23.044 -15.789  0.00  0.00    -0.038 C 
ATOM      9  C   UNL     1      34.605 -23.831 -15.375  0.00  0.00    -0.019 C 
ATOM     10  C   UNL     1      36.606 -24.895 -14.554  0.00  0.00    +0.017 C 
ATOM     11  C   UNL     1      35.123 -24.716 -14.251  0.00  0.00    -0.014 C 
ATOM     12  H   UNL     1      37.811 -23.607 -15.600  0.00  0.00    -0.083 HD
ATOM     13  H   UNL     1      36.938 -24.613 -16.569  0.00  0.00    -0.083 HD
BRANCH  10  16
ATOM     14  O   UNL     1      36.348 -26.871 -15.864  0.00  0.00    -0.278 OA
ATOM     15  N   UNL     1      37.923 -26.871 -14.187  0.00  0.00    -0.330 N 
ATOM     16  C   UNL     1      36.934 -26.297 -14.950  0.00  0.00    +0.199 C 
ATOM     17  H   UNL     1      38.212 -27.795 -14.369  0.00  0.00    +0.145 HD
ATOM     18  H   UNL     1      38.344 -26.359 -13.459  0.00  0.00    +0.145 HD
ENDBRANCH  10  16
ENDBRANCH   1   8
BRANCH   6  19
ATOM     19  O   UNL     1      35.403 -20.617 -20.886  0.00  0.00    -0.471 OA
BRANCH  19  20
ATOM     20  C   UNL     1      34.223 -19.859 -21.147  0.00  0.00    +0.234 C 
BRANCH  20  22
ATOM     21  F   UNL     1      34.861 -19.851 -23.899  0.00  0.00    -0.204 F 
ATOM     22  C   UNL     1      34.520 -18.609 -21.905  0.00  0.00    +0.049 C 
ATOM     23  C   UNL     1      34.828 -18.671 -23.264  0.00  0.00    +0.140 C 
ATOM     24  C   UNL     1      34.491 -17.376 -21.253  0.00  0.00    +0.002 C 
ATOM     25  C   UNL     1      35.106 -17.501 -23.970  0.00  0.00    +0.029 C 
ATOM     26  C   UNL     1      34.769 -16.207 -21.959  0.00  0.00    -0.000 C 
ATOM     27  C   UNL     1      35.077 -16.269 -23.318  0.00  0.00    +0.002 C 
ENDBRANCH  20  22
ENDBRANCH  19  20
ENDBRANCH   6  19
TORSDOF 5
ENDMDL
MODEL 9
REMARK VINA RESULT:     -10.3      1.591      1.967
REMARK  Name = 16046068
REMARK  5 active torsions:
REMARK  status: ('A' for Active; 'I' for Inactive)
REMARK    1  A    between atoms: C_1  and  C_8
REMARK    2  A    between atoms: C_6  and  O_19
REMARK    3  A    between atoms: C_10  and  C_16
REMARK    4  A    between atoms: O_19  and  C_20
REMARK    5  A    between atoms: C_20  and  C_22
REMARK                            x       y       z     vdW  Elec       q    Type
REMARK                         _______ _______ _______ _____ _____    ______ ____
ROOT
ATOM      1  C   UNL     1      32.871 -13.915 -22.150  0.00  0.00    -0.042 C 
ATOM      2  C   UNL     1      32.786 -14.613 -20.943  0.00  0.00    -0.003 C 
ATOM      3  C   UNL     1      33.730 -14.367 -23.153  0.00  0.00    -0.003 C 
ATOM      4  C   UNL     1      33.556 -15.758 -20.742  0.00  0.00    +0.037 C 
ATOM      5  C   UNL     1      34.500 -15.513 -22.952  0.00  0.00    +0.037 C 
ATOM      6  C   UNL     1      34.414 -16.208 -21.745  0.00  0.00    +0.139 C 
ENDROOT
BRANCH   1   8
ATOM      7  N   UNL     1      32.720 -11.650 -23.169  0.00  0.00    +0.395 N 
ATOM      8  C   UNL     1      32.039 -12.675 -22.368  0.00  0.00    -0.038 C 
ATOM      9  C   UNL     1      31.707 -11.924 -21.084  0.00  0.00    -0.019 C 
ATOM     10  C   UNL     1      32.030 -10.386 -22.911  0.00  0.00    +0.017 C 
ATOM     11  C   UNL     1      31.291 -10.551 -21.588  0.00  0.00    -0.014 C 
ATOM     12  H   UNL     1      32.664 -11.885 -24.160  0.00  0.00    -0.083 HD
ATOM     13  H   UNL     1      33.706 -11.586 -22.919  0.00  0.00    -0.083 HD
BRANCH  10  16
ATOM     14  O   UNL     1      33.027  -8.401 -22.041  0.00  0.00    -0.278 OA
ATOM     15  N   UNL     1      34.105  -9.507 -23.747  0.00  0.00    -0.330 N 
ATOM     16  C   UNL     1      33.089  -9.335 -22.837  0.00  0.00    +0.199 C 
ATOM     17  H   UNL     1      34.852  -8.866 -23.777  0.00  0.00    +0.145 HD
ATOM     18  H   UNL     1      34.087 -10.272 -24.366  0.00  0.00    +0.145 HD
ENDBRANCH  10  16
ENDBRANCH   1   8
BRANCH   6  19
ATOM     19  O   UNL     1      35.164 -17.325 -21.549  0.00  0.00    -0.471 OA
BRANCH  19  20
ATOM     20  C   UNL     1      34.638 -18.557 -22.041  0.00  0.00    +0.234 C 
BRANCH  20  22
ATOM     21  F   UNL     1      32.418 -19.957 -20.996  0.00  0.00    -0.204 F 
ATOM     22  C   UNL     1      34.772 -19.658 -21.043  0.00  0.00    +0.049 C 
ATOM     23  C   UNL     1      33.636 -20.312 -20.566  0.00  0.00    +0.140 C 
ATOM     24  C   UNL     1      36.036 -20.032 -20.587  0.00  0.00    +0.002 C 
ATOM     25  C   UNL     1      33.764 -21.340 -19.632  0.00  0.00    +0.029 C 
ATOM     26  C   UNL     1      36.164 -21.061 -19.654  0.00  0.00    -0.000 C 
ATOM     27  C   UNL     1      35.028 -21.714 -19.176  0.00  0.00    +0.002 C 
ENDBRANCH  20  22
ENDBRANCH  19  20
ENDBRANCH   6  19
TORSDOF 5
ENDMDL
