MODEL 1
REMARK VINA RESULT:      -5.3      0.000      0.000
REMARK  Name = 10713671
REMARK  3 active torsions:
REMARK  status: ('A' for Active; 'I' for Inactive)
REMARK    1  A    between atoms: CA_6  and  CB_23
REMARK    2  A    between atoms: C_8  and  C_27
REMARK    3  A    between atoms: C_27  and  O_28
REMARK                            x       y       z     vdW  Elec       q    Type
REMARK                         _______ _______ _______ _____ _____    ______ ____
ROOT
ATOM      1  O   VAL A   1      31.822 -14.882 -23.653  0.00  0.00    -0.273 OA
ATOM      2  O   UNK A   2      34.263 -18.619 -21.079  0.00  0.00    -0.475 OA
ATOM      3  O   UNK A   0      35.917 -15.637 -24.009  0.00  0.00    -0.275 OA
ATOM      4  N   VAL A   1      33.969 -15.366 -25.244  0.00  0.00    -0.298 N 
ATOM      5  N   UNK A   2      32.819 -12.932 -22.876  0.00  0.00    -0.295 N 
ATOM      6  CA  VAL A   1      33.707 -13.982 -24.872  0.00  0.00    +0.148 C 
ATOM      7  C   VAL A   1      32.685 -14.010 -23.742  0.00  0.00    +0.241 C 
ATOM      8  C   UNK A   2      31.989 -12.770 -21.689  0.00  0.00    +0.176 C 
ATOM      9  C   UNK A   2      32.709 -13.212 -20.407  0.00  0.00    +0.057 C 
ATOM     10  C   UNK A   0      35.060 -17.536 -25.207  0.00  0.00    +0.085 C 
ATOM     11  C   UNK A   0      34.985 -18.490 -24.014  0.00  0.00    +0.013 C 
ATOM     12  C   UNK A   0      35.044 -16.087 -24.749  0.00  0.00    +0.223 C 
ATOM     13  C   UNK A   0      33.559 -18.605 -23.461  0.00  0.00    +0.048 C 
ATOM     14  C   UNK A   2      33.112 -14.666 -20.441  0.00  0.00    -0.020 C 
ATOM     15  C   UNK A   0      33.507 -19.300 -22.092  0.00  0.00    +0.205 C 
ATOM     16  C   UNK A   2      32.143 -15.677 -20.387  0.00  0.00    -0.001 C 
ATOM     17  C   UNK A   2      34.457 -15.021 -20.606  0.00  0.00    -0.001 C 
ATOM     18  C   UNK A   2      33.836 -17.347 -20.801  0.00  0.00    +0.139 C 
ATOM     19  C   UNK A   2      32.502 -17.014 -20.563  0.00  0.00    +0.037 C 
ATOM     20  C   UNK A   2      34.819 -16.357 -20.771  0.00  0.00    +0.037 C 
ATOM     21  H   VAL A   1      33.355 -15.809 -25.875  0.00  0.00    +0.150 HD
ATOM     22  H   UNK A   2      33.501 -12.250 -23.072  0.00  0.00    +0.150 HD
ENDROOT
BRANCH   6  23
ATOM     23  CB  VAL A   1      33.168 -13.187 -26.051  0.00  0.00    +0.027 C 
ATOM     24  CG1 VAL A   1      33.855 -11.825 -26.148  0.00  0.00    +0.002 C 
ATOM     25  CG2 VAL A   1      33.342 -13.966 -27.356  0.00  0.00    +0.002 C 
ENDBRANCH   6  23
BRANCH   8  27
ATOM     26  O   UNK A   2      32.131 -10.468 -22.402  0.00  0.00    -0.248 OA
ATOM     27  C   UNK A   2      31.679 -11.309 -21.638  0.00  0.00    +0.332 C 
BRANCH  27  28
ATOM     28  O   UNK A   2      30.825 -11.036 -20.621  0.00  0.00    -0.479 OA
ATOM     29  H   UNK A   2      29.900 -11.039 -20.773  0.00  0.00    +0.295 HD
ENDBRANCH  27  28
ENDBRANCH   8  27
TORSDOF 3
ENDMDL
MODEL 2
REMARK VINA RESULT:      -5.3      8.462     11.266
REMARK  Name = 10713671
REMARK  3 active torsions:
REMARK  status: ('A' for Active; 'I' for Inactive)
REMARK    1  A    between atoms: CA_6  and  CB_23
REMARK    2  A    between atoms: C_8  and  C_27
REMARK    3  A    between atoms: C_27  and  O_28
REMARK                            x       y       z     vdW  Elec       q    Type
REMARK                         _______ _______ _______ _____ _____    ______ ____
ROOT
ATOM      1  O   VAL A   1      33.223 -24.466 -17.208  0.00  0.00    -0.273 OA
ATOM      2  O   UNK A   2      35.640 -24.815 -12.672  0.00  0.00    -0.475 OA
ATOM      3  O   UNK A   0      35.595 -21.417 -15.615  0.00  0.00    -0.275 OA
ATOM      4  N   VAL A   1      35.274 -22.713 -17.515  0.00  0.00    -0.298 N 
ATOM      5  N   UNK A   2      31.740 -22.701 -16.912  0.00  0.00    -0.295 N 
ATOM      6  CA  VAL A   1      33.933 -22.241 -17.835  0.00  0.00    +0.148 C 
ATOM      7  C   VAL A   1      32.955 -23.267 -17.278  0.00  0.00    +0.241 C 
ATOM      8  C   UNK A   2      30.665 -23.475 -16.304  0.00  0.00    +0.176 C 
ATOM      9  C   UNK A   2      30.604 -23.299 -14.781  0.00  0.00    +0.057 C 
ATOM     10  C   UNK A   0      37.317 -22.977 -16.229  0.00  0.00    +0.085 C 
ATOM     11  C   UNK A   0      37.376 -23.724 -14.895  0.00  0.00    +0.013 C 
ATOM     12  C   UNK A   0      35.979 -22.277 -16.405  0.00  0.00    +0.223 C 
ATOM     13  C   UNK A   0      36.608 -25.050 -14.946  0.00  0.00    +0.048 C 
ATOM     14  C   UNK A   2      31.876 -23.741 -14.096  0.00  0.00    -0.020 C 
ATOM     15  C   UNK A   0      36.388 -25.664 -13.557  0.00  0.00    +0.205 C 
ATOM     16  C   UNK A   2      32.225 -25.097 -14.044  0.00  0.00    -0.001 C 
ATOM     17  C   UNK A   2      32.760 -22.789 -13.572  0.00  0.00    -0.001 C 
ATOM     18  C   UNK A   2      34.368 -24.527 -13.091  0.00  0.00    +0.139 C 
ATOM     19  C   UNK A   2      33.465 -25.491 -13.542  0.00  0.00    +0.037 C 
ATOM     20  C   UNK A   2      33.995 -23.183 -13.059  0.00  0.00    +0.037 C 
ATOM     21  H   VAL A   1      35.697 -23.370 -18.114  0.00  0.00    +0.150 HD
ATOM     22  H   UNK A   2      31.599 -21.740 -17.069  0.00  0.00    +0.150 HD
ENDROOT
BRANCH   6  23
ATOM     23  CB  VAL A   1      33.744 -22.092 -19.335  0.00  0.00    +0.027 C 
ATOM     24  CG1 VAL A   1      32.911 -20.851 -19.658  0.00  0.00    +0.002 C 
ATOM     25  CG2 VAL A   1      35.096 -22.025 -20.049  0.00  0.00    +0.002 C 
ENDBRANCH   6  23
BRANCH   8  27
ATOM     26  O   UNK A   2      29.014 -21.804 -16.858  0.00  0.00    -0.248 OA
ATOM     27  C   UNK A   2      29.415 -22.955 -16.940  0.00  0.00    +0.332 C 
BRANCH  27  28
ATOM     28  O   UNK A   2      28.781 -23.938 -17.624  0.00  0.00    -0.479 OA
ATOM     29  H   UNK A   2      29.229 -24.399 -18.306  0.00  0.00    +0.295 HD
ENDBRANCH  27  28
ENDBRANCH   8  27
TORSDOF 3
ENDMDL
MODEL 3
REMARK VINA RESULT:      -4.7      9.920     12.723
REMARK  Name = 10713671
REMARK  3 active torsions:
REMARK  status: ('A' for Active; 'I' for Inactive)
REMARK    1  A    between atoms: CA_6  and  CB_23
REMARK    2  A    between atoms: C_8  and  C_27
REMARK    3  A    between atoms: C_27  and  O_28
REMARK                            x       y       z     vdW  Elec       q    Type
REMARK                         _______ _______ _______ _____ _____    ______ ____
ROOT
ATOM      1  O   VAL A   1      35.006 -25.119 -15.498  0.00  0.00    -0.273 OA
ATOM      2  O   UNK A   2      39.284 -24.670 -12.662  0.00  0.00    -0.475 OA
ATOM      3  O   UNK A   0      37.380 -21.681 -15.428  0.00  0.00    -0.275 OA
ATOM      4  N   VAL A   1      36.399 -23.226 -16.858  0.00  0.00    -0.298 N 
ATOM      5  N   UNK A   2      33.596 -23.485 -14.637  0.00  0.00    -0.295 N 
ATOM      6  CA  VAL A   1      35.012 -22.930 -16.525  0.00  0.00    +0.148 C 
ATOM      7  C   VAL A   1      34.566 -23.970 -15.505  0.00  0.00    +0.241 C 
ATOM      8  C   UNK A   2      33.053 -24.279 -13.543  0.00  0.00    +0.176 C 
ATOM      9  C   UNK A   2      33.687 -23.924 -12.191  0.00  0.00    +0.057 C 
ATOM     10  C   UNK A   0      38.821 -23.129 -16.694  0.00  0.00    +0.085 C 
ATOM     11  C   UNK A   0      39.603 -23.697 -15.508  0.00  0.00    +0.013 C 
ATOM     12  C   UNK A   0      37.470 -22.590 -16.250  0.00  0.00    +0.223 C 
ATOM     13  C   UNK A   0      39.100 -25.088 -15.103  0.00  0.00    +0.048 C 
ATOM     14  C   UNK A   2      35.179 -24.152 -12.173  0.00  0.00    -0.020 C 
ATOM     15  C   UNK A   0      39.645 -25.544 -13.743  0.00  0.00    +0.205 C 
ATOM     16  C   UNK A   2      35.704 -25.450 -12.211  0.00  0.00    -0.001 C 
ATOM     17  C   UNK A   2      36.058 -23.061 -12.196  0.00  0.00    -0.001 C 
ATOM     18  C   UNK A   2      37.937 -24.561 -12.438  0.00  0.00    +0.139 C 
ATOM     19  C   UNK A   2      37.078 -25.657 -12.340  0.00  0.00    +0.037 C 
ATOM     20  C   UNK A   2      37.432 -23.266 -12.314  0.00  0.00    +0.037 C 
ATOM     21  H   VAL A   1      36.583 -23.907 -17.545  0.00  0.00    +0.150 HD
ATOM     22  H   UNK A   2      33.261 -22.568 -14.767  0.00  0.00    +0.150 HD
ENDROOT
BRANCH   6  23
ATOM     23  CB  VAL A   1      34.125 -22.986 -17.757  0.00  0.00    +0.027 C 
ATOM     24  CG1 VAL A   1      32.668 -22.700 -17.393  0.00  0.00    +0.002 C 
ATOM     25  CG2 VAL A   1      34.610 -21.999 -18.821  0.00  0.00    +0.002 C 
ENDBRANCH   6  23
BRANCH   8  27
ATOM     26  O   UNK A   2      31.083 -22.977 -14.042  0.00  0.00    -0.248 OA
ATOM     27  C   UNK A   2      31.591 -23.966 -13.533  0.00  0.00    +0.332 C 
BRANCH  27  28
ATOM     28  O   UNK A   2      30.899 -24.930 -12.880  0.00  0.00    -0.479 OA
ATOM     29  H   UNK A   2      30.931 -25.816 -13.182  0.00  0.00    +0.295 HD
ENDBRANCH  27  28
ENDBRANCH   8  27
TORSDOF 3
ENDMDL
MODEL 4
REMARK VINA RESULT:      -4.6      9.001     12.307
REMARK  Name = 10713671
REMARK  3 active torsions:
REMARK  status: ('A' for Active; 'I' for Inactive)
REMARK    1  A    between atoms: CA_6  and  CB_23
REMARK    2  A    between atoms: C_8  and  C_27
REMARK    3  A    between atoms: C_27  and  O_28
REMARK                            x       y       z     vdW  Elec       q    Type
REMARK                         _______ _______ _______ _____ _____    ______ ____
ROOT
ATOM      1  O   VAL A   1      35.888 -22.018 -15.190  0.00  0.00    -0.273 OA
ATOM      2  O   UNK A   2      31.572 -24.445 -13.768  0.00  0.00    -0.475 OA
ATOM      3  O   UNK A   0      33.584 -24.345 -17.787  0.00  0.00    -0.275 OA
ATOM      4  N   VAL A   1      34.558 -22.250 -17.547  0.00  0.00    -0.298 N 
ATOM      5  N   UNK A   2      37.316 -23.744 -15.810  0.00  0.00    -0.295 N 
ATOM      6  CA  VAL A   1      35.945 -22.695 -17.511  0.00  0.00    +0.148 C 
ATOM      7  C   VAL A   1      36.351 -22.772 -16.045  0.00  0.00    +0.241 C 
ATOM      8  C   UNK A   2      37.823 -24.040 -14.476  0.00  0.00    +0.176 C 
ATOM      9  C   UNK A   2      37.174 -25.290 -13.866  0.00  0.00    +0.057 C 
ATOM     10  C   UNK A   0      32.136 -22.438 -17.575  0.00  0.00    +0.085 C 
ATOM     11  C   UNK A   0      31.322 -22.953 -16.386  0.00  0.00    +0.013 C 
ATOM     12  C   UNK A   0      33.490 -23.126 -17.650  0.00  0.00    +0.223 C 
ATOM     13  C   UNK A   0      31.790 -22.337 -15.062  0.00  0.00    +0.048 C 
ATOM     14  C   UNK A   2      35.677 -25.153 -13.724  0.00  0.00    -0.020 C 
ATOM     15  C   UNK A   0      31.211 -23.057 -13.836  0.00  0.00    +0.205 C 
ATOM     16  C   UNK A   2      35.127 -24.267 -12.789  0.00  0.00    -0.001 C 
ATOM     17  C   UNK A   2      34.821 -25.857 -14.581  0.00  0.00    -0.001 C 
ATOM     18  C   UNK A   2      32.917 -24.685 -13.665  0.00  0.00    +0.139 C 
ATOM     19  C   UNK A   2      33.751 -24.034 -12.756  0.00  0.00    +0.037 C 
ATOM     20  C   UNK A   2      33.445 -25.634 -14.541  0.00  0.00    +0.037 C 
ATOM     21  H   VAL A   1      34.372 -21.284 -17.494  0.00  0.00    +0.150 HD
ATOM     22  H   UNK A   2      37.671 -24.252 -16.574  0.00  0.00    +0.150 HD
ENDROOT
BRANCH   6  23
ATOM     23  CB  VAL A   1      36.852 -21.733 -18.260  0.00  0.00    +0.027 C 
ATOM     24  CG1 VAL A   1      36.110 -21.084 -19.429  0.00  0.00    +0.002 C 
ATOM     25  CG2 VAL A   1      37.402 -20.661 -17.317  0.00  0.00    +0.002 C 
ENDBRANCH   6  23
BRANCH   8  27
ATOM     26  O   UNK A   2      40.058 -24.657 -13.804  0.00  0.00    -0.248 OA
ATOM     27  C   UNK A   2      39.291 -24.254 -14.666  0.00  0.00    +0.332 C 
BRANCH  27  28
ATOM     28  O   UNK A   2      39.662 -23.936 -15.930  0.00  0.00    -0.479 OA
ATOM     29  H   UNK A   2      39.208 -24.311 -16.660  0.00  0.00    +0.295 HD
ENDBRANCH  27  28
ENDBRANCH   8  27
TORSDOF 3
ENDMDL
MODEL 5
REMARK VINA RESULT:      -4.5      3.423      5.320
REMARK  Name = 10713671
REMARK  3 active torsions:
REMARK  status: ('A' for Active; 'I' for Inactive)
REMARK    1  A    between atoms: CA_6  and  CB_23
REMARK    2  A    between atoms: C_8  and  C_27
REMARK    3  A    between atoms: C_27  and  O_28
REMARK                            x       y       z     vdW  Elec       q    Type
REMARK                         _______ _______ _______ _____ _____    ______ ____
ROOT
ATOM      1  O   VAL A   1      31.734  -9.955 -23.506  0.00  0.00    -0.273 OA
ATOM      2  O   UNK A   2      33.908 -14.150 -25.560  0.00  0.00    -0.475 OA
ATOM      3  O   UNK A   0      35.862 -10.442 -23.934  0.00  0.00    -0.275 OA
ATOM      4  N   VAL A   1      34.111  -8.990 -24.399  0.00  0.00    -0.298 N 
ATOM      5  N   UNK A   2      32.528  -9.932 -21.322  0.00  0.00    -0.295 N 
ATOM      6  CA  VAL A   1      33.743  -8.699 -23.019  0.00  0.00    +0.148 C 
ATOM      7  C   VAL A   1      32.566  -9.603 -22.671  0.00  0.00    +0.241 C 
ATOM      8  C   UNK A   2      31.526 -10.829 -20.760  0.00  0.00    +0.176 C 
ATOM      9  C   UNK A   2      32.063 -12.251 -20.551  0.00  0.00    +0.057 C 
ATOM     10  C   UNK A   0      35.267 -10.083 -26.234  0.00  0.00    +0.085 C 
ATOM     11  C   UNK A   0      35.052 -11.552 -26.603  0.00  0.00    +0.013 C 
ATOM     12  C   UNK A   0      35.127  -9.869 -24.736  0.00  0.00    +0.223 C 
ATOM     13  C   UNK A   0      33.565 -11.928 -26.615  0.00  0.00    +0.048 C 
ATOM     14  C   UNK A   2      32.523 -12.892 -21.838  0.00  0.00    -0.020 C 
ATOM     15  C   UNK A   0      33.337 -13.445 -26.674  0.00  0.00    +0.205 C 
ATOM     16  C   UNK A   2      31.597 -13.259 -22.823  0.00  0.00    -0.001 C 
ATOM     17  C   UNK A   2      33.890 -13.055 -22.095  0.00  0.00    -0.001 C 
ATOM     18  C   UNK A   2      33.396 -13.804 -24.338  0.00  0.00    +0.139 C 
ATOM     19  C   UNK A   2      32.029 -13.717 -24.069  0.00  0.00    +0.037 C 
ATOM     20  C   UNK A   2      34.324 -13.522 -23.335  0.00  0.00    +0.037 C 
ATOM     21  H   VAL A   1      33.615  -8.543 -25.123  0.00  0.00    +0.150 HD
ATOM     22  H   UNK A   2      33.205  -9.545 -20.721  0.00  0.00    +0.150 HD
ENDROOT
BRANCH   6  23
ATOM     23  CB  VAL A   1      33.355  -7.239 -22.849  0.00  0.00    +0.027 C 
ATOM     24  CG1 VAL A   1      33.032  -6.600 -24.200  0.00  0.00    +0.002 C 
ATOM     25  CG2 VAL A   1      32.165  -7.102 -21.897  0.00  0.00    +0.002 C 
ENDBRANCH   6  23
BRANCH   8  27
ATOM     26  O   UNK A   2      30.191 -10.533 -18.771  0.00  0.00    -0.248 OA
ATOM     27  C   UNK A   2      31.155 -10.211 -19.450  0.00  0.00    +0.332 C 
BRANCH  27  28
ATOM     28  O   UNK A   2      32.036  -9.238 -19.113  0.00  0.00    -0.479 OA
ATOM     29  H   UNK A   2      31.763  -8.341 -19.108  0.00  0.00    +0.295 HD
ENDBRANCH  27  28
ENDBRANCH   8  27
TORSDOF 3
ENDMDL
MODEL 6
REMARK VINA RESULT:      -4.4      3.818      8.808
REMARK  Name = 10713671
REMARK  3 active torsions:
REMARK  status: ('A' for Active; 'I' for Inactive)
REMARK    1  A    between atoms: CA_6  and  CB_23
REMARK    2  A    between atoms: C_8  and  C_27
REMARK    3  A    between atoms: C_27  and  O_28
REMARK                            x       y       z     vdW  Elec       q    Type
REMARK                         _______ _______ _______ _____ _____    ______ ____
ROOT
ATOM      1  O   VAL A   1      31.035 -10.069 -22.622  0.00  0.00    -0.273 OA
ATOM      2  O   UNK A   2      32.687  -5.346 -23.850  0.00  0.00    -0.475 OA
ATOM      3  O   UNK A   0      33.475  -7.758 -20.139  0.00  0.00    -0.275 OA
ATOM      4  N   VAL A   1      31.495  -8.970 -20.182  0.00  0.00    -0.298 N 
ATOM      5  N   UNK A   2      32.991 -11.312 -22.447  0.00  0.00    -0.295 N 
ATOM      6  CA  VAL A   1      32.084 -10.275 -20.453  0.00  0.00    +0.148 C 
ATOM      7  C   VAL A   1      31.966 -10.514 -21.953  0.00  0.00    +0.241 C 
ATOM      8  C   UNK A   2      33.121 -11.635 -23.862  0.00  0.00    +0.176 C 
ATOM      9  C   UNK A   2      34.172 -10.767 -24.567  0.00  0.00    +0.057 C 
ATOM     10  C   UNK A   0      31.407  -6.561 -19.884  0.00  0.00    +0.085 C 
ATOM     11  C   UNK A   0      31.624  -5.568 -21.027  0.00  0.00    +0.013 C 
ATOM     12  C   UNK A   0      32.248  -7.812 -20.079  0.00  0.00    +0.223 C 
ATOM     13  C   UNK A   0      30.858  -5.973 -22.292  0.00  0.00    +0.048 C 
ATOM     14  C   UNK A   2      33.844  -9.295 -24.503  0.00  0.00    -0.020 C 
ATOM     15  C   UNK A   0      31.297  -5.181 -23.532  0.00  0.00    +0.205 C 
ATOM     16  C   UNK A   2      32.759  -8.773 -25.220  0.00  0.00    -0.001 C 
ATOM     17  C   UNK A   2      34.575  -8.446 -23.662  0.00  0.00    -0.001 C 
ATOM     18  C   UNK A   2      33.059  -6.629 -24.152  0.00  0.00    +0.139 C 
ATOM     19  C   UNK A   2      32.368  -7.444 -25.049  0.00  0.00    +0.037 C 
ATOM     20  C   UNK A   2      34.193  -7.115 -23.498  0.00  0.00    +0.037 C 
ATOM     21  H   VAL A   1      30.519  -8.909 -20.066  0.00  0.00    +0.150 HD
ATOM     22  H   UNK A   2      33.654 -11.674 -21.817  0.00  0.00    +0.150 HD
ENDROOT
BRANCH   6  23
ATOM     23  CB  VAL A   1      31.367 -11.374 -19.686  0.00  0.00    +0.027 C 
ATOM     24  CG1 VAL A   1      32.048 -12.725 -19.906  0.00  0.00    +0.002 C 
ATOM     25  CG2 VAL A   1      31.308 -11.044 -18.193  0.00  0.00    +0.002 C 
ENDBRANCH   6  23
BRANCH   8  27
ATOM     26  O   UNK A   2      33.137 -13.900 -24.699  0.00  0.00    -0.248 OA
ATOM     27  C   UNK A   2      33.529 -13.074 -23.888  0.00  0.00    +0.332 C 
BRANCH  27  28
ATOM     28  O   UNK A   2      34.398 -13.343 -22.883  0.00  0.00    -0.479 OA
ATOM     29  H   UNK A   2      34.593 -14.232 -22.659  0.00  0.00    +0.295 HD
ENDBRANCH  27  28
ENDBRANCH   8  27
TORSDOF 3
ENDMDL
MODEL 7
REMARK VINA RESULT:      -4.3      6.159      9.065
REMARK  Name = 10713671
REMARK  3 active torsions:
REMARK  status: ('A' for Active; 'I' for Inactive)
REMARK    1  A    between atoms: CA_6  and  CB_23
REMARK    2  A    between atoms: C_8  and  C_27
REMARK    3  A    between atoms: C_27  and  O_28
REMARK                            x       y       z     vdW  Elec       q    Type
REMARK                         _______ _______ _______ _____ _____    ______ ____
ROOT
ATOM      1  O   VAL A   1      31.704  -6.227 -25.527  0.00  0.00    -0.273 OA
ATOM      2  O   UNK A   2      32.157  -9.542 -21.609  0.00  0.00    -0.475 OA
ATOM      3  O   UNK A   0      35.319  -7.038 -23.595  0.00  0.00    -0.275 OA
ATOM      4  N   VAL A   1      34.316  -6.951 -25.688  0.00  0.00    -0.298 N 
ATOM      5  N   UNK A   2      32.311  -4.185 -24.599  0.00  0.00    -0.295 N 
ATOM      6  CA  VAL A   1      34.013  -5.526 -25.687  0.00  0.00    +0.148 C 
ATOM      7  C   VAL A   1      32.556  -5.380 -25.263  0.00  0.00    +0.241 C 
ATOM      8  C   UNK A   2      31.004  -3.845 -24.051  0.00  0.00    +0.176 C 
ATOM      9  C   UNK A   2      30.921  -4.091 -22.538  0.00  0.00    +0.057 C 
ATOM     10  C   UNK A   0      35.052  -9.093 -24.813  0.00  0.00    +0.085 C 
ATOM     11  C   UNK A   0      34.296  -9.858 -23.724  0.00  0.00    +0.013 C 
ATOM     12  C   UNK A   0      34.920  -7.592 -24.618  0.00  0.00    +0.223 C 
ATOM     13  C   UNK A   0      32.785  -9.884 -23.987  0.00  0.00    +0.048 C 
ATOM     14  C   UNK A   2      31.165  -5.535 -22.173  0.00  0.00    -0.020 C 
ATOM     15  C   UNK A   0      31.979 -10.365 -22.773  0.00  0.00    +0.205 C 
ATOM     16  C   UNK A   2      30.229  -6.523 -22.504  0.00  0.00    -0.001 C 
ATOM     17  C   UNK A   2      32.369  -5.914 -21.564  0.00  0.00    -0.001 C 
ATOM     18  C   UNK A   2      31.752  -8.242 -21.758  0.00  0.00    +0.139 C 
ATOM     19  C   UNK A   2      30.518  -7.873 -22.296  0.00  0.00    +0.037 C 
ATOM     20  C   UNK A   2      32.654  -7.261 -21.346  0.00  0.00    +0.037 C 
ATOM     21  H   VAL A   1      34.082  -7.481 -26.484  0.00  0.00    +0.150 HD
ATOM     22  H   UNK A   2      33.049  -3.542 -24.495  0.00  0.00    +0.150 HD
ENDROOT
BRANCH   6  23
ATOM     23  CB  VAL A   1      34.225  -4.915 -27.063  0.00  0.00    +0.027 C 
ATOM     24  CG1 VAL A   1      33.539  -3.553 -27.165  0.00  0.00    +0.002 C 
ATOM     25  CG2 VAL A   1      35.717  -4.785 -27.374  0.00  0.00    +0.002 C 
ENDBRANCH   6  23
BRANCH   8  27
ATOM     26  O   UNK A   2      29.756  -1.819 -24.459  0.00  0.00    -0.248 OA
ATOM     27  C   UNK A   2      30.831  -2.391 -24.355  0.00  0.00    +0.332 C 
BRANCH  27  28
ATOM     28  O   UNK A   2      32.035  -1.786 -24.503  0.00  0.00    -0.479 OA
ATOM     29  H   UNK A   2      32.615  -2.059 -25.186  0.00  0.00    +0.295 HD
ENDBRANCH  27  28
ENDBRANCH   8  27
TORSDOF 3
ENDMDL
MODEL 8
REMARK VINA RESULT:      -4.1      2.594      6.505
REMARK  Name = 10713671
REMARK  3 active torsions:
REMARK  status: ('A' for Active; 'I' for Inactive)
REMARK    1  A    between atoms: CA_6  and  CB_23
REMARK    2  A    between atoms: C_8  and  C_27
REMARK    3  A    between atoms: C_27  and  O_28
REMARK                            x       y       z     vdW  Elec       q    Type
REMARK                         _______ _______ _______ _____ _____    ______ ____
ROOT
ATOM      1  O   VAL A   1      34.798 -11.448 -22.611  0.00  0.00    -0.273 OA
ATOM      2  O   UNK A   2      30.939  -9.681 -19.691  0.00  0.00    -0.475 OA
ATOM      3  O   UNK A   0      31.605  -9.208 -24.111  0.00  0.00    -0.275 OA
ATOM      4  N   VAL A   1      33.924  -9.314 -24.046  0.00  0.00    -0.298 N 
ATOM      5  N   UNK A   2      33.751 -12.895 -24.098  0.00  0.00    -0.295 N 
ATOM      6  CA  VAL A   1      34.070 -10.582 -24.749  0.00  0.00    +0.148 C 
ATOM      7  C   VAL A   1      34.244 -11.662 -23.688  0.00  0.00    +0.241 C 
ATOM      8  C   UNK A   2      33.756 -14.069 -23.234  0.00  0.00    +0.176 C 
ATOM      9  C   UNK A   2      32.388 -14.329 -22.590  0.00  0.00    +0.057 C 
ATOM     10  C   UNK A   0      32.788  -7.474 -22.940  0.00  0.00    +0.085 C 
ATOM     11  C   UNK A   0      32.059  -7.623 -21.603  0.00  0.00    +0.013 C 
ATOM     12  C   UNK A   0      32.691  -8.751 -23.760  0.00  0.00    +0.223 C 
ATOM     13  C   UNK A   0      32.884  -8.423 -20.587  0.00  0.00    +0.048 C 
ATOM     14  C   UNK A   2      31.926 -13.178 -21.729  0.00  0.00    -0.020 C 
ATOM     15  C   UNK A   0      32.064  -8.850 -19.362  0.00  0.00    +0.205 C 
ATOM     16  C   UNK A   2      32.572 -12.887 -20.520  0.00  0.00    -0.001 C 
ATOM     17  C   UNK A   2      30.893 -12.340 -22.168  0.00  0.00    -0.001 C 
ATOM     18  C   UNK A   2      31.260 -10.874 -20.283  0.00  0.00    +0.139 C 
ATOM     19  C   UNK A   2      32.240 -11.740 -19.797  0.00  0.00    +0.037 C 
ATOM     20  C   UNK A   2      30.552 -11.201 -21.440  0.00  0.00    +0.037 C 
ATOM     21  H   VAL A   1      34.738  -8.837 -23.762  0.00  0.00    +0.150 HD
ATOM     22  H   UNK A   2      33.384 -12.979 -25.007  0.00  0.00    +0.150 HD
ENDROOT
BRANCH   6  23
ATOM     23  CB  VAL A   1      35.270 -10.561 -25.681  0.00  0.00    +0.027 C 
ATOM     24  CG1 VAL A   1      34.992 -11.377 -26.944  0.00  0.00    +0.002 C 
ATOM     25  CG2 VAL A   1      35.647  -9.124 -26.048  0.00  0.00    +0.002 C 
ENDBRANCH   6  23
BRANCH   8  27
ATOM     26  O   UNK A   2      33.485 -15.576 -25.101  0.00  0.00    -0.248 OA
ATOM     27  C   UNK A   2      34.134 -15.201 -24.134  0.00  0.00    +0.332 C 
BRANCH  27  28
ATOM     28  O   UNK A   2      35.299 -15.765 -23.733  0.00  0.00    -0.479 OA
ATOM     29  H   UNK A   2      35.671 -15.532 -22.904  0.00  0.00    +0.295 HD
ENDBRANCH  27  28
ENDBRANCH   8  27
TORSDOF 3
ENDMDL
MODEL 9
REMARK VINA RESULT:      -3.5      9.144     12.514
REMARK  Name = 10713671
REMARK  3 active torsions:
REMARK  status: ('A' for Active; 'I' for Inactive)
REMARK    1  A    between atoms: CA_6  and  CB_23
REMARK    2  A    between atoms: C_8  and  C_27
REMARK    3  A    between atoms: C_27  and  O_28
REMARK                            x       y       z     vdW  Elec       q    Type
REMARK                         _______ _______ _______ _____ _____    ______ ____
ROOT
ATOM      1  O   VAL A   1      33.861 -22.066 -14.364  0.00  0.00    -0.273 OA
ATOM      2  O   UNK A   2      35.166 -22.427 -19.335  0.00  0.00    -0.475 OA
ATOM      3  O   UNK A   0      36.560 -24.892 -15.843  0.00  0.00    -0.275 OA
ATOM      4  N   VAL A   1      36.307 -23.240 -14.231  0.00  0.00    -0.298 N 
ATOM      5  N   UNK A   2      32.841 -24.104 -13.909  0.00  0.00    -0.295 N 
ATOM      6  CA  VAL A   1      35.218 -23.869 -13.494  0.00  0.00    +0.148 C 
ATOM      7  C   VAL A   1      33.922 -23.234 -13.984  0.00  0.00    +0.241 C 
ATOM      8  C   UNK A   2      31.508 -23.740 -14.371  0.00  0.00    +0.176 C 
ATOM      9  C   UNK A   2      31.194 -24.311 -15.761  0.00  0.00    +0.057 C 
ATOM     10  C   UNK A   0      37.921 -22.919 -16.016  0.00  0.00    +0.085 C 
ATOM     11  C   UNK A   0      37.525 -22.544 -17.446  0.00  0.00    +0.013 C 
ATOM     12  C   UNK A   0      36.864 -23.799 -15.369  0.00  0.00    +0.223 C 
ATOM     13  C   UNK A   0      36.474 -21.427 -17.475  0.00  0.00    +0.048 C 
ATOM     14  C   UNK A   2      32.151 -23.819 -16.819  0.00  0.00    -0.020 C 
ATOM     15  C   UNK A   0      35.836 -21.249 -18.860  0.00  0.00    +0.205 C 
ATOM     16  C   UNK A   2      32.131 -22.481 -17.234  0.00  0.00    -0.001 C 
ATOM     17  C   UNK A   2      33.125 -24.679 -17.342  0.00  0.00    -0.001 C 
ATOM     18  C   UNK A   2      34.116 -22.842 -18.559  0.00  0.00    +0.139 C 
ATOM     19  C   UNK A   2      33.108 -21.993 -18.102  0.00  0.00    +0.037 C 
ATOM     20  C   UNK A   2      34.094 -24.196 -18.220  0.00  0.00    +0.037 C 
ATOM     21  H   VAL A   1      36.660 -22.381 -13.905  0.00  0.00    +0.150 HD
ATOM     22  H   UNK A   2      32.981 -25.000 -13.528  0.00  0.00    +0.150 HD
ENDROOT
BRANCH   6  23
ATOM     23  CB  VAL A   1      35.373 -23.661 -11.996  0.00  0.00    +0.027 C 
ATOM     24  CG1 VAL A   1      35.249 -24.987 -11.246  0.00  0.00    +0.002 C 
ATOM     25  CG2 VAL A   1      36.712 -22.993 -11.677  0.00  0.00    +0.002 C 
ENDBRANCH   6  23
BRANCH   8  27
ATOM     26  O   UNK A   2      30.416 -23.869 -12.221  0.00  0.00    -0.248 OA
ATOM     27  C   UNK A   2      30.581 -24.315 -13.348  0.00  0.00    +0.332 C 
BRANCH  27  28
ATOM     28  O   UNK A   2      29.943 -25.406 -13.838  0.00  0.00    -0.479 OA
ATOM     29  H   UNK A   2      29.100 -25.644 -13.506  0.00  0.00    +0.295 HD
ENDBRANCH  27  28
ENDBRANCH   8  27
TORSDOF 3
ENDMDL
