MODEL 1
REMARK VINA RESULT:     -10.7      0.000      0.000
REMARK  Name = 25011733
REMARK  7 active torsions:
REMARK  status: ('A' for Active; 'I' for Inactive)
REMARK    1  A    between atoms: C_3  and  C_10
REMARK    2  A    between atoms: C_7  and  C_20
REMARK    3  A    between atoms: N_9  and  C_12
REMARK    4  A    between atoms: C_12  and  C_14
REMARK    5  A    between atoms: C_20  and  N_21
REMARK    6  A    between atoms: C_20  and  C_25
REMARK    7  A    between atoms: C_25  and  C_26
REMARK                            x       y       z     vdW  Elec       q    Type
REMARK                         _______ _______ _______ _____ _____    ______ ____
ROOT
ATOM      1  O   UNL     1      34.159 -17.181 -24.077  0.00  0.00    -0.277 OA
ATOM      2  N   UNL     1      33.845 -15.884 -22.186  0.00  0.00    -0.275 N 
ATOM      3  C   UNL     1      33.006 -14.873 -22.816  0.00  0.00    +0.152 C 
ATOM      4  C   UNL     1      32.378 -14.112 -21.654  0.00  0.00    +0.031 C 
ATOM      5  C   UNL     1      33.417 -14.239 -20.544  0.00  0.00    +0.024 C 
ATOM      6  C   UNL     1      33.986 -15.634 -20.755  0.00  0.00    +0.094 C 
ATOM      7  C   UNL     1      34.296 -17.005 -22.866  0.00  0.00    +0.206 C 
ENDROOT
BRANCH   3  10
ATOM      8  O   UNL     1      35.041 -14.347 -23.949  0.00  0.00    -0.273 OA
ATOM      9  N   UNL     1      33.316 -12.784 -23.945  0.00  0.00    -0.299 N 
ATOM     10  C   UNL     1      33.907 -13.996 -23.632  0.00  0.00    +0.241 C 
ATOM     11  H   UNL     1      32.397 -12.617 -23.635  0.00  0.00    +0.150 HD
BRANCH   9  12
ATOM     12  C   UNL     1      33.983 -11.751 -24.705  0.00  0.00    +0.116 C 
BRANCH  12  14
ATOM     13  F   UNL     1      31.638  -8.619 -21.793  0.00  0.00    -0.204 F 
ATOM     14  C   UNL     1      33.863 -10.406 -24.051  0.00  0.00    -0.000 C 
ATOM     15  C   UNL     1      32.785 -10.132 -23.209  0.00  0.00    +0.027 C 
ATOM     16  C   UNL     1      34.829  -9.428 -24.287  0.00  0.00    -0.002 C 
ATOM     17  C   UNL     1      32.674  -8.881 -22.602  0.00  0.00    +0.140 C 
ATOM     18  C   UNL     1      34.717  -8.176 -23.680  0.00  0.00    +0.002 C 
ATOM     19  C   UNL     1      33.640  -7.903 -22.838  0.00  0.00    +0.030 C 
ENDBRANCH  12  14
ENDBRANCH   9  12
ENDBRANCH   3  10
BRANCH   7  20
ATOM     20  C   UNL     1      35.002 -18.035 -22.021  0.00  0.00    +0.018 C 
BRANCH  20  21
ATOM     21  N   UNL     1      36.389 -18.015 -22.467  0.00  0.00    +0.388 N 
ATOM     22  H   UNL     1      36.988 -18.393 -21.733  0.00  0.00    -0.089 HD
ATOM     23  H   UNL     1      36.667 -17.054 -22.671  0.00  0.00    -0.089 HD
ATOM     24  H   UNL     1      36.484 -18.581 -23.310  0.00  0.00    -0.089 HD
ENDBRANCH  20  21
BRANCH  20  25
ATOM     25  C   UNL     1      34.380 -19.420 -22.205  0.00  0.00    +0.013 C 
BRANCH  25  26
ATOM     26  C   UNL     1      34.518 -20.287 -20.976  0.00  0.00    -0.024 C 
ATOM     27  C   UNL     1      33.378 -20.792 -20.347  0.00  0.00    -0.004 C 
ATOM     28  C   UNL     1      35.782 -20.583 -20.467  0.00  0.00    -0.004 C 
ATOM     29  C   UNL     1      33.504 -21.593 -19.212  0.00  0.00    -0.000 C 
ATOM     30  C   UNL     1      35.908 -21.385 -19.332  0.00  0.00    -0.000 C 
ATOM     31  C   UNL     1      34.769 -21.889 -18.705  0.00  0.00    -0.000 C 
ENDBRANCH  25  26
ENDBRANCH  20  25
ENDBRANCH   7  20
TORSDOF 7
ENDMDL
MODEL 2
REMARK VINA RESULT:     -10.7      0.884      1.282
REMARK  Name = 25011733
REMARK  7 active torsions:
REMARK  status: ('A' for Active; 'I' for Inactive)
REMARK    1  A    between atoms: C_3  and  C_10
REMARK    2  A    between atoms: C_7  and  C_20
REMARK    3  A    between atoms: N_9  and  C_12
REMARK    4  A    between atoms: C_12  and  C_14
REMARK    5  A    between atoms: C_20  and  N_21
REMARK    6  A    between atoms: C_20  and  C_25
REMARK    7  A    between atoms: C_25  and  C_26
REMARK                            x       y       z     vdW  Elec       q    Type
REMARK                         _______ _______ _______ _____ _____    ______ ____
ROOT
ATOM      1  O   UNL     1      34.183 -17.039 -24.170  0.00  0.00    -0.277 OA
ATOM      2  N   UNL     1      33.840 -15.830 -22.226  0.00  0.00    -0.275 N 
ATOM      3  C   UNL     1      32.962 -14.825 -22.810  0.00  0.00    +0.152 C 
ATOM      4  C   UNL     1      32.317 -14.133 -21.613  0.00  0.00    +0.031 C 
ATOM      5  C   UNL     1      33.370 -14.268 -20.516  0.00  0.00    +0.024 C 
ATOM      6  C   UNL     1      33.985 -15.633 -20.787  0.00  0.00    +0.094 C 
ATOM      7  C   UNL     1      34.325 -16.907 -22.954  0.00  0.00    +0.206 C 
ENDROOT
BRANCH   3  10
ATOM      8  O   UNL     1      34.959 -14.192 -23.954  0.00  0.00    -0.273 OA
ATOM      9  N   UNL     1      33.201 -12.672 -23.831  0.00  0.00    -0.299 N 
ATOM     10  C   UNL     1      33.825 -13.885 -23.596  0.00  0.00    +0.241 C 
ATOM     11  H   UNL     1      32.285 -12.543 -23.494  0.00  0.00    +0.150 HD
BRANCH   9  12
ATOM     12  C   UNL     1      33.828 -11.586 -24.548  0.00  0.00    +0.116 C 
BRANCH  12  14
ATOM     13  F   UNL     1      35.290  -7.030 -23.602  0.00  0.00    -0.204 F 
ATOM     14  C   UNL     1      33.657 -10.273 -23.842  0.00  0.00    -0.000 C 
ATOM     15  C   UNL     1      34.570  -9.240 -24.055  0.00  0.00    +0.027 C 
ATOM     16  C   UNL     1      32.583 -10.085 -22.971  0.00  0.00    -0.002 C 
ATOM     17  C   UNL     1      34.411  -8.021 -23.397  0.00  0.00    +0.140 C 
ATOM     18  C   UNL     1      32.424  -8.864 -22.313  0.00  0.00    +0.002 C 
ATOM     19  C   UNL     1      33.337  -7.833 -22.526  0.00  0.00    +0.030 C 
ENDBRANCH  12  14
ENDBRANCH   9  12
ENDBRANCH   3  10
BRANCH   7  20
ATOM     20  C   UNL     1      35.073 -17.944 -22.155  0.00  0.00    +0.018 C 
BRANCH  20  21
ATOM     21  N   UNL     1      36.458 -17.844 -22.596  0.00  0.00    +0.388 N 
ATOM     22  H   UNL     1      37.075 -18.184 -21.859  0.00  0.00    -0.089 HD
ATOM     23  H   UNL     1      36.680 -16.869 -22.801  0.00  0.00    -0.089 HD
ATOM     24  H   UNL     1      36.590 -18.406 -23.437  0.00  0.00    -0.089 HD
ENDBRANCH  20  21
BRANCH  20  25
ATOM     25  C   UNL     1      34.511 -19.344 -22.406  0.00  0.00    +0.013 C 
BRANCH  25  26
ATOM     26  C   UNL     1      34.477 -20.190 -21.155  0.00  0.00    -0.024 C 
ATOM     27  C   UNL     1      33.256 -20.500 -20.555  0.00  0.00    -0.004 C 
ATOM     28  C   UNL     1      35.666 -20.661 -20.598  0.00  0.00    -0.004 C 
ATOM     29  C   UNL     1      33.224 -21.280 -19.399  0.00  0.00    -0.000 C 
ATOM     30  C   UNL     1      35.634 -21.443 -19.442  0.00  0.00    -0.000 C 
ATOM     31  C   UNL     1      34.413 -21.752 -18.843  0.00  0.00    -0.000 C 
ENDBRANCH  25  26
ENDBRANCH  20  25
ENDBRANCH   7  20
TORSDOF 7
ENDMDL
MODEL 3
REMARK VINA RESULT:     -10.7      1.935      2.931
REMARK  Name = 25011733
REMARK  7 active torsions:
REMARK  status: ('A' for Active; 'I' for Inactive)
REMARK    1  A    between atoms: C_3  and  C_10
REMARK    2  A    between atoms: C_7  and  C_20
REMARK    3  A    between atoms: N_9  and  C_12
REMARK    4  A    between atoms: C_12  and  C_14
REMARK    5  A    between atoms: C_20  and  N_21
REMARK    6  A    between atoms: C_20  and  C_25
REMARK    7  A    between atoms: C_25  and  C_26
REMARK                            x       y       z     vdW  Elec       q    Type
REMARK                         _______ _______ _______ _____ _____    ______ ____
ROOT
ATOM      1  O   UNL     1      35.095 -15.665 -20.497  0.00  0.00    -0.277 OA
ATOM      2  N   UNL     1      34.530 -15.907 -22.728  0.00  0.00    -0.275 N 
ATOM      3  C   UNL     1      34.259 -14.499 -22.984  0.00  0.00    +0.152 C 
ATOM      4  C   UNL     1      34.225 -14.382 -24.504  0.00  0.00    +0.031 C 
ATOM      5  C   UNL     1      33.754 -15.762 -24.956  0.00  0.00    +0.024 C 
ATOM      6  C   UNL     1      34.401 -16.700 -23.948  0.00  0.00    +0.094 C 
ATOM      7  C   UNL     1      35.000 -16.364 -21.506  0.00  0.00    +0.206 C 
ENDROOT
BRANCH   3  10
ATOM      8  O   UNL     1      32.247 -15.050 -21.823  0.00  0.00    -0.273 OA
ATOM      9  N   UNL     1      32.579 -12.856 -22.526  0.00  0.00    -0.299 N 
ATOM     10  C   UNL     1      32.927 -14.187 -22.373  0.00  0.00    +0.241 C 
ATOM     11  H   UNL     1      33.210 -12.256 -22.986  0.00  0.00    +0.150 HD
BRANCH   9  12
ATOM     12  C   UNL     1      31.333 -12.303 -22.045  0.00  0.00    +0.116 C 
BRANCH  12  14
ATOM     13  F   UNL     1      32.480  -7.597 -21.473  0.00  0.00    -0.204 F 
ATOM     14  C   UNL     1      31.551 -11.102 -21.171  0.00  0.00    -0.000 C 
ATOM     15  C   UNL     1      31.921  -9.883 -21.739  0.00  0.00    +0.027 C 
ATOM     16  C   UNL     1      31.384 -11.206 -19.790  0.00  0.00    -0.002 C 
ATOM     17  C   UNL     1      32.124  -8.768 -20.926  0.00  0.00    +0.140 C 
ATOM     18  C   UNL     1      31.587 -10.090 -18.977  0.00  0.00    +0.002 C 
ATOM     19  C   UNL     1      31.957  -8.872 -19.545  0.00  0.00    +0.030 C 
ENDBRANCH  12  14
ENDBRANCH   9  12
ENDBRANCH   3  10
BRANCH   7  20
ATOM     20  C   UNL     1      35.396 -17.819 -21.466  0.00  0.00    +0.018 C 
BRANCH  20  21
ATOM     21  N   UNL     1      36.256 -18.016 -22.626  0.00  0.00    +0.388 N 
ATOM     22  H   UNL     1      35.708 -17.899 -23.479  0.00  0.00    -0.089 HD
ATOM     23  H   UNL     1      36.649 -18.957 -22.603  0.00  0.00    -0.089 HD
ATOM     24  H   UNL     1      37.012 -17.331 -22.610  0.00  0.00    -0.089 HD
ENDBRANCH  20  21
BRANCH  20  25
ATOM     25  C   UNL     1      34.168 -18.727 -21.526  0.00  0.00    +0.013 C 
BRANCH  25  26
ATOM     26  C   UNL     1      34.299 -19.943 -20.640  0.00  0.00    -0.024 C 
ATOM     27  C   UNL     1      35.562 -20.467 -20.356  0.00  0.00    -0.004 C 
ATOM     28  C   UNL     1      33.160 -20.545 -20.107  0.00  0.00    -0.004 C 
ATOM     29  C   UNL     1      35.683 -21.590 -19.539  0.00  0.00    -0.000 C 
ATOM     30  C   UNL     1      33.282 -21.669 -19.288  0.00  0.00    -0.000 C 
ATOM     31  C   UNL     1      34.544 -22.191 -19.005  0.00  0.00    -0.000 C 
ENDBRANCH  25  26
ENDBRANCH  20  25
ENDBRANCH   7  20
TORSDOF 7
ENDMDL
MODEL 4
REMARK VINA RESULT:     -10.3      2.886      9.026
REMARK  Name = 25011733
REMARK  7 active torsions:
REMARK  status: ('A' for Active; 'I' for Inactive)
REMARK    1  A    between atoms: C_3  and  C_10
REMARK    2  A    between atoms: C_7  and  C_20
REMARK    3  A    between atoms: N_9  and  C_12
REMARK    4  A    between atoms: C_12  and  C_14
REMARK    5  A    between atoms: C_20  and  N_21
REMARK    6  A    between atoms: C_20  and  C_25
REMARK    7  A    between atoms: C_25  and  C_26
REMARK                            x       y       z     vdW  Elec       q    Type
REMARK                         _______ _______ _______ _____ _____    ______ ____
ROOT
ATOM      1  O   UNL     1      34.698 -15.438 -24.484  0.00  0.00    -0.277 OA
ATOM      2  N   UNL     1      33.725 -14.649 -22.538  0.00  0.00    -0.275 N 
ATOM      3  C   UNL     1      34.522 -15.451 -21.618  0.00  0.00    +0.152 C 
ATOM      4  C   UNL     1      34.295 -14.813 -20.252  0.00  0.00    +0.031 C 
ATOM      5  C   UNL     1      32.896 -14.214 -20.368  0.00  0.00    +0.024 C 
ATOM      6  C   UNL     1      32.833 -13.748 -21.814  0.00  0.00    +0.094 C 
ATOM      7  C   UNL     1      33.936 -14.661 -23.908  0.00  0.00    +0.206 C 
ENDROOT
BRANCH   3  10
ATOM      8  O   UNL     1      32.956 -17.174 -21.086  0.00  0.00    -0.273 OA
ATOM      9  N   UNL     1      34.789 -17.690 -22.425  0.00  0.00    -0.299 N 
ATOM     10  C   UNL     1      33.986 -16.850 -21.673  0.00  0.00    +0.241 C 
ATOM     11  H   UNL     1      35.593 -17.313 -22.851  0.00  0.00    +0.150 HD
BRANCH   9  12
ATOM     12  C   UNL     1      34.506 -19.094 -22.616  0.00  0.00    +0.116 C 
BRANCH  12  14
ATOM     13  F   UNL     1      33.090 -21.899 -18.886  0.00  0.00    -0.204 F 
ATOM     14  C   UNL     1      34.817 -19.902 -21.390  0.00  0.00    -0.000 C 
ATOM     15  C   UNL     1      33.789 -20.539 -20.694  0.00  0.00    +0.027 C 
ATOM     16  C   UNL     1      36.134 -20.016 -20.946  0.00  0.00    -0.002 C 
ATOM     17  C   UNL     1      34.078 -21.288 -19.554  0.00  0.00    +0.140 C 
ATOM     18  C   UNL     1      36.423 -20.766 -19.805  0.00  0.00    +0.002 C 
ATOM     19  C   UNL     1      35.396 -21.402 -19.110  0.00  0.00    +0.030 C 
ENDBRANCH  12  14
ENDBRANCH   9  12
ENDBRANCH   3  10
BRANCH   7  20
ATOM     20  C   UNL     1      33.147 -13.643 -24.694  0.00  0.00    +0.018 C 
BRANCH  20  21
ATOM     21  N   UNL     1      32.426 -14.410 -25.701  0.00  0.00    +0.388 N 
ATOM     22  H   UNL     1      32.868 -15.323 -25.814  0.00  0.00    -0.089 HD
ATOM     23  H   UNL     1      32.449 -13.910 -26.591  0.00  0.00    -0.089 HD
ATOM     24  H   UNL     1      31.458 -14.535 -25.406  0.00  0.00    -0.089 HD
ENDBRANCH  20  21
BRANCH  20  25
ATOM     25  C   UNL     1      34.069 -12.609 -25.339  0.00  0.00    +0.013 C 
BRANCH  25  26
ATOM     26  C   UNL     1      33.993 -11.260 -24.664  0.00  0.00    -0.024 C 
ATOM     27  C   UNL     1      32.944 -10.976 -23.788  0.00  0.00    -0.004 C 
ATOM     28  C   UNL     1      34.970 -10.297 -24.915  0.00  0.00    -0.004 C 
ATOM     29  C   UNL     1      32.873  -9.730 -23.164  0.00  0.00    -0.000 C 
ATOM     30  C   UNL     1      34.899  -9.051 -24.291  0.00  0.00    -0.000 C 
ATOM     31  C   UNL     1      33.851  -8.768 -23.416  0.00  0.00    -0.000 C 
ENDBRANCH  25  26
ENDBRANCH  20  25
ENDBRANCH   7  20
TORSDOF 7
ENDMDL
MODEL 5
REMARK VINA RESULT:     -10.2      3.774      9.732
REMARK  Name = 25011733
REMARK  7 active torsions:
REMARK  status: ('A' for Active; 'I' for Inactive)
REMARK    1  A    between atoms: C_3  and  C_10
REMARK    2  A    between atoms: C_7  and  C_20
REMARK    3  A    between atoms: N_9  and  C_12
REMARK    4  A    between atoms: C_12  and  C_14
REMARK    5  A    between atoms: C_20  and  N_21
REMARK    6  A    between atoms: C_20  and  C_25
REMARK    7  A    between atoms: C_25  and  C_26
REMARK                            x       y       z     vdW  Elec       q    Type
REMARK                         _______ _______ _______ _____ _____    ______ ____
ROOT
ATOM      1  O   UNL     1      34.325 -16.346 -20.614  0.00  0.00    -0.277 OA
ATOM      2  N   UNL     1      34.672 -17.322 -22.684  0.00  0.00    -0.275 N 
ATOM      3  C   UNL     1      34.475 -18.699 -22.253  0.00  0.00    +0.152 C 
ATOM      4  C   UNL     1      34.295 -19.487 -23.546  0.00  0.00    +0.031 C 
ATOM      5  C   UNL     1      35.104 -18.688 -24.564  0.00  0.00    +0.024 C 
ATOM      6  C   UNL     1      34.890 -17.247 -24.126  0.00  0.00    +0.094 C 
ATOM      7  C   UNL     1      34.507 -16.243 -21.828  0.00  0.00    +0.206 C 
ENDROOT
BRANCH   3  10
ATOM      8  O   UNL     1      36.783 -18.530 -21.667  0.00  0.00    -0.273 OA
ATOM      9  N   UNL     1      35.495 -20.210 -20.700  0.00  0.00    -0.299 N 
ATOM     10  C   UNL     1      35.713 -19.114 -21.517  0.00  0.00    +0.241 C 
ATOM     11  H   UNL     1      34.589 -20.593 -20.662  0.00  0.00    +0.150 HD
BRANCH   9  12
ATOM     12  C   UNL     1      36.532 -20.820 -19.900  0.00  0.00    +0.116 C 
BRANCH  12  14
ATOM     13  F   UNL     1      32.910 -23.311 -17.788  0.00  0.00    -0.204 F 
ATOM     14  C   UNL     1      35.970 -21.587 -18.739  0.00  0.00    -0.000 C 
ATOM     15  C   UNL     1      34.676 -22.103 -18.804  0.00  0.00    +0.027 C 
ATOM     16  C   UNL     1      36.743 -21.784 -17.595  0.00  0.00    -0.002 C 
ATOM     17  C   UNL     1      34.154 -22.815 -17.725  0.00  0.00    +0.140 C 
ATOM     18  C   UNL     1      36.220 -22.497 -16.515  0.00  0.00    +0.002 C 
ATOM     19  C   UNL     1      34.926 -23.012 -16.580  0.00  0.00    +0.030 C 
ENDBRANCH  12  14
ENDBRANCH   9  12
ENDBRANCH   3  10
BRANCH   7  20
ATOM     20  C   UNL     1      34.575 -14.884 -22.477  0.00  0.00    +0.018 C 
BRANCH  20  21
ATOM     21  N   UNL     1      35.000 -13.975 -21.421  0.00  0.00    +0.388 N 
ATOM     22  H   UNL     1      35.894 -14.288 -21.042  0.00  0.00    -0.089 HD
ATOM     23  H   UNL     1      34.301 -13.967 -20.677  0.00  0.00    -0.089 HD
ATOM     24  H   UNL     1      35.102 -13.034 -21.802  0.00  0.00    -0.089 HD
ENDBRANCH  20  21
BRANCH  20  25
ATOM     25  C   UNL     1      33.217 -14.475 -23.047  0.00  0.00    +0.013 C 
BRANCH  25  26
ATOM     26  C   UNL     1      33.332 -13.770 -24.378  0.00  0.00    -0.024 C 
ATOM     27  C   UNL     1      33.769 -12.445 -24.430  0.00  0.00    -0.004 C 
ATOM     28  C   UNL     1      33.001 -14.441 -25.555  0.00  0.00    -0.004 C 
ATOM     29  C   UNL     1      33.875 -11.793 -25.658  0.00  0.00    -0.000 C 
ATOM     30  C   UNL     1      33.108 -13.788 -26.784  0.00  0.00    -0.000 C 
ATOM     31  C   UNL     1      33.544 -12.465 -26.835  0.00  0.00    -0.000 C 
ENDBRANCH  25  26
ENDBRANCH  20  25
ENDBRANCH   7  20
TORSDOF 7
ENDMDL
MODEL 6
REMARK VINA RESULT:     -10.0      7.841     12.761
REMARK  Name = 25011733
REMARK  7 active torsions:
REMARK  status: ('A' for Active; 'I' for Inactive)
REMARK    1  A    between atoms: C_3  and  C_10
REMARK    2  A    between atoms: C_7  and  C_20
REMARK    3  A    between atoms: N_9  and  C_12
REMARK    4  A    between atoms: C_12  and  C_14
REMARK    5  A    between atoms: C_20  and  N_21
REMARK    6  A    between atoms: C_20  and  C_25
REMARK    7  A    between atoms: C_25  and  C_26
REMARK                            x       y       z     vdW  Elec       q    Type
REMARK                         _______ _______ _______ _____ _____    ______ ____
ROOT
ATOM      1  O   UNL     1      34.748 -22.585 -16.111  0.00  0.00    -0.277 OA
ATOM      2  N   UNL     1      32.497 -23.113 -16.014  0.00  0.00    -0.275 N 
ATOM      3  C   UNL     1      32.335 -22.886 -14.584  0.00  0.00    +0.152 C 
ATOM      4  C   UNL     1      30.826 -22.821 -14.371  0.00  0.00    +0.031 C 
ATOM      5  C   UNL     1      30.273 -23.710 -15.482  0.00  0.00    +0.024 C 
ATOM      6  C   UNL     1      31.223 -23.454 -16.641  0.00  0.00    +0.094 C 
ATOM      7  C   UNL     1      33.691 -22.870 -16.675  0.00  0.00    +0.206 C 
ENDROOT
BRANCH   3  10
ATOM      8  O   UNL     1      32.382 -25.148 -13.822  0.00  0.00    -0.273 OA
ATOM      9  N   UNL     1      34.168 -23.747 -13.306  0.00  0.00    -0.299 N 
ATOM     10  C   UNL     1      32.946 -24.058 -13.878  0.00  0.00    +0.241 C 
ATOM     11  H   UNL     1      34.520 -22.834 -13.421  0.00  0.00    +0.150 HD
BRANCH   9  12
ATOM     12  C   UNL     1      34.952 -24.696 -12.550  0.00  0.00    +0.116 C 
BRANCH  12  14
ATOM     13  F   UNL     1      38.415 -23.492 -15.767  0.00  0.00    -0.204 F 
ATOM     14  C   UNL     1      36.342 -24.839 -13.097  0.00  0.00    -0.000 C 
ATOM     15  C   UNL     1      36.741 -24.083 -14.199  0.00  0.00    +0.027 C 
ATOM     16  C   UNL     1      37.236 -25.730 -12.502  0.00  0.00    -0.002 C 
ATOM     17  C   UNL     1      38.033 -24.218 -14.707  0.00  0.00    +0.140 C 
ATOM     18  C   UNL     1      38.529 -25.865 -13.011  0.00  0.00    +0.002 C 
ATOM     19  C   UNL     1      38.927 -25.109 -14.113  0.00  0.00    +0.030 C 
ENDBRANCH  12  14
ENDBRANCH   9  12
ENDBRANCH   3  10
BRANCH   7  20
ATOM     20  C   UNL     1      33.636 -22.987 -18.177  0.00  0.00    +0.018 C 
BRANCH  20  21
ATOM     21  N   UNL     1      33.578 -24.418 -18.450  0.00  0.00    +0.388 N 
ATOM     22  H   UNL     1      32.883 -24.597 -19.175  0.00  0.00    -0.089 HD
ATOM     23  H   UNL     1      33.315 -24.916 -17.598  0.00  0.00    -0.089 HD
ATOM     24  H   UNL     1      34.491 -24.743 -18.765  0.00  0.00    -0.089 HD
ENDBRANCH  20  21
BRANCH  20  25
ATOM     25  C   UNL     1      34.865 -22.350 -18.826  0.00  0.00    +0.013 C 
BRANCH  25  26
ATOM     26  C   UNL     1      34.512 -21.189 -19.726  0.00  0.00    -0.024 C 
ATOM     27  C   UNL     1      35.520 -20.489 -20.391  0.00  0.00    -0.004 C 
ATOM     28  C   UNL     1      33.179 -20.814 -19.891  0.00  0.00    -0.004 C 
ATOM     29  C   UNL     1      35.194 -19.417 -21.221  0.00  0.00    -0.000 C 
ATOM     30  C   UNL     1      32.853 -19.741 -20.722  0.00  0.00    -0.000 C 
ATOM     31  C   UNL     1      33.861 -19.043 -21.387  0.00  0.00    -0.000 C 
ENDBRANCH  25  26
ENDBRANCH  20  25
ENDBRANCH   7  20
TORSDOF 7
ENDMDL
MODEL 7
REMARK VINA RESULT:     -10.0      3.028      8.800
REMARK  Name = 25011733
REMARK  7 active torsions:
REMARK  status: ('A' for Active; 'I' for Inactive)
REMARK    1  A    between atoms: C_3  and  C_10
REMARK    2  A    between atoms: C_7  and  C_20
REMARK    3  A    between atoms: N_9  and  C_12
REMARK    4  A    between atoms: C_12  and  C_14
REMARK    5  A    between atoms: C_20  and  N_21
REMARK    6  A    between atoms: C_20  and  C_25
REMARK    7  A    between atoms: C_25  and  C_26
REMARK                            x       y       z     vdW  Elec       q    Type
REMARK                         _______ _______ _______ _____ _____    ______ ____
ROOT
ATOM      1  O   UNL     1      32.106 -14.744 -21.643  0.00  0.00    -0.277 OA
ATOM      2  N   UNL     1      32.954 -13.479 -23.386  0.00  0.00    -0.275 N 
ATOM      3  C   UNL     1      32.972 -14.550 -24.374  0.00  0.00    +0.152 C 
ATOM      4  C   UNL     1      33.153 -13.839 -25.710  0.00  0.00    +0.031 C 
ATOM      5  C   UNL     1      33.932 -12.580 -25.340  0.00  0.00    +0.024 C 
ATOM      6  C   UNL     1      33.371 -12.210 -23.975  0.00  0.00    +0.094 C 
ATOM      7  C   UNL     1      32.448 -13.655 -22.107  0.00  0.00    +0.206 C 
ENDROOT
BRANCH   3  10
ATOM      8  O   UNL     1      35.041 -15.064 -23.301  0.00  0.00    -0.273 OA
ATOM      9  N   UNL     1      34.072 -16.651 -24.702  0.00  0.00    -0.299 N 
ATOM     10  C   UNL     1      34.140 -15.431 -24.050  0.00  0.00    +0.241 C 
ATOM     11  H   UNL     1      33.295 -16.832 -25.279  0.00  0.00    +0.150 HD
BRANCH   9  12
ATOM     12  C   UNL     1      35.087 -17.672 -24.576  0.00  0.00    +0.116 C 
BRANCH  12  14
ATOM     13  F   UNL     1      32.792 -20.238 -21.121  0.00  0.00    -0.204 F 
ATOM     14  C   UNL     1      35.063 -18.326 -23.226  0.00  0.00    -0.000 C 
ATOM     15  C   UNL     1      33.916 -18.992 -22.792  0.00  0.00    +0.027 C 
ATOM     16  C   UNL     1      36.188 -18.268 -22.403  0.00  0.00    -0.002 C 
ATOM     17  C   UNL     1      33.895 -19.598 -21.537  0.00  0.00    +0.140 C 
ATOM     18  C   UNL     1      36.166 -18.875 -21.147  0.00  0.00    +0.002 C 
ATOM     19  C   UNL     1      35.020 -19.540 -20.714  0.00  0.00    +0.030 C 
ENDBRANCH  12  14
ENDBRANCH   9  12
ENDBRANCH   3  10
BRANCH   7  20
ATOM     20  C   UNL     1      32.343 -12.404 -21.273  0.00  0.00    +0.018 C 
BRANCH  20  21
ATOM     21  N   UNL     1      32.137 -12.868 -19.907  0.00  0.00    +0.388 N 
ATOM     22  H   UNL     1      31.139 -12.995 -19.738  0.00  0.00    -0.089 HD
ATOM     23  H   UNL     1      32.506 -12.176 -19.253  0.00  0.00    -0.089 HD
ATOM     24  H   UNL     1      32.621 -13.756 -19.772  0.00  0.00    -0.089 HD
ENDBRANCH  20  21
BRANCH  20  25
ATOM     25  C   UNL     1      31.182 -11.525 -21.740  0.00  0.00    +0.013 C 
BRANCH  25  26
ATOM     26  C   UNL     1      31.513 -10.052 -21.695  0.00  0.00    -0.024 C 
ATOM     27  C   UNL     1      31.412  -9.278 -22.853  0.00  0.00    -0.004 C 
ATOM     28  C   UNL     1      31.922  -9.464 -20.499  0.00  0.00    -0.004 C 
ATOM     29  C   UNL     1      31.718  -7.918 -22.812  0.00  0.00    -0.000 C 
ATOM     30  C   UNL     1      32.228  -8.103 -20.458  0.00  0.00    -0.000 C 
ATOM     31  C   UNL     1      32.126  -7.331 -21.615  0.00  0.00    -0.000 C 
ENDBRANCH  25  26
ENDBRANCH  20  25
ENDBRANCH   7  20
TORSDOF 7
ENDMDL
MODEL 8
REMARK VINA RESULT:     -10.0      3.760     10.498
REMARK  Name = 25011733
REMARK  7 active torsions:
REMARK  status: ('A' for Active; 'I' for Inactive)
REMARK    1  A    between atoms: C_3  and  C_10
REMARK    2  A    between atoms: C_7  and  C_20
REMARK    3  A    between atoms: N_9  and  C_12
REMARK    4  A    between atoms: C_12  and  C_14
REMARK    5  A    between atoms: C_20  and  N_21
REMARK    6  A    between atoms: C_20  and  C_25
REMARK    7  A    between atoms: C_25  and  C_26
REMARK                            x       y       z     vdW  Elec       q    Type
REMARK                         _______ _______ _______ _____ _____    ______ ____
ROOT
ATOM      1  O   UNL     1      31.108  -9.910 -22.580  0.00  0.00    -0.277 OA
ATOM      2  N   UNL     1      33.146 -10.053 -23.668  0.00  0.00    -0.275 N 
ATOM      3  C   UNL     1      32.911 -11.350 -24.289  0.00  0.00    +0.152 C 
ATOM      4  C   UNL     1      33.991 -11.469 -25.358  0.00  0.00    +0.031 C 
ATOM      5  C   UNL     1      35.140 -10.635 -24.796  0.00  0.00    +0.024 C 
ATOM      6  C   UNL     1      34.428  -9.493 -24.085  0.00  0.00    +0.094 C 
ATOM      7  C   UNL     1      32.180  -9.404 -22.914  0.00  0.00    +0.206 C 
ENDROOT
BRANCH   3  10
ATOM      8  O   UNL     1      32.342 -12.419 -22.231  0.00  0.00    -0.273 OA
ATOM      9  N   UNL     1      34.119 -13.253 -23.482  0.00  0.00    -0.299 N 
ATOM     10  C   UNL     1      33.071 -12.388 -23.220  0.00  0.00    +0.241 C 
ATOM     11  H   UNL     1      34.633 -13.129 -24.313  0.00  0.00    +0.150 HD
BRANCH   9  12
ATOM     12  C   UNL     1      34.497 -14.330 -22.595  0.00  0.00    +0.116 C 
BRANCH  12  14
ATOM     13  F   UNL     1      35.505 -19.102 -22.656  0.00  0.00    -0.204 F 
ATOM     14  C   UNL     1      34.548 -15.651 -23.305  0.00  0.00    -0.000 C 
ATOM     15  C   UNL     1      35.011 -16.785 -22.637  0.00  0.00    +0.027 C 
ATOM     16  C   UNL     1      34.132 -15.746 -24.633  0.00  0.00    -0.002 C 
ATOM     17  C   UNL     1      35.059 -18.013 -23.298  0.00  0.00    +0.140 C 
ATOM     18  C   UNL     1      34.181 -16.974 -25.293  0.00  0.00    +0.002 C 
ATOM     19  C   UNL     1      34.644 -18.107 -24.626  0.00  0.00    +0.030 C 
ENDBRANCH  12  14
ENDBRANCH   9  12
ENDBRANCH   3  10
BRANCH   7  20
ATOM     20  C   UNL     1      32.523  -7.997 -22.494  0.00  0.00    +0.018 C 
BRANCH  20  21
ATOM     21  N   UNL     1      32.700  -8.059 -21.049  0.00  0.00    +0.388 N 
ATOM     22  H   UNL     1      33.350  -7.331 -20.754  0.00  0.00    -0.089 HD
ATOM     23  H   UNL     1      33.075  -8.973 -20.790  0.00  0.00    -0.089 HD
ATOM     24  H   UNL     1      31.800  -7.919 -20.589  0.00  0.00    -0.089 HD
ENDBRANCH  20  21
BRANCH  20  25
ATOM     25  C   UNL     1      31.410  -7.021 -22.875  0.00  0.00    +0.013 C 
BRANCH  25  26
ATOM     26  C   UNL     1      31.821  -6.070 -23.974  0.00  0.00    -0.024 C 
ATOM     27  C   UNL     1      33.012  -6.282 -24.672  0.00  0.00    -0.004 C 
ATOM     28  C   UNL     1      31.014  -4.978 -24.291  0.00  0.00    -0.004 C 
ATOM     29  C   UNL     1      33.392  -5.404 -25.686  0.00  0.00    -0.000 C 
ATOM     30  C   UNL     1      31.394  -4.100 -25.307  0.00  0.00    -0.000 C 
ATOM     31  C   UNL     1      32.583  -4.313 -26.004  0.00  0.00    -0.000 C 
ENDBRANCH  25  26
ENDBRANCH  20  25
ENDBRANCH   7  20
TORSDOF 7
ENDMDL
MODEL 9
REMARK VINA RESULT:     -10.0      7.312     11.954
REMARK  Name = 25011733
REMARK  7 active torsions:
REMARK  status: ('A' for Active; 'I' for Inactive)
REMARK    1  A    between atoms: C_3  and  C_10
REMARK    2  A    between atoms: C_7  and  C_20
REMARK    3  A    between atoms: N_9  and  C_12
REMARK    4  A    between atoms: C_12  and  C_14
REMARK    5  A    between atoms: C_20  and  N_21
REMARK    6  A    between atoms: C_20  and  C_25
REMARK    7  A    between atoms: C_25  and  C_26
REMARK                            x       y       z     vdW  Elec       q    Type
REMARK                         _______ _______ _______ _____ _____    ______ ____
ROOT
ATOM      1  O   UNL     1      33.525 -24.210 -17.349  0.00  0.00    -0.277 OA
ATOM      2  N   UNL     1      35.349 -23.058 -16.509  0.00  0.00    -0.275 N 
ATOM      3  C   UNL     1      35.826 -24.121 -15.633  0.00  0.00    +0.152 C 
ATOM      4  C   UNL     1      37.242 -23.703 -15.255  0.00  0.00    +0.031 C 
ATOM      5  C   UNL     1      37.192 -22.179 -15.321  0.00  0.00    +0.024 C 
ATOM      6  C   UNL     1      36.249 -21.909 -16.484  0.00  0.00    +0.094 C 
ATOM      7  C   UNL     1      34.264 -23.224 -17.357  0.00  0.00    +0.206 C 
ENDROOT
BRANCH   3  10
ATOM      8  O   UNL     1      35.222 -24.748 -13.410  0.00  0.00    -0.273 OA
ATOM      9  N   UNL     1      33.737 -23.465 -14.663  0.00  0.00    -0.299 N 
ATOM     10  C   UNL     1      34.919 -24.152 -14.441  0.00  0.00    +0.241 C 
ATOM     11  H   UNL     1      33.608 -23.024 -15.534  0.00  0.00    +0.150 HD
BRANCH   9  12
ATOM     12  C   UNL     1      32.684 -23.364 -13.679  0.00  0.00    +0.116 C 
BRANCH  12  14
ATOM     13  F   UNL     1      28.593 -22.112 -16.021  0.00  0.00    -0.204 F 
ATOM     14  C   UNL     1      31.342 -23.712 -14.253  0.00  0.00    -0.000 C 
ATOM     15  C   UNL     1      30.576 -22.731 -14.883  0.00  0.00    +0.027 C 
ATOM     16  C   UNL     1      30.860 -25.018 -14.157  0.00  0.00    -0.002 C 
ATOM     17  C   UNL     1      29.328 -23.056 -15.416  0.00  0.00    +0.140 C 
ATOM     18  C   UNL     1      29.612 -25.342 -14.691  0.00  0.00    +0.002 C 
ATOM     19  C   UNL     1      28.847 -24.361 -15.320  0.00  0.00    +0.030 C 
ENDBRANCH  12  14
ENDBRANCH   9  12
ENDBRANCH   3  10
BRANCH   7  20
ATOM     20  C   UNL     1      34.014 -22.091 -18.320  0.00  0.00    +0.018 C 
BRANCH  20  21
ATOM     21  N   UNL     1      32.600 -22.182 -18.662  0.00  0.00    +0.388 N 
ATOM     22  H   UNL     1      32.282 -23.143 -18.540  0.00  0.00    -0.089 HD
ATOM     23  H   UNL     1      32.467 -21.901 -19.634  0.00  0.00    -0.089 HD
ATOM     24  H   UNL     1      32.062 -21.565 -18.053  0.00  0.00    -0.089 HD
ENDBRANCH  20  21
BRANCH  20  25
ATOM     25  C   UNL     1      34.894 -22.219 -19.563  0.00  0.00    +0.013 C 
BRANCH  25  26
ATOM     26  C   UNL     1      35.242 -20.880 -20.170  0.00  0.00    -0.024 C 
ATOM     27  C   UNL     1      36.572 -20.460 -20.219  0.00  0.00    -0.004 C 
ATOM     28  C   UNL     1      34.234 -20.062 -20.681  0.00  0.00    -0.004 C 
ATOM     29  C   UNL     1      36.893 -19.223 -20.779  0.00  0.00    -0.000 C 
ATOM     30  C   UNL     1      34.556 -18.825 -21.242  0.00  0.00    -0.000 C 
ATOM     31  C   UNL     1      35.885 -18.406 -21.290  0.00  0.00    -0.000 C 
ENDBRANCH  25  26
ENDBRANCH  20  25
ENDBRANCH   7  20
TORSDOF 7
ENDMDL
