MODEL 1
REMARK VINA RESULT:      -8.8      0.000      0.000
REMARK  Name = 25181315
REMARK  12 active torsions:
REMARK  status: ('A' for Active; 'I' for Inactive)
REMARK    1  A    between atoms: C_2  and  C_24
REMARK    2  A    between atoms: C_3  and  O_20
REMARK    3  A    between atoms: C_4  and  O_22
REMARK    4  A    between atoms: C_5  and  N_6
REMARK    5  A    between atoms: C_11  and  C_18
REMARK    6  A    between atoms: C_24  and  N_25
REMARK    7  A    between atoms: N_25  and  C_28
REMARK    8  A    between atoms: C_28  and  C_29
REMARK    9  A    between atoms: C_29  and  C_30
REMARK   10  A    between atoms: C_30  and  C_31
REMARK   11  A    between atoms: C_31  and  O_32
REMARK   12  A    between atoms: O_32  and  N_33
REMARK                            x       y       z     vdW  Elec       q    Type
REMARK                         _______ _______ _______ _____ _____    ______ ____
ROOT
ATOM      1  O   UNL     1      35.370 -24.679 -15.582  0.00  0.00    -0.337 OA
ATOM      2  C   UNL     1      36.303 -24.452 -14.502  0.00  0.00    +0.126 C 
ATOM      3  C   UNL     1      37.024 -23.151 -14.827  0.00  0.00    +0.166 C 
ATOM      4  C   UNL     1      35.977 -22.392 -15.616  0.00  0.00    +0.187 C 
ATOM      5  C   UNL     1      35.319 -23.507 -16.422  0.00  0.00    +0.229 C 
ENDROOT
BRANCH   5   6
ATOM      6  N   UNL     1      33.902 -23.181 -16.832  0.00  0.00    -0.221 N 
ATOM      7  N   UNL     1      32.163 -22.549 -18.075  0.00  0.00    -0.381 NA
ATOM      8  N   UNL     1      32.763 -23.670 -14.742  0.00  0.00    -0.227 NA
ATOM      9  N   UNL     1      30.362 -23.276 -14.927  0.00  0.00    -0.227 NA
ATOM     10  C   UNL     1      32.805 -23.277 -16.024  0.00  0.00    +0.169 C 
ATOM     11  C   UNL     1      33.466 -22.739 -18.053  0.00  0.00    +0.190 C 
ATOM     12  C   UNL     1      31.737 -22.882 -16.814  0.00  0.00    +0.195 C 
ATOM     13  C   UNL     1      30.478 -22.890 -16.221  0.00  0.00    +0.155 C 
ATOM     14  C   UNL     1      31.496 -23.637 -14.278  0.00  0.00    +0.253 C 
ATOM     15  N   UNL     1      29.339 -22.505 -16.948  0.00  0.00    -0.341 N 
ATOM     16  H   UNL     1      28.453 -22.515 -16.518  0.00  0.00    +0.144 HD
ATOM     17  H   UNL     1      29.427 -22.224 -17.888  0.00  0.00    +0.144 HD
BRANCH  11  18
ATOM     18  C   UNL     1      34.412 -22.552 -19.079  0.00  0.00    +0.048 C 
ATOM     19  C   UNL     1      34.961 -21.367 -19.518  0.00  0.00    +0.004 C 
ENDBRANCH  11  18
ENDBRANCH   5   6
BRANCH   3  20
ATOM     20  O   UNL     1      38.143 -23.463 -15.656  0.00  0.00    -0.380 OA
ATOM     21  H   UNL     1      37.861 -23.487 -16.584  0.00  0.00    +0.211 HD
ENDBRANCH   3  20
BRANCH   4  22
ATOM     22  O   UNL     1      36.527 -21.375 -16.430  0.00  0.00    -0.378 OA
ATOM     23  H   UNL     1      36.831 -20.643 -15.870  0.00  0.00    +0.211 HD
ENDBRANCH   4  22
BRANCH   2  24
ATOM     24  C   UNL     1      35.517 -24.390 -13.199  0.00  0.00    -0.045 C 
BRANCH  24  25
ATOM     25  N   UNL     1      36.285 -24.955 -12.099  0.00  0.00    +0.387 N 
ATOM     26  C   UNL     1      37.121 -23.930 -11.470  0.00  0.00    -0.101 C 
ATOM     27  H   UNL     1      35.628 -25.310 -11.403  0.00  0.00    -0.080 HD
BRANCH  25  28
ATOM     28  C   UNL     1      37.115 -26.069 -12.565  0.00  0.00    -0.077 C 
BRANCH  28  29
ATOM     29  C   UNL     1      38.596 -25.710 -12.454  0.00  0.00    -0.020 C 
BRANCH  29  30
ATOM     30  C   UNL     1      39.345 -26.049 -13.741  0.00  0.00    +0.032 C 
BRANCH  30  31
ATOM     31  C   UNL     1      40.654 -25.280 -13.850  0.00  0.00    +0.166 C 
BRANCH  31  32
ATOM     32  O   UNL     1      40.824 -24.800 -15.177  0.00  0.00    -0.289 OA
BRANCH  32  33
ATOM     33  N   UNL     1      40.249 -25.789 -16.075  0.00  0.00    -0.214 NA
ATOM     34  H   UNL     1      40.104 -26.663 -15.571  0.00  0.00    +0.150 HD
ATOM     35  H   UNL     1      40.886 -25.949 -16.856  0.00  0.00    +0.150 HD
ENDBRANCH  32  33
ENDBRANCH  31  32
ENDBRANCH  30  31
ENDBRANCH  29  30
ENDBRANCH  28  29
ENDBRANCH  25  28
ENDBRANCH  24  25
ENDBRANCH   2  24
TORSDOF 12
ENDMDL
MODEL 2
REMARK VINA RESULT:      -8.5      1.879      3.539
REMARK  Name = 25181315
REMARK  12 active torsions:
REMARK  status: ('A' for Active; 'I' for Inactive)
REMARK    1  A    between atoms: C_2  and  C_24
REMARK    2  A    between atoms: C_3  and  O_20
REMARK    3  A    between atoms: C_4  and  O_22
REMARK    4  A    between atoms: C_5  and  N_6
REMARK    5  A    between atoms: C_11  and  C_18
REMARK    6  A    between atoms: C_24  and  N_25
REMARK    7  A    between atoms: N_25  and  C_28
REMARK    8  A    between atoms: C_28  and  C_29
REMARK    9  A    between atoms: C_29  and  C_30
REMARK   10  A    between atoms: C_30  and  C_31
REMARK   11  A    between atoms: C_31  and  O_32
REMARK   12  A    between atoms: O_32  and  N_33
REMARK                            x       y       z     vdW  Elec       q    Type
REMARK                         _______ _______ _______ _____ _____    ______ ____
ROOT
ATOM      1  O   UNL     1      35.617 -23.880 -16.552  0.00  0.00    -0.337 OA
ATOM      2  C   UNL     1      36.220 -23.759 -15.244  0.00  0.00    +0.126 C 
ATOM      3  C   UNL     1      37.199 -22.597 -15.329  0.00  0.00    +0.166 C 
ATOM      4  C   UNL     1      36.559 -21.714 -16.382  0.00  0.00    +0.187 C 
ATOM      5  C   UNL     1      35.997 -22.744 -17.357  0.00  0.00    +0.229 C 
ENDROOT
BRANCH   5   6
ATOM      6  N   UNL     1      34.830 -22.220 -18.159  0.00  0.00    -0.221 N 
ATOM      7  N   UNL     1      32.743 -21.898 -18.876  0.00  0.00    -0.381 NA
ATOM      8  N   UNL     1      36.024 -20.752 -19.683  0.00  0.00    -0.227 NA
ATOM      9  N   UNL     1      34.495 -19.642 -21.227  0.00  0.00    -0.227 NA
ATOM     10  C   UNL     1      34.917 -21.327 -19.190  0.00  0.00    +0.169 C 
ATOM     11  C   UNL     1      33.505 -22.534 -18.010  0.00  0.00    +0.190 C 
ATOM     12  C   UNL     1      33.613 -21.140 -19.620  0.00  0.00    +0.195 C 
ATOM     13  C   UNL     1      33.420 -20.260 -20.680  0.00  0.00    +0.155 C 
ATOM     14  C   UNL     1      35.712 -19.923 -20.703  0.00  0.00    +0.253 C 
ATOM     15  N   UNL     1      32.130 -20.010 -21.181  0.00  0.00    -0.341 N 
ATOM     16  H   UNL     1      32.006 -19.385 -21.931  0.00  0.00    +0.144 HD
ATOM     17  H   UNL     1      31.352 -20.461 -20.781  0.00  0.00    +0.144 HD
BRANCH  11  18
ATOM     18  C   UNL     1      33.138 -23.447 -17.003  0.00  0.00    +0.048 C 
ATOM     19  C   UNL     1      32.031 -23.404 -16.185  0.00  0.00    +0.004 C 
ENDBRANCH  11  18
ENDBRANCH   5   6
BRANCH   3  20
ATOM     20  O   UNL     1      38.447 -23.106 -15.798  0.00  0.00    -0.380 OA
ATOM     21  H   UNL     1      38.881 -22.438 -16.353  0.00  0.00    +0.211 HD
ENDBRANCH   3  20
BRANCH   4  22
ATOM     22  O   UNL     1      37.474 -20.823 -16.987  0.00  0.00    -0.378 OA
ATOM     23  H   UNL     1      37.654 -20.085 -16.384  0.00  0.00    +0.211 HD
ENDBRANCH   4  22
BRANCH   2  24
ATOM     24  C   UNL     1      35.110 -23.532 -14.227  0.00  0.00    -0.045 C 
BRANCH  24  25
ATOM     25  N   UNL     1      35.282 -24.392 -13.065  0.00  0.00    +0.387 N 
ATOM     26  C   UNL     1      35.701 -23.610 -11.899  0.00  0.00    -0.101 C 
ATOM     27  H   UNL     1      34.383 -24.828 -12.857  0.00  0.00    -0.080 HD
BRANCH  25  28
ATOM     28  C   UNL     1      36.258 -25.449 -13.343  0.00  0.00    -0.077 C 
BRANCH  28  29
ATOM     29  C   UNL     1      37.413 -25.380 -12.345  0.00  0.00    -0.020 C 
BRANCH  29  30
ATOM     30  C   UNL     1      38.763 -25.448 -13.057  0.00  0.00    +0.032 C 
BRANCH  30  31
ATOM     31  C   UNL     1      38.675 -26.238 -14.356  0.00  0.00    +0.166 C 
BRANCH  31  32
ATOM     32  O   UNL     1      39.977 -26.625 -14.775  0.00  0.00    -0.289 OA
BRANCH  32  33
ATOM     33  N   UNL     1      40.337 -25.788 -15.908  0.00  0.00    -0.214 NA
ATOM     34  H   UNL     1      40.134 -26.284 -16.776  0.00  0.00    +0.150 HD
ATOM     35  H   UNL     1      41.333 -25.570 -15.866  0.00  0.00    +0.150 HD
ENDBRANCH  32  33
ENDBRANCH  31  32
ENDBRANCH  30  31
ENDBRANCH  29  30
ENDBRANCH  28  29
ENDBRANCH  25  28
ENDBRANCH  24  25
ENDBRANCH   2  24
TORSDOF 12
ENDMDL
MODEL 3
REMARK VINA RESULT:      -8.0      2.838      7.228
REMARK  Name = 25181315
REMARK  12 active torsions:
REMARK  status: ('A' for Active; 'I' for Inactive)
REMARK    1  A    between atoms: C_2  and  C_24
REMARK    2  A    between atoms: C_3  and  O_20
REMARK    3  A    between atoms: C_4  and  O_22
REMARK    4  A    between atoms: C_5  and  N_6
REMARK    5  A    between atoms: C_11  and  C_18
REMARK    6  A    between atoms: C_24  and  N_25
REMARK    7  A    between atoms: N_25  and  C_28
REMARK    8  A    between atoms: C_28  and  C_29
REMARK    9  A    between atoms: C_29  and  C_30
REMARK   10  A    between atoms: C_30  and  C_31
REMARK   11  A    between atoms: C_31  and  O_32
REMARK   12  A    between atoms: O_32  and  N_33
REMARK                            x       y       z     vdW  Elec       q    Type
REMARK                         _______ _______ _______ _____ _____    ______ ____
ROOT
ATOM      1  O   UNL     1      33.979 -24.024 -16.622  0.00  0.00    -0.337 OA
ATOM      2  C   UNL     1      32.837 -23.354 -17.200  0.00  0.00    +0.126 C 
ATOM      3  C   UNL     1      31.882 -23.067 -16.050  0.00  0.00    +0.166 C 
ATOM      4  C   UNL     1      32.829 -22.913 -14.877  0.00  0.00    +0.187 C 
ATOM      5  C   UNL     1      33.885 -23.971 -15.183  0.00  0.00    +0.229 C 
ENDROOT
BRANCH   5   6
ATOM      6  N   UNL     1      35.223 -23.667 -14.552  0.00  0.00    -0.221 N 
ATOM      7  N   UNL     1      37.326 -22.968 -14.310  0.00  0.00    -0.381 NA
ATOM      8  N   UNL     1      34.800 -24.497 -12.308  0.00  0.00    -0.227 NA
ATOM      9  N   UNL     1      36.752 -24.209 -10.873  0.00  0.00    -0.227 NA
ATOM     10  C   UNL     1      35.563 -23.932 -13.256  0.00  0.00    +0.169 C 
ATOM     11  C   UNL     1      36.315 -23.090 -15.145  0.00  0.00    +0.190 C 
ATOM     12  C   UNL     1      36.870 -23.491 -13.126  0.00  0.00    +0.195 C 
ATOM     13  C   UNL     1      37.466 -23.645 -11.878  0.00  0.00    +0.155 C 
ATOM     14  C   UNL     1      35.482 -24.594 -11.147  0.00  0.00    +0.253 C 
ATOM     15  N   UNL     1      38.788 -23.225 -11.655  0.00  0.00    -0.341 N 
ATOM     16  H   UNL     1      39.199 -23.339 -10.768  0.00  0.00    +0.144 HD
ATOM     17  H   UNL     1      39.304 -22.816 -12.388  0.00  0.00    +0.144 HD
BRANCH  11  18
ATOM     18  C   UNL     1      36.228 -22.717 -16.499  0.00  0.00    +0.048 C 
ATOM     19  C   UNL     1      36.951 -21.747 -17.158  0.00  0.00    +0.004 C 
ENDBRANCH  11  18
ENDBRANCH   5   6
BRANCH   3  20
ATOM     20  O   UNL     1      31.051 -24.213 -15.871  0.00  0.00    -0.380 OA
ATOM     21  H   UNL     1      31.427 -24.781 -15.181  0.00  0.00    +0.211 HD
ENDBRANCH   3  20
BRANCH   4  22
ATOM     22  O   UNL     1      32.198 -23.109 -13.627  0.00  0.00    -0.378 OA
ATOM     23  H   UNL     1      32.837 -22.952 -12.915  0.00  0.00    +0.211 HD
ENDBRANCH   4  22
BRANCH   2  24
ATOM     24  C   UNL     1      33.328 -22.093 -17.898  0.00  0.00    -0.045 C 
BRANCH  24  25
ATOM     25  N   UNL     1      33.259 -22.236 -19.345  0.00  0.00    +0.387 N 
ATOM     26  C   UNL     1      34.479 -22.858 -19.864  0.00  0.00    -0.101 C 
ATOM     27  H   UNL     1      32.467 -22.841 -19.567  0.00  0.00    -0.080 HD
BRANCH  25  28
ATOM     28  C   UNL     1      33.043 -20.935 -19.984  0.00  0.00    -0.077 C 
BRANCH  28  29
ATOM     29  C   UNL     1      34.375 -20.339 -20.436  0.00  0.00    -0.020 C 
BRANCH  29  30
ATOM     30  C   UNL     1      34.195 -19.458 -21.672  0.00  0.00    +0.032 C 
BRANCH  30  31
ATOM     31  C   UNL     1      35.348 -18.477 -21.836  0.00  0.00    +0.166 C 
BRANCH  31  32
ATOM     32  O   UNL     1      35.676 -17.902 -20.578  0.00  0.00    -0.289 OA
BRANCH  32  33
ATOM     33  N   UNL     1      35.069 -16.581 -20.531  0.00  0.00    -0.214 NA
ATOM     34  H   UNL     1      34.676 -16.421 -19.604  0.00  0.00    +0.150 HD
ATOM     35  H   UNL     1      34.328 -16.523 -21.230  0.00  0.00    +0.150 HD
ENDBRANCH  32  33
ENDBRANCH  31  32
ENDBRANCH  30  31
ENDBRANCH  29  30
ENDBRANCH  28  29
ENDBRANCH  25  28
ENDBRANCH  24  25
ENDBRANCH   2  24
TORSDOF 12
ENDMDL
MODEL 4
REMARK VINA RESULT:      -7.9     14.997     18.925
REMARK  Name = 25181315
REMARK  12 active torsions:
REMARK  status: ('A' for Active; 'I' for Inactive)
REMARK    1  A    between atoms: C_2  and  C_24
REMARK    2  A    between atoms: C_3  and  O_20
REMARK    3  A    between atoms: C_4  and  O_22
REMARK    4  A    between atoms: C_5  and  N_6
REMARK    5  A    between atoms: C_11  and  C_18
REMARK    6  A    between atoms: C_24  and  N_25
REMARK    7  A    between atoms: N_25  and  C_28
REMARK    8  A    between atoms: C_28  and  C_29
REMARK    9  A    between atoms: C_29  and  C_30
REMARK   10  A    between atoms: C_30  and  C_31
REMARK   11  A    between atoms: C_31  and  O_32
REMARK   12  A    between atoms: O_32  and  N_33
REMARK                            x       y       z     vdW  Elec       q    Type
REMARK                         _______ _______ _______ _____ _____    ______ ____
ROOT
ATOM      1  O   UNL     1      31.405  -7.964 -23.056  0.00  0.00    -0.337 OA
ATOM      2  C   UNL     1      32.074  -6.684 -23.085  0.00  0.00    +0.126 C 
ATOM      3  C   UNL     1      32.655  -6.473 -21.693  0.00  0.00    +0.166 C 
ATOM      4  C   UNL     1      32.917  -7.894 -21.236  0.00  0.00    +0.187 C 
ATOM      5  C   UNL     1      31.721  -8.639 -21.821  0.00  0.00    +0.229 C 
ENDROOT
BRANCH   5   6
ATOM      6  N   UNL     1      31.994 -10.107 -22.047  0.00  0.00    -0.221 N 
ATOM      7  N   UNL     1      31.990 -12.318 -21.760  0.00  0.00    -0.381 NA
ATOM      8  N   UNL     1      33.328  -9.954 -24.072  0.00  0.00    -0.227 NA
ATOM      9  N   UNL     1      34.025 -12.161 -24.844  0.00  0.00    -0.227 NA
ATOM     10  C   UNL     1      32.724 -10.624 -23.079  0.00  0.00    +0.169 C 
ATOM     11  C   UNL     1      31.576 -11.163 -21.281  0.00  0.00    +0.190 C 
ATOM     12  C   UNL     1      32.709 -11.996 -22.883  0.00  0.00    +0.195 C 
ATOM     13  C   UNL     1      33.392 -12.773 -23.814  0.00  0.00    +0.155 C 
ATOM     14  C   UNL     1      33.955 -10.810 -24.908  0.00  0.00    +0.253 C 
ATOM     15  N   UNL     1      33.428 -14.173 -23.693  0.00  0.00    -0.341 N 
ATOM     16  H   UNL     1      33.915 -14.712 -24.358  0.00  0.00    +0.144 HD
ATOM     17  H   UNL     1      32.968 -14.614 -22.943  0.00  0.00    +0.144 HD
BRANCH  11  18
ATOM     18  C   UNL     1      30.795 -10.899 -20.139  0.00  0.00    +0.048 C 
ATOM     19  C   UNL     1      31.215 -10.806 -18.831  0.00  0.00    +0.004 C 
ENDBRANCH  11  18
ENDBRANCH   5   6
BRANCH   3  20
ATOM     20  O   UNL     1      31.648  -5.868 -20.883  0.00  0.00    -0.380 OA
ATOM     21  H   UNL     1      30.959  -6.521 -20.681  0.00  0.00    +0.211 HD
ENDBRANCH   3  20
BRANCH   4  22
ATOM     22  O   UNL     1      33.009  -8.016 -19.831  0.00  0.00    -0.378 OA
ATOM     23  H   UNL     1      32.187  -8.398 -19.485  0.00  0.00    +0.211 HD
ENDBRANCH   4  22
BRANCH   2  24
ATOM     24  C   UNL     1      33.137  -6.726 -24.175  0.00  0.00    -0.045 C 
BRANCH  24  25
ATOM     25  N   UNL     1      32.704  -5.990 -25.354  0.00  0.00    +0.387 N 
ATOM     26  C   UNL     1      33.853  -5.410 -26.053  0.00  0.00    -0.101 C 
ATOM     27  H   UNL     1      32.239  -6.645 -25.984  0.00  0.00    -0.080 HD
BRANCH  25  28
ATOM     28  C   UNL     1      31.752  -4.939 -24.988  0.00  0.00    -0.077 C 
BRANCH  28  29
ATOM     29  C   UNL     1      31.989  -3.689 -25.834  0.00  0.00    -0.020 C 
BRANCH  29  30
ATOM     30  C   UNL     1      31.547  -2.428 -25.094  0.00  0.00    +0.032 C 
BRANCH  30  31
ATOM     31  C   UNL     1      31.649  -2.598 -23.584  0.00  0.00    +0.166 C 
BRANCH  31  32
ATOM     32  O   UNL     1      30.359  -2.490 -22.998  0.00  0.00    -0.289 OA
BRANCH  32  33
ATOM     33  N   UNL     1      30.202  -3.606 -22.078  0.00  0.00    -0.214 NA
ATOM     34  H   UNL     1      31.085  -3.774 -21.595  0.00  0.00    +0.150 HD
ATOM     35  H   UNL     1      29.935  -4.441 -22.600  0.00  0.00    +0.150 HD
ENDBRANCH  32  33
ENDBRANCH  31  32
ENDBRANCH  30  31
ENDBRANCH  29  30
ENDBRANCH  28  29
ENDBRANCH  25  28
ENDBRANCH  24  25
ENDBRANCH   2  24
TORSDOF 12
ENDMDL
MODEL 5
REMARK VINA RESULT:      -7.8     11.685     14.894
REMARK  Name = 25181315
REMARK  12 active torsions:
REMARK  status: ('A' for Active; 'I' for Inactive)
REMARK    1  A    between atoms: C_2  and  C_24
REMARK    2  A    between atoms: C_3  and  O_20
REMARK    3  A    between atoms: C_4  and  O_22
REMARK    4  A    between atoms: C_5  and  N_6
REMARK    5  A    between atoms: C_11  and  C_18
REMARK    6  A    between atoms: C_24  and  N_25
REMARK    7  A    between atoms: N_25  and  C_28
REMARK    8  A    between atoms: C_28  and  C_29
REMARK    9  A    between atoms: C_29  and  C_30
REMARK   10  A    between atoms: C_30  and  C_31
REMARK   11  A    between atoms: C_31  and  O_32
REMARK   12  A    between atoms: O_32  and  N_33
REMARK                            x       y       z     vdW  Elec       q    Type
REMARK                         _______ _______ _______ _____ _____    ______ ____
ROOT
ATOM      1  O   UNL     1      31.779 -12.380 -22.809  0.00  0.00    -0.337 OA
ATOM      2  C   UNL     1      32.649 -13.522 -22.976  0.00  0.00    +0.126 C 
ATOM      3  C   UNL     1      33.783 -13.067 -23.884  0.00  0.00    +0.166 C 
ATOM      4  C   UNL     1      33.880 -11.589 -23.560  0.00  0.00    +0.187 C 
ATOM      5  C   UNL     1      32.414 -11.212 -23.369  0.00  0.00    +0.229 C 
ENDROOT
BRANCH   5   6
ATOM      6  N   UNL     1      32.228 -10.003 -22.483  0.00  0.00    -0.221 N 
ATOM      7  N   UNL     1      31.767  -8.755 -20.694  0.00  0.00    -0.381 NA
ATOM      8  N   UNL     1      32.834  -8.258 -24.061  0.00  0.00    -0.227 NA
ATOM      9  N   UNL     1      32.679  -6.047 -23.042  0.00  0.00    -0.227 NA
ATOM     10  C   UNL     1      32.435  -8.707 -22.862  0.00  0.00    +0.169 C 
ATOM     11  C   UNL     1      31.826  -9.980 -21.174  0.00  0.00    +0.190 C 
ATOM     12  C   UNL     1      32.144  -7.949 -21.739  0.00  0.00    +0.195 C 
ATOM     13  C   UNL     1      32.278  -6.569 -21.857  0.00  0.00    +0.155 C 
ATOM     14  C   UNL     1      32.928  -6.911 -24.055  0.00  0.00    +0.253 C 
ATOM     15  N   UNL     1      32.005  -5.724 -20.768  0.00  0.00    -0.341 N 
ATOM     16  H   UNL     1      32.104  -4.749 -20.865  0.00  0.00    +0.144 HD
ATOM     17  H   UNL     1      31.714  -6.107 -19.910  0.00  0.00    +0.144 HD
BRANCH  11  18
ATOM     18  C   UNL     1      31.543 -11.202 -20.534  0.00  0.00    +0.048 C 
ATOM     19  C   UNL     1      31.503 -11.460 -19.182  0.00  0.00    +0.004 C 
ENDBRANCH  11  18
ENDBRANCH   5   6
BRANCH   3  20
ATOM     20  O   UNL     1      33.367 -13.254 -25.236  0.00  0.00    -0.380 OA
ATOM     21  H   UNL     1      33.366 -12.399 -25.695  0.00  0.00    +0.211 HD
ENDBRANCH   3  20
BRANCH   4  22
ATOM     22  O   UNL     1      34.514 -10.840 -24.579  0.00  0.00    -0.378 OA
ATOM     23  H   UNL     1      35.333 -10.453 -24.233  0.00  0.00    +0.211 HD
ENDBRANCH   4  22
BRANCH   2  24
ATOM     24  C   UNL     1      33.126 -13.962 -21.599  0.00  0.00    -0.045 C 
BRANCH  24  25
ATOM     25  N   UNL     1      33.170 -15.414 -21.500  0.00  0.00    +0.387 N 
ATOM     26  C   UNL     1      32.178 -15.899 -20.539  0.00  0.00    -0.101 C 
ATOM     27  H   UNL     1      32.949 -15.801 -22.419  0.00  0.00    -0.080 HD
BRANCH  25  28
ATOM     28  C   UNL     1      34.510 -15.866 -21.116  0.00  0.00    -0.077 C 
BRANCH  28  29
ATOM     29  C   UNL     1      34.991 -16.966 -22.061  0.00  0.00    -0.020 C 
BRANCH  29  30
ATOM     30  C   UNL     1      35.266 -16.412 -23.458  0.00  0.00    +0.032 C 
BRANCH  30  31
ATOM     31  C   UNL     1      34.541 -17.211 -24.533  0.00  0.00    +0.166 C 
BRANCH  31  32
ATOM     32  O   UNL     1      34.780 -16.632 -25.808  0.00  0.00    -0.289 OA
BRANCH  32  33
ATOM     33  N   UNL     1      33.543 -15.999 -26.240  0.00  0.00    -0.214 NA
ATOM     34  H   UNL     1      32.949 -16.691 -26.697  0.00  0.00    +0.150 HD
ATOM     35  H   UNL     1      33.757 -15.248 -26.896  0.00  0.00    +0.150 HD
ENDBRANCH  32  33
ENDBRANCH  31  32
ENDBRANCH  30  31
ENDBRANCH  29  30
ENDBRANCH  28  29
ENDBRANCH  25  28
ENDBRANCH  24  25
ENDBRANCH   2  24
TORSDOF 12
ENDMDL
MODEL 6
REMARK VINA RESULT:      -7.8      9.449     12.832
REMARK  Name = 25181315
REMARK  12 active torsions:
REMARK  status: ('A' for Active; 'I' for Inactive)
REMARK    1  A    between atoms: C_2  and  C_24
REMARK    2  A    between atoms: C_3  and  O_20
REMARK    3  A    between atoms: C_4  and  O_22
REMARK    4  A    between atoms: C_5  and  N_6
REMARK    5  A    between atoms: C_11  and  C_18
REMARK    6  A    between atoms: C_24  and  N_25
REMARK    7  A    between atoms: N_25  and  C_28
REMARK    8  A    between atoms: C_28  and  C_29
REMARK    9  A    between atoms: C_29  and  C_30
REMARK   10  A    between atoms: C_30  and  C_31
REMARK   11  A    between atoms: C_31  and  O_32
REMARK   12  A    between atoms: O_32  and  N_33
REMARK                            x       y       z     vdW  Elec       q    Type
REMARK                         _______ _______ _______ _____ _____    ______ ____
ROOT
ATOM      1  O   UNL     1      32.695 -14.837 -23.430  0.00  0.00    -0.337 OA
ATOM      2  C   UNL     1      33.761 -15.336 -24.269  0.00  0.00    +0.126 C 
ATOM      3  C   UNL     1      34.119 -14.205 -25.224  0.00  0.00    +0.166 C 
ATOM      4  C   UNL     1      33.785 -12.975 -24.404  0.00  0.00    +0.187 C 
ATOM      5  C   UNL     1      32.530 -13.422 -23.661  0.00  0.00    +0.229 C 
ENDROOT
BRANCH   5   6
ATOM      6  N   UNL     1      32.312 -12.673 -22.368  0.00  0.00    -0.221 N 
ATOM      7  N   UNL     1      32.041 -12.260 -20.194  0.00  0.00    -0.381 NA
ATOM      8  N   UNL     1      32.145 -10.413 -23.244  0.00  0.00    -0.227 NA
ATOM      9  N   UNL     1      31.779  -8.793 -21.456  0.00  0.00    -0.227 NA
ATOM     10  C   UNL     1      32.147 -11.321 -22.257  0.00  0.00    +0.169 C 
ATOM     11  C   UNL     1      32.239 -13.192 -21.103  0.00  0.00    +0.190 C 
ATOM     12  C   UNL     1      31.981 -11.086 -20.902  0.00  0.00    +0.195 C 
ATOM     13  C   UNL     1      31.791  -9.764 -20.511  0.00  0.00    +0.155 C 
ATOM     14  C   UNL     1      31.953  -9.173 -22.745  0.00  0.00    +0.253 C 
ATOM     15  N   UNL     1      31.616  -9.433 -19.156  0.00  0.00    -0.341 N 
ATOM     16  H   UNL     1      31.482  -8.494 -18.892  0.00  0.00    +0.144 HD
ATOM     17  H   UNL     1      31.625 -10.141 -18.472  0.00  0.00    +0.144 HD
BRANCH  11  18
ATOM     18  C   UNL     1      32.379 -14.583 -20.937  0.00  0.00    +0.048 C 
ATOM     19  C   UNL     1      33.351 -15.258 -20.231  0.00  0.00    +0.004 C 
ENDBRANCH  11  18
ENDBRANCH   5   6
BRANCH   3  20
ATOM     20  O   UNL     1      33.257 -14.297 -26.358  0.00  0.00    -0.380 OA
ATOM     21  H   UNL     1      32.628 -13.558 -26.347  0.00  0.00    +0.211 HD
ENDBRANCH   3  20
BRANCH   4  22
ATOM     22  O   UNL     1      33.575 -11.823 -25.197  0.00  0.00    -0.378 OA
ATOM     23  H   UNL     1      33.878 -11.994 -26.102  0.00  0.00    +0.211 HD
ENDBRANCH   4  22
BRANCH   2  24
ATOM     24  C   UNL     1      34.919 -15.749 -23.371  0.00  0.00    -0.045 C 
BRANCH  24  25
ATOM     25  N   UNL     1      35.403 -17.077 -23.720  0.00  0.00    +0.387 N 
ATOM     26  C   UNL     1      34.483 -17.736 -24.650  0.00  0.00    -0.101 C 
ATOM     27  H   UNL     1      36.309 -16.973 -24.179  0.00  0.00    -0.080 HD
BRANCH  25  28
ATOM     28  C   UNL     1      35.581 -17.895 -22.518  0.00  0.00    -0.077 C 
BRANCH  28  29
ATOM     29  C   UNL     1      34.505 -18.977 -22.449  0.00  0.00    -0.020 C 
BRANCH  29  30
ATOM     30  C   UNL     1      34.218 -19.380 -21.004  0.00  0.00    +0.032 C 
BRANCH  30  31
ATOM     31  C   UNL     1      32.860 -20.055 -20.866  0.00  0.00    +0.166 C 
BRANCH  31  32
ATOM     32  O   UNL     1      32.720 -20.595 -19.559  0.00  0.00    -0.289 OA
BRANCH  32  33
ATOM     33  N   UNL     1      32.999 -22.020 -19.643  0.00  0.00    -0.214 NA
ATOM     34  H   UNL     1      33.973 -22.160 -19.910  0.00  0.00    +0.150 HD
ATOM     35  H   UNL     1      32.390 -22.445 -20.342  0.00  0.00    +0.150 HD
ENDBRANCH  32  33
ENDBRANCH  31  32
ENDBRANCH  30  31
ENDBRANCH  29  30
ENDBRANCH  28  29
ENDBRANCH  25  28
ENDBRANCH  24  25
ENDBRANCH   2  24
TORSDOF 12
ENDMDL
MODEL 7
REMARK VINA RESULT:      -7.6      9.921     14.034
REMARK  Name = 25181315
REMARK  12 active torsions:
REMARK  status: ('A' for Active; 'I' for Inactive)
REMARK    1  A    between atoms: C_2  and  C_24
REMARK    2  A    between atoms: C_3  and  O_20
REMARK    3  A    between atoms: C_4  and  O_22
REMARK    4  A    between atoms: C_5  and  N_6
REMARK    5  A    between atoms: C_11  and  C_18
REMARK    6  A    between atoms: C_24  and  N_25
REMARK    7  A    between atoms: N_25  and  C_28
REMARK    8  A    between atoms: C_28  and  C_29
REMARK    9  A    between atoms: C_29  and  C_30
REMARK   10  A    between atoms: C_30  and  C_31
REMARK   11  A    between atoms: C_31  and  O_32
REMARK   12  A    between atoms: O_32  and  N_33
REMARK                            x       y       z     vdW  Elec       q    Type
REMARK                         _______ _______ _______ _____ _____    ______ ____
ROOT
ATOM      1  O   UNL     1      34.122 -13.325 -22.844  0.00  0.00    -0.337 OA
ATOM      2  C   UNL     1      33.174 -12.409 -23.437  0.00  0.00    +0.126 C 
ATOM      3  C   UNL     1      32.883 -12.939 -24.834  0.00  0.00    +0.166 C 
ATOM      4  C   UNL     1      33.078 -14.432 -24.658  0.00  0.00    +0.187 C 
ATOM      5  C   UNL     1      34.259 -14.484 -23.693  0.00  0.00    +0.229 C 
ENDROOT
BRANCH   5   6
ATOM      6  N   UNL     1      34.305 -15.759 -22.886  0.00  0.00    -0.221 N 
ATOM      7  N   UNL     1      34.215 -17.157 -21.152  0.00  0.00    -0.381 NA
ATOM      8  N   UNL     1      34.821 -17.334 -24.663  0.00  0.00    -0.227 NA
ATOM      9  N   UNL     1      34.998 -19.612 -23.805  0.00  0.00    -0.227 NA
ATOM     10  C   UNL     1      34.564 -17.003 -23.388  0.00  0.00    +0.169 C 
ATOM     11  C   UNL     1      34.104 -15.903 -21.539  0.00  0.00    +0.190 C 
ATOM     12  C   UNL     1      34.503 -17.855 -22.297  0.00  0.00    +0.195 C 
ATOM     13  C   UNL     1      34.732 -19.206 -22.540  0.00  0.00    +0.155 C 
ATOM     14  C   UNL     1      35.026 -18.664 -24.773  0.00  0.00    +0.253 C 
ATOM     15  N   UNL     1      34.690 -20.142 -21.492  0.00  0.00    -0.341 N 
ATOM     16  H   UNL     1      34.854 -21.095 -21.676  0.00  0.00    +0.144 HD
ATOM     17  H   UNL     1      34.497 -19.843 -20.574  0.00  0.00    +0.144 HD
BRANCH  11  18
ATOM     18  C   UNL     1      33.817 -14.756 -20.774  0.00  0.00    +0.048 C 
ATOM     19  C   UNL     1      32.716 -14.522 -19.981  0.00  0.00    +0.004 C 
ENDBRANCH  11  18
ENDBRANCH   5   6
BRANCH   3  20
ATOM     20  O   UNL     1      33.867 -12.409 -25.720  0.00  0.00    -0.380 OA
ATOM     21  H   UNL     1      34.469 -11.830 -25.226  0.00  0.00    +0.211 HD
ENDBRANCH   3  20
BRANCH   4  22
ATOM     22  O   UNL     1      33.331 -15.104 -25.876  0.00  0.00    -0.378 OA
ATOM     23  H   UNL     1      34.239 -14.919 -26.164  0.00  0.00    +0.211 HD
ENDBRANCH   4  22
BRANCH   2  24
ATOM     24  C   UNL     1      31.940 -12.360 -22.547  0.00  0.00    -0.045 C 
BRANCH  24  25
ATOM     25  N   UNL     1      31.928 -11.150 -21.737  0.00  0.00    +0.387 N 
ATOM     26  C   UNL     1      30.878 -11.219 -20.718  0.00  0.00    -0.101 C 
ATOM     27  H   UNL     1      32.831 -11.073 -21.267  0.00  0.00    -0.080 HD
BRANCH  25  28
ATOM     28  C   UNL     1      31.739  -9.966 -22.579  0.00  0.00    -0.077 C 
BRANCH  28  29
ATOM     29  C   UNL     1      32.072  -8.698 -21.794  0.00  0.00    -0.020 C 
BRANCH  29  30
ATOM     30  C   UNL     1      33.277  -7.977 -22.395  0.00  0.00    +0.032 C 
BRANCH  30  31
ATOM     31  C   UNL     1      33.715  -8.611 -23.709  0.00  0.00    +0.166 C 
BRANCH  31  32
ATOM     32  O   UNL     1      35.129  -8.752 -23.729  0.00  0.00    -0.289 OA
BRANCH  32  33
ATOM     33  N   UNL     1      35.431 -10.026 -24.363  0.00  0.00    -0.214 NA
ATOM     34  H   UNL     1      36.370  -9.993 -24.761  0.00  0.00    +0.150 HD
ATOM     35  H   UNL     1      34.753 -10.206 -25.104  0.00  0.00    +0.150 HD
ENDBRANCH  32  33
ENDBRANCH  31  32
ENDBRANCH  30  31
ENDBRANCH  29  30
ENDBRANCH  28  29
ENDBRANCH  25  28
ENDBRANCH  24  25
ENDBRANCH   2  24
TORSDOF 12
ENDMDL
MODEL 8
REMARK VINA RESULT:      -7.6      9.753     13.910
REMARK  Name = 25181315
REMARK  12 active torsions:
REMARK  status: ('A' for Active; 'I' for Inactive)
REMARK    1  A    between atoms: C_2  and  C_24
REMARK    2  A    between atoms: C_3  and  O_20
REMARK    3  A    between atoms: C_4  and  O_22
REMARK    4  A    between atoms: C_5  and  N_6
REMARK    5  A    between atoms: C_11  and  C_18
REMARK    6  A    between atoms: C_24  and  N_25
REMARK    7  A    between atoms: N_25  and  C_28
REMARK    8  A    between atoms: C_28  and  C_29
REMARK    9  A    between atoms: C_29  and  C_30
REMARK   10  A    between atoms: C_30  and  C_31
REMARK   11  A    between atoms: C_31  and  O_32
REMARK   12  A    between atoms: O_32  and  N_33
REMARK                            x       y       z     vdW  Elec       q    Type
REMARK                         _______ _______ _______ _____ _____    ______ ____
ROOT
ATOM      1  O   UNL     1      34.431 -13.314 -23.244  0.00  0.00    -0.337 OA
ATOM      2  C   UNL     1      33.557 -12.337 -23.851  0.00  0.00    +0.126 C 
ATOM      3  C   UNL     1      33.025 -12.972 -25.127  0.00  0.00    +0.166 C 
ATOM      4  C   UNL     1      33.028 -14.447 -24.777  0.00  0.00    +0.187 C 
ATOM      5  C   UNL     1      34.299 -14.570 -23.942  0.00  0.00    +0.229 C 
ENDROOT
BRANCH   5   6
ATOM      6  N   UNL     1      34.262 -15.735 -22.982  0.00  0.00    -0.221 N 
ATOM      7  N   UNL     1      34.016 -16.906 -21.101  0.00  0.00    -0.381 NA
ATOM      8  N   UNL     1      34.896 -17.521 -24.503  0.00  0.00    -0.227 NA
ATOM      9  N   UNL     1      34.973 -19.675 -23.359  0.00  0.00    -0.227 NA
ATOM     10  C   UNL     1      34.543 -17.033 -23.304  0.00  0.00    +0.169 C 
ATOM     11  C   UNL     1      33.954 -15.710 -21.648  0.00  0.00    +0.190 C 
ATOM     12  C   UNL     1      34.384 -17.743 -22.125  0.00  0.00    +0.195 C 
ATOM     13  C   UNL     1      34.613 -19.114 -22.179  0.00  0.00    +0.155 C 
ATOM     14  C   UNL     1      35.090 -18.855 -24.432  0.00  0.00    +0.253 C 
ATOM     15  N   UNL     1      34.475 -19.912 -21.030  0.00  0.00    -0.341 N 
ATOM     16  H   UNL     1      34.640 -20.881 -21.081  0.00  0.00    +0.144 HD
ATOM     17  H   UNL     1      34.214 -19.501 -20.175  0.00  0.00    +0.144 HD
BRANCH  11  18
ATOM     18  C   UNL     1      33.623 -14.476 -21.056  0.00  0.00    +0.048 C 
ATOM     19  C   UNL     1      32.613 -14.211 -20.158  0.00  0.00    +0.004 C 
ENDBRANCH  11  18
ENDBRANCH   5   6
BRANCH   3  20
ATOM     20  O   UNL     1      33.958 -12.707 -26.174  0.00  0.00    -0.380 OA
ATOM     21  H   UNL     1      33.489 -12.348 -26.943  0.00  0.00    +0.211 HD
ENDBRANCH   3  20
BRANCH   4  22
ATOM     22  O   UNL     1      33.033 -15.286 -25.915  0.00  0.00    -0.378 OA
ATOM     23  H   UNL     1      32.585 -14.837 -26.649  0.00  0.00    +0.211 HD
ENDBRANCH   4  22
BRANCH   2  24
ATOM     24  C   UNL     1      32.460 -11.994 -22.852  0.00  0.00    -0.045 C 
BRANCH  24  25
ATOM     25  N   UNL     1      31.938 -10.655 -23.088  0.00  0.00    +0.387 N 
ATOM     26  C   UNL     1      33.027  -9.678 -23.155  0.00  0.00    -0.101 C 
ATOM     27  H   UNL     1      31.450 -10.659 -23.984  0.00  0.00    -0.080 HD
BRANCH  25  28
ATOM     28  C   UNL     1      30.985 -10.280 -22.041  0.00  0.00    -0.077 C 
BRANCH  28  29
ATOM     29  C   UNL     1      30.942 -11.351 -20.952  0.00  0.00    -0.020 C 
BRANCH  29  30
ATOM     30  C   UNL     1      31.039 -10.729 -19.560  0.00  0.00    +0.032 C 
BRANCH  30  31
ATOM     31  C   UNL     1      32.284  -9.863 -19.417  0.00  0.00    +0.166 C 
BRANCH  31  32
ATOM     32  O   UNL     1      31.909  -8.501 -19.263  0.00  0.00    -0.289 OA
BRANCH  32  33
ATOM     33  N   UNL     1      32.985  -7.687 -19.806  0.00  0.00    -0.214 NA
ATOM     34  H   UNL     1      33.649  -8.286 -20.295  0.00  0.00    +0.150 HD
ATOM     35  H   UNL     1      33.460  -7.201 -19.045  0.00  0.00    +0.150 HD
ENDBRANCH  32  33
ENDBRANCH  31  32
ENDBRANCH  30  31
ENDBRANCH  29  30
ENDBRANCH  28  29
ENDBRANCH  25  28
ENDBRANCH  24  25
ENDBRANCH   2  24
TORSDOF 12
ENDMDL
MODEL 9
REMARK VINA RESULT:      -7.6      7.917     11.142
REMARK  Name = 25181315
REMARK  12 active torsions:
REMARK  status: ('A' for Active; 'I' for Inactive)
REMARK    1  A    between atoms: C_2  and  C_24
REMARK    2  A    between atoms: C_3  and  O_20
REMARK    3  A    between atoms: C_4  and  O_22
REMARK    4  A    between atoms: C_5  and  N_6
REMARK    5  A    between atoms: C_11  and  C_18
REMARK    6  A    between atoms: C_24  and  N_25
REMARK    7  A    between atoms: N_25  and  C_28
REMARK    8  A    between atoms: C_28  and  C_29
REMARK    9  A    between atoms: C_29  and  C_30
REMARK   10  A    between atoms: C_30  and  C_31
REMARK   11  A    between atoms: C_31  and  O_32
REMARK   12  A    between atoms: O_32  and  N_33
REMARK                            x       y       z     vdW  Elec       q    Type
REMARK                         _______ _______ _______ _____ _____    ______ ____
ROOT
ATOM      1  O   UNL     1      33.698 -17.138 -22.614  0.00  0.00    -0.337 OA
ATOM      2  C   UNL     1      34.611 -18.258 -22.620  0.00  0.00    +0.126 C 
ATOM      3  C   UNL     1      35.125 -18.384 -24.047  0.00  0.00    +0.166 C 
ATOM      4  C   UNL     1      35.065 -16.951 -24.538  0.00  0.00    +0.187 C 
ATOM      5  C   UNL     1      33.786 -16.445 -23.877  0.00  0.00    +0.229 C 
ENDROOT
BRANCH   5   6
ATOM      6  N   UNL     1      33.774 -14.946 -23.688  0.00  0.00    -0.221 N 
ATOM      7  N   UNL     1      33.805 -12.950 -22.697  0.00  0.00    -0.381 NA
ATOM      8  N   UNL     1      33.611 -14.256 -26.011  0.00  0.00    -0.227 NA
ATOM      9  N   UNL     1      33.560 -11.824 -26.212  0.00  0.00    -0.227 NA
ATOM     10  C   UNL     1      33.693 -14.024 -24.692  0.00  0.00    +0.169 C 
ATOM     11  C   UNL     1      33.838 -14.252 -22.509  0.00  0.00    +0.190 C 
ATOM     12  C   UNL     1      33.714 -12.793 -24.058  0.00  0.00    +0.195 C 
ATOM     13  C   UNL     1      33.644 -11.665 -24.869  0.00  0.00    +0.155 C 
ATOM     14  C   UNL     1      33.548 -13.091 -26.692  0.00  0.00    +0.253 C 
ATOM     15  N   UNL     1      33.660 -10.375 -24.310  0.00  0.00    -0.341 N 
ATOM     16  H   UNL     1      33.609  -9.585 -24.894  0.00  0.00    +0.144 HD
ATOM     17  H   UNL     1      33.721 -10.263 -23.334  0.00  0.00    +0.144 HD
BRANCH  11  18
ATOM     18  C   UNL     1      33.927 -14.977 -21.305  0.00  0.00    +0.048 C 
ATOM     19  C   UNL     1      32.996 -15.053 -20.292  0.00  0.00    +0.004 C 
ENDBRANCH  11  18
ENDBRANCH   5   6
BRANCH   3  20
ATOM     20  O   UNL     1      34.207 -19.198 -24.776  0.00  0.00    -0.380 OA
ATOM     21  H   UNL     1      34.415 -20.134 -24.626  0.00  0.00    +0.211 HD
ENDBRANCH   3  20
BRANCH   4  22
ATOM     22  O   UNL     1      35.034 -16.850 -25.948  0.00  0.00    -0.378 OA
ATOM     23  H   UNL     1      35.705 -16.214 -26.241  0.00  0.00    +0.211 HD
ENDBRANCH   4  22
BRANCH   2  24
ATOM     24  C   UNL     1      35.715 -17.977 -21.610  0.00  0.00    -0.045 C 
BRANCH  24  25
ATOM     25  N   UNL     1      35.749 -19.000 -20.575  0.00  0.00    +0.387 N 
ATOM     26  C   UNL     1      37.051 -19.670 -20.551  0.00  0.00    -0.101 C 
ATOM     27  H   UNL     1      35.602 -18.544 -19.673  0.00  0.00    -0.080 HD
BRANCH  25  28
ATOM     28  C   UNL     1      34.679 -19.980 -20.781  0.00  0.00    -0.077 C 
BRANCH  28  29
ATOM     29  C   UNL     1      34.782 -21.103 -19.750  0.00  0.00    -0.020 C 
BRANCH  29  30
ATOM     30  C   UNL     1      33.399 -21.605 -19.340  0.00  0.00    +0.032 C 
BRANCH  30  31
ATOM     31  C   UNL     1      33.488 -22.701 -18.287  0.00  0.00    +0.166 C 
BRANCH  31  32
ATOM     32  O   UNL     1      34.828 -22.824 -17.830  0.00  0.00    -0.289 OA
BRANCH  32  33
ATOM     33  N   UNL     1      34.798 -23.576 -16.585  0.00  0.00    -0.214 NA
ATOM     34  H   UNL     1      34.810 -24.574 -16.791  0.00  0.00    +0.150 HD
ATOM     35  H   UNL     1      33.949 -23.344 -16.069  0.00  0.00    +0.150 HD
ENDBRANCH  32  33
ENDBRANCH  31  32
ENDBRANCH  30  31
ENDBRANCH  29  30
ENDBRANCH  28  29
ENDBRANCH  25  28
ENDBRANCH  24  25
ENDBRANCH   2  24
TORSDOF 12
ENDMDL
