MODEL 1
REMARK VINA RESULT:      -9.4      0.000      0.000
REMARK  Name = 1714
REMARK  4 active torsions:
REMARK  status: ('A' for Active; 'I' for Inactive)
REMARK    1  A    between atoms: N_1  and  C_13
REMARK    2  A    between atoms: C_8  and  O_21
REMARK    3  A    between atoms: C_10  and  O_23
REMARK    4  A    between atoms: C_16  and  S_19
REMARK                            x       y       z     vdW  Elec       q    Type
REMARK                         _______ _______ _______ _____ _____    ______ ____
ROOT
ATOM      1  N   UNL     1      32.149 -12.356 -22.608  0.00  0.00    -0.301 N 
ATOM      2  N   UNL     1      33.778 -15.901 -21.227  0.00  0.00    -0.248 NA
ATOM      3  N   UNL     1      32.753 -13.758 -20.818  0.00  0.00    -0.233 NA
ATOM      4  C   UNL     1      33.176 -14.501 -23.078  0.00  0.00    +0.119 C 
ATOM      5  C   UNL     1      33.718 -15.686 -22.553  0.00  0.00    +0.070 C 
ATOM      6  C   UNL     1      32.709 -13.575 -22.151  0.00  0.00    +0.115 C 
ATOM      7  C   UNL     1      33.118 -14.287 -24.467  0.00  0.00    +0.027 C 
ATOM      8  C   UNL     1      33.602 -15.255 -25.342  0.00  0.00    +0.169 C 
ATOM      9  C   UNL     1      34.195 -16.637 -23.451  0.00  0.00    +0.055 C 
ATOM     10  C   UNL     1      34.141 -16.432 -24.832  0.00  0.00    +0.173 C 
ATOM     11  C   UNL     1      33.292 -14.926 -20.431  0.00  0.00    +0.251 C 
ATOM     12  H   UNL     1      31.710 -12.425 -23.487  0.00  0.00    +0.153 HD
ENDROOT
BRANCH   1  13
ATOM     13  C   UNL     1      32.098 -11.069 -22.051  0.00  0.00    +0.050 C 
ATOM     14  C   UNL     1      32.531  -9.964 -22.789  0.00  0.00    +0.021 C 
ATOM     15  C   UNL     1      31.616 -10.883 -20.751  0.00  0.00    +0.015 C 
ATOM     16  C   UNL     1      32.482  -8.685 -22.234  0.00  0.00    +0.026 C 
ATOM     17  C   UNL     1      31.566  -9.604 -20.197  0.00  0.00    +0.002 C 
ATOM     18  C   UNL     1      31.999  -8.505 -20.938  0.00  0.00    +0.006 C 
BRANCH  16  19
ATOM     19  S   UNL     1      33.035  -7.279 -23.181  0.00  0.00    -0.113 S 
ATOM     20  C   UNL     1      34.767  -7.712 -23.506  0.00  0.00    +0.074 C 
ENDBRANCH  16  19
ENDBRANCH   1  13
BRANCH   8  21
ATOM     21  O   UNL     1      33.543 -15.040 -26.685  0.00  0.00    -0.469 OA
ATOM     22  C   UNL     1      33.291 -13.704 -27.118  0.00  0.00    +0.253 C 
ENDBRANCH   8  21
BRANCH  10  23
ATOM     23  O   UNL     1      34.621 -17.393 -25.670  0.00  0.00    -0.468 OA
ATOM     24  C   UNL     1      34.553 -18.743 -25.216  0.00  0.00    +0.253 C 
ENDBRANCH  10  23
TORSDOF 4
ENDMDL
MODEL 2
REMARK VINA RESULT:      -9.4      2.127      3.382
REMARK  Name = 1714
REMARK  4 active torsions:
REMARK  status: ('A' for Active; 'I' for Inactive)
REMARK    1  A    between atoms: N_1  and  C_13
REMARK    2  A    between atoms: C_8  and  O_21
REMARK    3  A    between atoms: C_10  and  O_23
REMARK    4  A    between atoms: C_16  and  S_19
REMARK                            x       y       z     vdW  Elec       q    Type
REMARK                         _______ _______ _______ _____ _____    ______ ____
ROOT
ATOM      1  N   UNL     1      34.011 -12.230 -23.719  0.00  0.00    -0.301 N 
ATOM      2  N   UNL     1      33.383 -15.134 -26.599  0.00  0.00    -0.248 NA
ATOM      3  N   UNL     1      33.350 -12.829 -25.895  0.00  0.00    -0.233 NA
ATOM      4  C   UNL     1      34.065 -14.564 -24.373  0.00  0.00    +0.119 C 
ATOM      5  C   UNL     1      33.834 -15.505 -25.389  0.00  0.00    +0.070 C 
ATOM      6  C   UNL     1      33.802 -13.236 -24.694  0.00  0.00    +0.115 C 
ATOM      7  C   UNL     1      34.537 -14.964 -23.110  0.00  0.00    +0.027 C 
ATOM      8  C   UNL     1      34.781 -16.309 -22.852  0.00  0.00    +0.169 C 
ATOM      9  C   UNL     1      34.087 -16.845 -25.103  0.00  0.00    +0.055 C 
ATOM     10  C   UNL     1      34.556 -17.251 -23.852  0.00  0.00    +0.173 C 
ATOM     11  C   UNL     1      33.166 -13.816 -26.788  0.00  0.00    +0.251 C 
ATOM     12  H   UNL     1      34.730 -12.440 -23.079  0.00  0.00    +0.153 HD
ENDROOT
BRANCH   1  13
ATOM     13  C   UNL     1      33.393 -10.991 -23.487  0.00  0.00    +0.050 C 
ATOM     14  C   UNL     1      34.013  -9.807 -23.895  0.00  0.00    +0.021 C 
ATOM     15  C   UNL     1      32.153 -10.933 -22.844  0.00  0.00    +0.015 C 
ATOM     16  C   UNL     1      33.398  -8.576 -23.663  0.00  0.00    +0.026 C 
ATOM     17  C   UNL     1      31.538  -9.703 -22.612  0.00  0.00    +0.002 C 
ATOM     18  C   UNL     1      32.161  -8.524 -23.022  0.00  0.00    +0.006 C 
BRANCH  16  19
ATOM     19  S   UNL     1      34.193  -7.069 -24.187  0.00  0.00    -0.113 S 
ATOM     20  C   UNL     1      32.769  -6.035 -24.632  0.00  0.00    +0.074 C 
ENDBRANCH  16  19
ENDBRANCH   1  13
BRANCH   8  21
ATOM     21  O   UNL     1      35.238 -16.689 -21.627  0.00  0.00    -0.469 OA
ATOM     22  C   UNL     1      34.694 -16.015 -20.494  0.00  0.00    +0.253 C 
ENDBRANCH   8  21
BRANCH  10  23
ATOM     23  O   UNL     1      34.788 -18.573 -23.621  0.00  0.00    -0.468 OA
ATOM     24  C   UNL     1      34.649 -19.460 -24.730  0.00  0.00    +0.253 C 
ENDBRANCH  10  23
TORSDOF 4
ENDMDL
MODEL 3
REMARK VINA RESULT:      -9.4      9.460     12.118
REMARK  Name = 1714
REMARK  4 active torsions:
REMARK  status: ('A' for Active; 'I' for Inactive)
REMARK    1  A    between atoms: N_1  and  C_13
REMARK    2  A    between atoms: C_8  and  O_21
REMARK    3  A    between atoms: C_10  and  O_23
REMARK    4  A    between atoms: C_16  and  S_19
REMARK                            x       y       z     vdW  Elec       q    Type
REMARK                         _______ _______ _______ _____ _____    ______ ____
ROOT
ATOM      1  N   UNL     1      34.673 -22.303 -18.419  0.00  0.00    -0.301 N 
ATOM      2  N   UNL     1      32.358 -23.825 -15.344  0.00  0.00    -0.248 NA
ATOM      3  N   UNL     1      32.563 -22.876 -17.550  0.00  0.00    -0.233 NA
ATOM      4  C   UNL     1      34.527 -23.256 -16.194  0.00  0.00    +0.119 C 
ATOM      5  C   UNL     1      33.691 -23.763 -15.185  0.00  0.00    +0.070 C 
ATOM      6  C   UNL     1      33.894 -22.827 -17.357  0.00  0.00    +0.115 C 
ATOM      7  C   UNL     1      35.920 -23.195 -16.016  0.00  0.00    +0.027 C 
ATOM      8  C   UNL     1      36.491 -23.640 -14.827  0.00  0.00    +0.169 C 
ATOM      9  C   UNL     1      34.289 -24.201 -14.006  0.00  0.00    +0.055 C 
ATOM     10  C   UNL     1      35.673 -24.144 -13.821  0.00  0.00    +0.173 C 
ATOM     11  C   UNL     1      31.866 -23.379 -16.518  0.00  0.00    +0.251 C 
ATOM     12  H   UNL     1      35.580 -22.684 -18.472  0.00  0.00    +0.153 HD
ENDROOT
BRANCH   1  13
ATOM     13  C   UNL     1      34.403 -21.346 -19.409  0.00  0.00    +0.050 C 
ATOM     14  C   UNL     1      35.447 -20.633 -20.004  0.00  0.00    +0.021 C 
ATOM     15  C   UNL     1      33.085 -21.098 -19.807  0.00  0.00    +0.015 C 
ATOM     16  C   UNL     1      35.178 -19.682 -20.988  0.00  0.00    +0.026 C 
ATOM     17  C   UNL     1      32.816 -20.147 -20.791  0.00  0.00    +0.002 C 
ATOM     18  C   UNL     1      33.862 -19.439 -21.381  0.00  0.00    +0.006 C 
BRANCH  16  19
ATOM     19  S   UNL     1      36.515 -18.776 -21.743  0.00  0.00    -0.113 S 
ATOM     20  C   UNL     1      35.617 -17.578 -22.769  0.00  0.00    +0.074 C 
ENDBRANCH  16  19
ENDBRANCH   1  13
BRANCH   8  21
ATOM     21  O   UNL     1      37.840 -23.578 -14.663  0.00  0.00    -0.469 OA
ATOM     22  C   UNL     1      38.577 -24.781 -14.878  0.00  0.00    +0.253 C 
ENDBRANCH   8  21
BRANCH  10  23
ATOM     23  O   UNL     1      36.210 -24.586 -12.649  0.00  0.00    -0.468 OA
ATOM     24  C   UNL     1      36.244 -23.662 -11.563  0.00  0.00    +0.253 C 
ENDBRANCH  10  23
TORSDOF 4
ENDMDL
MODEL 4
REMARK VINA RESULT:      -9.3      3.843      7.735
REMARK  Name = 1714
REMARK  4 active torsions:
REMARK  status: ('A' for Active; 'I' for Inactive)
REMARK    1  A    between atoms: N_1  and  C_13
REMARK    2  A    between atoms: C_8  and  O_21
REMARK    3  A    between atoms: C_10  and  O_23
REMARK    4  A    between atoms: C_16  and  S_19
REMARK                            x       y       z     vdW  Elec       q    Type
REMARK                         _______ _______ _______ _____ _____    ______ ____
ROOT
ATOM      1  N   UNL     1      32.969 -13.889 -23.637  0.00  0.00    -0.301 N 
ATOM      2  N   UNL     1      34.141 -10.049 -24.637  0.00  0.00    -0.248 NA
ATOM      3  N   UNL     1      34.177 -12.427 -25.028  0.00  0.00    -0.233 NA
ATOM      4  C   UNL     1      32.896 -11.506 -23.197  0.00  0.00    +0.119 C 
ATOM      5  C   UNL     1      33.327 -10.226 -23.583  0.00  0.00    +0.070 C 
ATOM      6  C   UNL     1      33.361 -12.568 -23.967  0.00  0.00    +0.115 C 
ATOM      7  C   UNL     1      32.043 -11.680 -22.093  0.00  0.00    +0.027 C 
ATOM      8  C   UNL     1      31.614 -10.575 -21.364  0.00  0.00    +0.169 C 
ATOM      9  C   UNL     1      32.882  -9.138 -22.836  0.00  0.00    +0.055 C 
ATOM     10  C   UNL     1      32.034  -9.302 -21.737  0.00  0.00    +0.173 C 
ATOM     11  C   UNL     1      34.523 -11.158 -25.303  0.00  0.00    +0.251 C 
ATOM     12  H   UNL     1      32.079 -13.947 -23.219  0.00  0.00    +0.153 HD
ENDROOT
BRANCH   1  13
ATOM     13  C   UNL     1      33.603 -15.132 -23.791  0.00  0.00    +0.050 C 
ATOM     14  C   UNL     1      34.114 -15.805 -22.678  0.00  0.00    +0.021 C 
ATOM     15  C   UNL     1      33.728 -15.706 -25.060  0.00  0.00    +0.015 C 
ATOM     16  C   UNL     1      34.745 -17.040 -22.832  0.00  0.00    +0.026 C 
ATOM     17  C   UNL     1      34.358 -16.940 -25.214  0.00  0.00    +0.002 C 
ATOM     18  C   UNL     1      34.867 -17.608 -24.100  0.00  0.00    +0.006 C 
BRANCH  16  19
ATOM     19  S   UNL     1      35.395 -17.893 -21.408  0.00  0.00    -0.113 S 
ATOM     20  C   UNL     1      34.257 -19.300 -21.269  0.00  0.00    +0.074 C 
ENDBRANCH  16  19
ENDBRANCH   1  13
BRANCH   8  21
ATOM     21  O   UNL     1      30.788 -10.751 -20.296  0.00  0.00    -0.469 OA
ATOM     22  C   UNL     1      31.404 -10.896 -19.017  0.00  0.00    +0.253 C 
ENDBRANCH   8  21
BRANCH  10  23
ATOM     23  O   UNL     1      31.625  -8.206 -21.038  0.00  0.00    -0.468 OA
ATOM     24  C   UNL     1      32.615  -7.518 -20.275  0.00  0.00    +0.253 C 
ENDBRANCH  10  23
TORSDOF 4
ENDMDL
MODEL 5
REMARK VINA RESULT:      -9.1     12.665     14.789
REMARK  Name = 1714
REMARK  4 active torsions:
REMARK  status: ('A' for Active; 'I' for Inactive)
REMARK    1  A    between atoms: N_1  and  C_13
REMARK    2  A    between atoms: C_8  and  O_21
REMARK    3  A    between atoms: C_10  and  O_23
REMARK    4  A    between atoms: C_16  and  S_19
REMARK                            x       y       z     vdW  Elec       q    Type
REMARK                         _______ _______ _______ _____ _____    ______ ____
ROOT
ATOM      1  N   UNL     1      32.676 -23.627 -14.380  0.00  0.00    -0.301 N 
ATOM      2  N   UNL     1      36.040 -23.036 -16.717  0.00  0.00    -0.248 NA
ATOM      3  N   UNL     1      33.647 -23.001 -16.429  0.00  0.00    -0.233 NA
ATOM      4  C   UNL     1      35.088 -23.681 -14.612  0.00  0.00    +0.119 C 
ATOM      5  C   UNL     1      36.193 -23.463 -15.451  0.00  0.00    +0.070 C 
ATOM      6  C   UNL     1      33.837 -23.429 -15.167  0.00  0.00    +0.115 C 
ATOM      7  C   UNL     1      35.261 -24.127 -13.290  0.00  0.00    +0.027 C 
ATOM      8  C   UNL     1      36.541 -24.360 -12.796  0.00  0.00    +0.169 C 
ATOM      9  C   UNL     1      37.462 -23.704 -14.931  0.00  0.00    +0.055 C 
ATOM     10  C   UNL     1      37.643 -24.148 -13.618  0.00  0.00    +0.173 C 
ATOM     11  C   UNL     1      34.775 -22.828 -17.137  0.00  0.00    +0.251 C 
ATOM     12  H   UNL     1      32.818 -23.477 -13.417  0.00  0.00    +0.153 HD
ENDROOT
BRANCH   1  13
ATOM     13  C   UNL     1      31.361 -23.995 -14.706  0.00  0.00    +0.050 C 
ATOM     14  C   UNL     1      30.569 -23.156 -15.494  0.00  0.00    +0.021 C 
ATOM     15  C   UNL     1      30.834 -25.205 -14.244  0.00  0.00    +0.015 C 
ATOM     16  C   UNL     1      29.262 -23.522 -15.817  0.00  0.00    +0.026 C 
ATOM     17  C   UNL     1      29.528 -25.572 -14.567  0.00  0.00    +0.002 C 
ATOM     18  C   UNL     1      28.742 -24.730 -15.354  0.00  0.00    +0.006 C 
BRANCH  16  19
ATOM     19  S   UNL     1      28.257 -22.446 -16.822  0.00  0.00    -0.113 S 
ATOM     20  C   UNL     1      26.841 -22.136 -15.730  0.00  0.00    +0.074 C 
ENDBRANCH  16  19
ENDBRANCH   1  13
BRANCH   8  21
ATOM     21  O   UNL     1      36.701 -24.793 -11.515  0.00  0.00    -0.469 OA
ATOM     22  C   UNL     1      35.760 -24.324 -10.550  0.00  0.00    +0.253 C 
ENDBRANCH   8  21
BRANCH  10  23
ATOM     23  O   UNL     1      38.905 -24.369 -13.155  0.00  0.00    -0.468 OA
ATOM     24  C   UNL     1      39.617 -25.472 -13.713  0.00  0.00    +0.253 C 
ENDBRANCH  10  23
TORSDOF 4
ENDMDL
MODEL 6
REMARK VINA RESULT:      -8.9      3.618      7.293
REMARK  Name = 1714
REMARK  4 active torsions:
REMARK  status: ('A' for Active; 'I' for Inactive)
REMARK    1  A    between atoms: N_1  and  C_13
REMARK    2  A    between atoms: C_8  and  O_21
REMARK    3  A    between atoms: C_10  and  O_23
REMARK    4  A    between atoms: C_16  and  S_19
REMARK                            x       y       z     vdW  Elec       q    Type
REMARK                         _______ _______ _______ _____ _____    ______ ____
ROOT
ATOM      1  N   UNL     1      34.566 -15.225 -23.213  0.00  0.00    -0.301 N 
ATOM      2  N   UNL     1      32.003 -12.872 -20.972  0.00  0.00    -0.248 NA
ATOM      3  N   UNL     1      33.182 -14.944 -21.332  0.00  0.00    -0.233 NA
ATOM      4  C   UNL     1      33.405 -13.119 -22.901  0.00  0.00    +0.119 C 
ATOM      5  C   UNL     1      32.530 -12.367 -22.101  0.00  0.00    +0.070 C 
ATOM      6  C   UNL     1      33.691 -14.407 -22.456  0.00  0.00    +0.115 C 
ATOM      7  C   UNL     1      33.950 -12.581 -24.080  0.00  0.00    +0.027 C 
ATOM      8  C   UNL     1      33.623 -11.285 -24.469  0.00  0.00    +0.169 C 
ATOM      9  C   UNL     1      32.220 -11.074 -22.514  0.00  0.00    +0.055 C 
ATOM     10  C   UNL     1      32.757 -10.531 -23.684  0.00  0.00    +0.173 C 
ATOM     11  C   UNL     1      32.358 -14.133 -20.647  0.00  0.00    +0.251 C 
ATOM     12  H   UNL     1      35.251 -14.721 -23.711  0.00  0.00    +0.153 HD
ENDROOT
BRANCH   1  13
ATOM     13  C   UNL     1      34.647 -16.615 -23.391  0.00  0.00    +0.050 C 
ATOM     14  C   UNL     1      34.859 -17.455 -22.295  0.00  0.00    +0.021 C 
ATOM     15  C   UNL     1      34.517 -17.169 -24.668  0.00  0.00    +0.015 C 
ATOM     16  C   UNL     1      34.941 -18.836 -22.473  0.00  0.00    +0.026 C 
ATOM     17  C   UNL     1      34.598 -18.549 -24.846  0.00  0.00    +0.002 C 
ATOM     18  C   UNL     1      34.810 -19.383 -23.749  0.00  0.00    +0.006 C 
BRANCH  16  19
ATOM     19  S   UNL     1      35.211 -19.902 -21.069  0.00  0.00    -0.113 S 
ATOM     20  C   UNL     1      33.513 -20.211 -20.508  0.00  0.00    +0.074 C 
ENDBRANCH  16  19
ENDBRANCH   1  13
BRANCH   8  21
ATOM     21  O   UNL     1      34.154 -10.770 -25.612  0.00  0.00    -0.469 OA
ATOM     22  C   UNL     1      35.489 -10.271 -25.540  0.00  0.00    +0.253 C 
ENDBRANCH   8  21
BRANCH  10  23
ATOM     23  O   UNL     1      32.424  -9.260 -24.046  0.00  0.00    -0.468 OA
ATOM     24  C   UNL     1      31.467  -8.584 -23.233  0.00  0.00    +0.253 C 
ENDBRANCH  10  23
TORSDOF 4
ENDMDL
MODEL 7
REMARK VINA RESULT:      -8.9      2.380      3.907
REMARK  Name = 1714
REMARK  4 active torsions:
REMARK  status: ('A' for Active; 'I' for Inactive)
REMARK    1  A    between atoms: N_1  and  C_13
REMARK    2  A    between atoms: C_8  and  O_21
REMARK    3  A    between atoms: C_10  and  O_23
REMARK    4  A    between atoms: C_16  and  S_19
REMARK                            x       y       z     vdW  Elec       q    Type
REMARK                         _______ _______ _______ _____ _____    ______ ____
ROOT
ATOM      1  N   UNL     1      33.950 -13.082 -23.597  0.00  0.00    -0.301 N 
ATOM      2  N   UNL     1      33.139 -15.885 -26.532  0.00  0.00    -0.248 NA
ATOM      3  N   UNL     1      33.019 -13.631 -25.687  0.00  0.00    -0.233 NA
ATOM      4  C   UNL     1      34.101 -15.366 -24.398  0.00  0.00    +0.119 C 
ATOM      5  C   UNL     1      33.798 -16.273 -25.426  0.00  0.00    +0.070 C 
ATOM      6  C   UNL     1      33.681 -14.053 -24.593  0.00  0.00    +0.115 C 
ATOM      7  C   UNL     1      34.791 -15.782 -23.246  0.00  0.00    +0.027 C 
ATOM      8  C   UNL     1      35.184 -17.111 -23.112  0.00  0.00    +0.169 C 
ATOM      9  C   UNL     1      34.203 -17.596 -25.266  0.00  0.00    +0.055 C 
ATOM     10  C   UNL     1      34.889 -18.018 -24.125  0.00  0.00    +0.173 C 
ATOM     11  C   UNL     1      32.785 -14.585 -26.603  0.00  0.00    +0.251 C 
ATOM     12  H   UNL     1      34.773 -13.256 -23.084  0.00  0.00    +0.153 HD
ENDROOT
BRANCH   1  13
ATOM     13  C   UNL     1      33.272 -11.919 -23.200  0.00  0.00    +0.050 C 
ATOM     14  C   UNL     1      32.361 -11.962 -22.141  0.00  0.00    +0.021 C 
ATOM     15  C   UNL     1      33.503 -10.709 -23.861  0.00  0.00    +0.015 C 
ATOM     16  C   UNL     1      31.686 -10.806 -21.747  0.00  0.00    +0.026 C 
ATOM     17  C   UNL     1      32.829  -9.554 -23.467  0.00  0.00    +0.002 C 
ATOM     18  C   UNL     1      31.921  -9.602 -22.410  0.00  0.00    +0.006 C 
BRANCH  16  19
ATOM     19  S   UNL     1      30.525 -10.868 -20.396  0.00  0.00    -0.113 S 
ATOM     20  C   UNL     1      31.608 -10.592 -18.966  0.00  0.00    +0.074 C 
ENDBRANCH  16  19
ENDBRANCH   1  13
BRANCH   8  21
ATOM     21  O   UNL     1      35.851 -17.507 -21.994  0.00  0.00    -0.469 OA
ATOM     22  C   UNL     1      35.086 -18.147 -20.973  0.00  0.00    +0.253 C 
ENDBRANCH   8  21
BRANCH  10  23
ATOM     23  O   UNL     1      35.265 -19.323 -24.014  0.00  0.00    -0.468 OA
ATOM     24  C   UNL     1      34.894 -20.197 -25.079  0.00  0.00    +0.253 C 
ENDBRANCH  10  23
TORSDOF 4
ENDMDL
MODEL 8
REMARK VINA RESULT:      -8.8      1.965      3.389
REMARK  Name = 1714
REMARK  4 active torsions:
REMARK  status: ('A' for Active; 'I' for Inactive)
REMARK    1  A    between atoms: N_1  and  C_13
REMARK    2  A    between atoms: C_8  and  O_21
REMARK    3  A    between atoms: C_10  and  O_23
REMARK    4  A    between atoms: C_16  and  S_19
REMARK                            x       y       z     vdW  Elec       q    Type
REMARK                         _______ _______ _______ _____ _____    ______ ____
ROOT
ATOM      1  N   UNL     1      32.779 -10.547 -23.555  0.00  0.00    -0.301 N 
ATOM      2  N   UNL     1      31.718 -12.676 -20.169  0.00  0.00    -0.248 NA
ATOM      3  N   UNL     1      31.747 -10.630 -21.443  0.00  0.00    -0.233 NA
ATOM      4  C   UNL     1      32.780 -12.632 -22.319  0.00  0.00    +0.119 C 
ATOM      5  C   UNL     1      32.394 -13.304 -21.147  0.00  0.00    +0.070 C 
ATOM      6  C   UNL     1      32.422 -11.289 -22.403  0.00  0.00    +0.115 C 
ATOM      7  C   UNL     1      33.486 -13.298 -23.335  0.00  0.00    +0.027 C 
ATOM      8  C   UNL     1      33.813 -14.643 -23.189  0.00  0.00    +0.169 C 
ATOM      9  C   UNL     1      32.734 -14.649 -21.027  0.00  0.00    +0.055 C 
ATOM     10  C   UNL     1      33.436 -15.319 -22.033  0.00  0.00    +0.173 C 
ATOM     11  C   UNL     1      31.431 -11.373 -20.370  0.00  0.00    +0.251 C 
ATOM     12  H   UNL     1      32.829 -11.087 -24.377  0.00  0.00    +0.153 HD
ENDROOT
BRANCH   1  13
ATOM     13  C   UNL     1      33.075  -9.189 -23.754  0.00  0.00    +0.050 C 
ATOM     14  C   UNL     1      32.048  -8.242 -23.793  0.00  0.00    +0.021 C 
ATOM     15  C   UNL     1      34.401  -8.774 -23.916  0.00  0.00    +0.015 C 
ATOM     16  C   UNL     1      32.344  -6.893 -23.991  0.00  0.00    +0.026 C 
ATOM     17  C   UNL     1      34.696  -7.426 -24.113  0.00  0.00    +0.002 C 
ATOM     18  C   UNL     1      33.667  -6.485 -24.151  0.00  0.00    +0.006 C 
BRANCH  16  19
ATOM     19  S   UNL     1      31.029  -5.690 -24.039  0.00  0.00    -0.113 S 
ATOM     20  C   UNL     1      30.624  -5.515 -22.278  0.00  0.00    +0.074 C 
ENDBRANCH  16  19
ENDBRANCH   1  13
BRANCH   8  21
ATOM     21  O   UNL     1      34.497 -15.282 -24.177  0.00  0.00    -0.469 OA
ATOM     22  C   UNL     1      33.742 -15.739 -25.299  0.00  0.00    +0.253 C 
ENDBRANCH   8  21
BRANCH  10  23
ATOM     23  O   UNL     1      33.745 -16.636 -21.869  0.00  0.00    -0.468 OA
ATOM     24  C   UNL     1      34.947 -16.936 -21.162  0.00  0.00    +0.253 C 
ENDBRANCH  10  23
TORSDOF 4
ENDMDL
MODEL 9
REMARK VINA RESULT:      -8.5      1.868      2.872
REMARK  Name = 1714
REMARK  4 active torsions:
REMARK  status: ('A' for Active; 'I' for Inactive)
REMARK    1  A    between atoms: N_1  and  C_13
REMARK    2  A    between atoms: C_8  and  O_21
REMARK    3  A    between atoms: C_10  and  O_23
REMARK    4  A    between atoms: C_16  and  S_19
REMARK                            x       y       z     vdW  Elec       q    Type
REMARK                         _______ _______ _______ _____ _____    ______ ____
ROOT
ATOM      1  N   UNL     1      33.212 -11.785 -23.566  0.00  0.00    -0.301 N 
ATOM      2  N   UNL     1      32.274 -14.117 -20.279  0.00  0.00    -0.248 NA
ATOM      3  N   UNL     1      32.168 -12.025 -21.472  0.00  0.00    -0.233 NA
ATOM      4  C   UNL     1      33.350 -13.912 -22.411  0.00  0.00    +0.119 C 
ATOM      5  C   UNL     1      33.001 -14.656 -21.272  0.00  0.00    +0.070 C 
ATOM      6  C   UNL     1      32.898 -12.596 -22.447  0.00  0.00    +0.115 C 
ATOM      7  C   UNL     1      34.111 -14.486 -23.445  0.00  0.00    +0.027 C 
ATOM      8  C   UNL     1      34.531 -15.809 -23.347  0.00  0.00    +0.169 C 
ATOM      9  C   UNL     1      33.436 -15.977 -21.200  0.00  0.00    +0.055 C 
ATOM     10  C   UNL     1      34.192 -16.555 -22.223  0.00  0.00    +0.173 C 
ATOM     11  C   UNL     1      31.896 -12.831 -20.431  0.00  0.00    +0.251 C 
ATOM     12  H   UNL     1      33.307 -12.288 -24.408  0.00  0.00    +0.153 HD
ENDROOT
BRANCH   1  13
ATOM     13  C   UNL     1      33.412 -10.403 -23.708  0.00  0.00    +0.050 C 
ATOM     14  C   UNL     1      32.380  -9.507 -23.415  0.00  0.00    +0.021 C 
ATOM     15  C   UNL     1      34.647  -9.912 -24.145  0.00  0.00    +0.015 C 
ATOM     16  C   UNL     1      32.580  -8.134 -23.557  0.00  0.00    +0.026 C 
ATOM     17  C   UNL     1      34.847  -8.540 -24.286  0.00  0.00    +0.002 C 
ATOM     18  C   UNL     1      33.813  -7.650 -23.993  0.00  0.00    +0.006 C 
BRANCH  16  19
ATOM     19  S   UNL     1      31.259  -6.997 -23.182  0.00  0.00    -0.113 S 
ATOM     20  C   UNL     1      31.732  -6.414 -21.529  0.00  0.00    +0.074 C 
ENDBRANCH  16  19
ENDBRANCH   1  13
BRANCH   8  21
ATOM     21  O   UNL     1      35.268 -16.359 -24.351  0.00  0.00    -0.469 OA
ATOM     22  C   UNL     1      34.554 -17.032 -25.387  0.00  0.00    +0.253 C 
ENDBRANCH   8  21
BRANCH  10  23
ATOM     23  O   UNL     1      34.593 -17.853 -22.107  0.00  0.00    -0.468 OA
ATOM     24  C   UNL     1      35.671 -18.121 -21.211  0.00  0.00    +0.253 C 
ENDBRANCH  10  23
TORSDOF 4
ENDMDL
