MODEL 1
REMARK VINA RESULT:      -7.7      0.000      0.000
REMARK  Name = 444291
REMARK  7 active torsions:
REMARK  status: ('A' for Active; 'I' for Inactive)
REMARK    1  A    between atoms: C_2  and  O_16
REMARK    2  A    between atoms: C_3  and  C_18
REMARK    3  A    between atoms: C_5  and  N_8
REMARK    4  A    between atoms: C_18  and  O_19
REMARK    5  A    between atoms: O_19  and  P_20
REMARK    6  A    between atoms: P_20  and  S_22
REMARK    7  A    between atoms: P_20  and  S_24
REMARK                            x       y       z     vdW  Elec       q    Type
REMARK                         _______ _______ _______ _____ _____    ______ ____
ROOT
ATOM      1  O   UNL     1      35.874 -16.677 -22.930  0.00  0.00    -0.335 OA
ATOM      2  C   UNL     1      34.247 -16.756 -24.652  0.00  0.00    +0.144 C 
ATOM      3  C   UNL     1      34.874 -15.872 -23.583  0.00  0.00    +0.174 C 
ATOM      4  C   UNL     1      34.391 -18.145 -24.074  0.00  0.00    +0.083 C 
ATOM      5  C   UNL     1      35.701 -18.050 -23.309  0.00  0.00    +0.202 C 
ENDROOT
BRANCH   5   8
ATOM      6  O   UNL     1      38.027 -18.716 -21.808  0.00  0.00    -0.252 OA
ATOM      7  O   UNL     1      35.587 -21.222 -18.822  0.00  0.00    -0.270 OA
ATOM      8  N   UNL     1      35.720 -18.872 -22.135  0.00  0.00    -0.219 N 
ATOM      9  N   UNL     1      36.798 -19.963 -20.327  0.00  0.00    -0.236 N 
ATOM     10  C   UNL     1      34.520 -19.397 -21.675  0.00  0.00    +0.071 C 
ATOM     11  C   UNL     1      36.927 -19.147 -21.456  0.00  0.00    +0.315 C 
ATOM     12  C   UNL     1      34.400 -20.177 -20.594  0.00  0.00    +0.047 C 
ATOM     13  C   UNL     1      35.628 -20.512 -19.824  0.00  0.00    +0.250 C 
ATOM     14  C   UNL     1      33.097 -20.732 -20.115  0.00  0.00    +0.037 C 
ATOM     15  H   UNL     1      37.626 -20.169 -19.836  0.00  0.00    +0.159 HD
ENDBRANCH   5   8
BRANCH   2  16
ATOM     16  O   UNL     1      34.995 -16.660 -25.863  0.00  0.00    -0.382 OA
ATOM     17  H   UNL     1      35.676 -15.976 -25.768  0.00  0.00    +0.210 HD
ENDBRANCH   2  16
BRANCH   3  18
ATOM     18  C   UNL     1      33.874 -15.420 -22.528  0.00  0.00    +0.183 C 
BRANCH  18  19
ATOM     19  O   UNL     1      33.969 -14.012 -22.381  0.00  0.00    -0.297 OA
BRANCH  19  20
ATOM     20  P   UNL     1      32.921 -13.035 -23.152  0.00  0.00    +0.310 P 
ATOM     21  O   UNL     1      32.048 -13.839 -24.083  0.00  0.00    -0.267 OA
BRANCH  20  22
ATOM     22  S   UNL     1      31.694 -12.050 -21.751  0.00  0.00    -0.077 S 
ATOM     23  H   UNL     1      30.468 -12.639 -21.730  0.00  0.00    +0.112 HD
ENDBRANCH  20  22
BRANCH  20  24
ATOM     24  S   UNL     1      33.984 -11.614 -24.289  0.00  0.00    -0.077 S 
ATOM     25  H   UNL     1      35.318 -11.858 -24.187  0.00  0.00    +0.112 HD
ENDBRANCH  20  24
ENDBRANCH  19  20
ENDBRANCH  18  19
ENDBRANCH   3  18
TORSDOF 7
ENDMDL
MODEL 2
REMARK VINA RESULT:      -7.6      6.522      9.451
REMARK  Name = 444291
REMARK  7 active torsions:
REMARK  status: ('A' for Active; 'I' for Inactive)
REMARK    1  A    between atoms: C_2  and  O_16
REMARK    2  A    between atoms: C_3  and  C_18
REMARK    3  A    between atoms: C_5  and  N_8
REMARK    4  A    between atoms: C_18  and  O_19
REMARK    5  A    between atoms: O_19  and  P_20
REMARK    6  A    between atoms: P_20  and  S_22
REMARK    7  A    between atoms: P_20  and  S_24
REMARK                            x       y       z     vdW  Elec       q    Type
REMARK                         _______ _______ _______ _____ _____    ______ ____
ROOT
ATOM      1  O   UNL     1      32.771 -23.845 -17.241  0.00  0.00    -0.335 OA
ATOM      2  C   UNL     1      32.963 -23.565 -14.894  0.00  0.00    +0.144 C 
ATOM      3  C   UNL     1      31.980 -23.775 -16.038  0.00  0.00    +0.174 C 
ATOM      4  C   UNL     1      34.100 -22.820 -15.553  0.00  0.00    +0.083 C 
ATOM      5  C   UNL     1      34.105 -23.402 -16.958  0.00  0.00    +0.202 C 
ENDROOT
BRANCH   5   8
ATOM      6  O   UNL     1      36.767 -22.468 -17.352  0.00  0.00    -0.252 OA
ATOM      7  O   UNL     1      35.476 -19.747 -20.827  0.00  0.00    -0.270 OA
ATOM      8  N   UNL     1      34.510 -22.451 -17.951  0.00  0.00    -0.219 N 
ATOM      9  N   UNL     1      36.109 -21.115 -19.083  0.00  0.00    -0.236 N 
ATOM     10  C   UNL     1      33.543 -21.929 -18.801  0.00  0.00    +0.071 C 
ATOM     11  C   UNL     1      35.858 -22.048 -18.071  0.00  0.00    +0.315 C 
ATOM     12  C   UNL     1      33.787 -21.037 -19.768  0.00  0.00    +0.047 C 
ATOM     13  C   UNL     1      35.184 -20.564 -19.957  0.00  0.00    +0.250 C 
ATOM     14  C   UNL     1      32.731 -20.488 -20.673  0.00  0.00    +0.037 C 
ATOM     15  H   UNL     1      37.042 -20.819 -19.186  0.00  0.00    +0.159 HD
ENDBRANCH   5   8
BRANCH   2  16
ATOM     16  O   UNL     1      33.428 -24.826 -14.415  0.00  0.00    -0.382 OA
ATOM     17  H   UNL     1      32.913 -25.085 -13.635  0.00  0.00    +0.210 HD
ENDBRANCH   2  16
BRANCH   3  18
ATOM     18  C   UNL     1      30.995 -22.625 -16.191  0.00  0.00    +0.183 C 
BRANCH  18  19
ATOM     19  O   UNL     1      29.945 -23.032 -17.054  0.00  0.00    -0.297 OA
BRANCH  19  20
ATOM     20  P   UNL     1      28.595 -23.703 -16.442  0.00  0.00    +0.310 P 
ATOM     21  O   UNL     1      27.889 -24.511 -17.503  0.00  0.00    -0.267 OA
BRANCH  20  22
ATOM     22  S   UNL     1      29.090 -24.974 -14.837  0.00  0.00    -0.077 S 
ATOM     23  H   UNL     1      28.021 -25.092 -14.006  0.00  0.00    +0.112 HD
ENDBRANCH  20  22
BRANCH  20  24
ATOM     24  S   UNL     1      27.292 -22.188 -15.774  0.00  0.00    -0.077 S 
ATOM     25  H   UNL     1      26.005 -22.616 -15.883  0.00  0.00    +0.112 HD
ENDBRANCH  20  24
ENDBRANCH  19  20
ENDBRANCH  18  19
ENDBRANCH   3  18
TORSDOF 7
ENDMDL
MODEL 3
REMARK VINA RESULT:      -7.5      9.541     11.599
REMARK  Name = 444291
REMARK  7 active torsions:
REMARK  status: ('A' for Active; 'I' for Inactive)
REMARK    1  A    between atoms: C_2  and  O_16
REMARK    2  A    between atoms: C_3  and  C_18
REMARK    3  A    between atoms: C_5  and  N_8
REMARK    4  A    between atoms: C_18  and  O_19
REMARK    5  A    between atoms: O_19  and  P_20
REMARK    6  A    between atoms: P_20  and  S_22
REMARK    7  A    between atoms: P_20  and  S_24
REMARK                            x       y       z     vdW  Elec       q    Type
REMARK                         _______ _______ _______ _____ _____    ______ ____
ROOT
ATOM      1  O   UNL     1      34.948 -24.600 -16.230  0.00  0.00    -0.335 OA
ATOM      2  C   UNL     1      36.624 -23.099 -15.483  0.00  0.00    +0.144 C 
ATOM      3  C   UNL     1      36.124 -24.535 -15.400  0.00  0.00    +0.174 C 
ATOM      4  C   UNL     1      35.359 -22.310 -15.728  0.00  0.00    +0.083 C 
ATOM      5  C   UNL     1      34.529 -23.270 -16.565  0.00  0.00    +0.202 C 
ENDROOT
BRANCH   5   8
ATOM      6  O   UNL     1      32.606 -22.420 -18.486  0.00  0.00    -0.252 OA
ATOM      7  O   UNL     1      29.160 -22.838 -15.469  0.00  0.00    -0.270 OA
ATOM      8  N   UNL     1      33.121 -23.142 -16.326  0.00  0.00    -0.219 N 
ATOM      9  N   UNL     1      30.898 -22.632 -16.970  0.00  0.00    -0.236 N 
ATOM     10  C   UNL     1      32.634 -23.451 -15.063  0.00  0.00    +0.071 C 
ATOM     11  C   UNL     1      32.243 -22.711 -17.344  0.00  0.00    +0.315 C 
ATOM     12  C   UNL     1      31.345 -23.374 -14.709  0.00  0.00    +0.047 C 
ATOM     13  C   UNL     1      30.358 -22.929 -15.728  0.00  0.00    +0.250 C 
ATOM     14  C   UNL     1      30.841 -23.712 -13.343  0.00  0.00    +0.037 C 
ATOM     15  H   UNL     1      30.265 -22.335 -17.665  0.00  0.00    +0.159 HD
ENDBRANCH   5   8
BRANCH   2  16
ATOM     16  O   UNL     1      37.504 -22.954 -16.597  0.00  0.00    -0.382 OA
ATOM     17  H   UNL     1      38.199 -22.314 -16.378  0.00  0.00    +0.210 HD
ENDBRANCH   2  16
BRANCH   3  18
ATOM     18  C   UNL     1      35.725 -24.942 -13.989  0.00  0.00    +0.183 C 
BRANCH  18  19
ATOM     19  O   UNL     1      36.631 -25.930 -13.524  0.00  0.00    -0.297 OA
BRANCH  19  20
ATOM     20  P   UNL     1      37.996 -25.494 -12.755  0.00  0.00    +0.310 P 
ATOM     21  O   UNL     1      38.303 -26.469 -11.646  0.00  0.00    -0.267 OA
BRANCH  20  22
ATOM     22  S   UNL     1      39.608 -25.477 -14.111  0.00  0.00    -0.077 S 
ATOM     23  H   UNL     1      39.182 -25.909 -15.328  0.00  0.00    +0.112 HD
ENDBRANCH  20  22
BRANCH  20  24
ATOM     24  S   UNL     1      37.754 -23.576 -11.915  0.00  0.00    -0.077 S 
ATOM     25  H   UNL     1      38.407 -23.518 -10.723  0.00  0.00    +0.112 HD
ENDBRANCH  20  24
ENDBRANCH  19  20
ENDBRANCH  18  19
ENDBRANCH   3  18
TORSDOF 7
ENDMDL
MODEL 4
REMARK VINA RESULT:      -7.4      4.481      7.166
REMARK  Name = 444291
REMARK  7 active torsions:
REMARK  status: ('A' for Active; 'I' for Inactive)
REMARK    1  A    between atoms: C_2  and  O_16
REMARK    2  A    between atoms: C_3  and  C_18
REMARK    3  A    between atoms: C_5  and  N_8
REMARK    4  A    between atoms: C_18  and  O_19
REMARK    5  A    between atoms: O_19  and  P_20
REMARK    6  A    between atoms: P_20  and  S_22
REMARK    7  A    between atoms: P_20  and  S_24
REMARK                            x       y       z     vdW  Elec       q    Type
REMARK                         _______ _______ _______ _____ _____    ______ ____
ROOT
ATOM      1  O   UNL     1      34.591 -14.089 -21.844  0.00  0.00    -0.335 OA
ATOM      2  C   UNL     1      32.929 -15.286 -20.651  0.00  0.00    +0.144 C 
ATOM      3  C   UNL     1      34.416 -15.220 -20.970  0.00  0.00    +0.174 C 
ATOM      4  C   UNL     1      32.288 -14.690 -21.882  0.00  0.00    +0.083 C 
ATOM      5  C   UNL     1      33.309 -13.649 -22.314  0.00  0.00    +0.202 C 
ENDROOT
BRANCH   5   8
ATOM      6  O   UNL     1      33.962 -11.221 -23.651  0.00  0.00    -0.252 OA
ATOM      7  O   UNL     1      33.454 -13.167 -27.787  0.00  0.00    -0.270 OA
ATOM      8  N   UNL     1      33.359 -13.476 -23.736  0.00  0.00    -0.219 N 
ATOM      9  N   UNL     1      33.704 -12.204 -25.707  0.00  0.00    -0.236 N 
ATOM     10  C   UNL     1      33.069 -14.565 -24.546  0.00  0.00    +0.071 C 
ATOM     11  C   UNL     1      33.694 -12.229 -24.308  0.00  0.00    +0.315 C 
ATOM     12  C   UNL     1      33.080 -14.538 -25.885  0.00  0.00    +0.047 C 
ATOM     13  C   UNL     1      33.425 -13.260 -26.563  0.00  0.00    +0.250 C 
ATOM     14  C   UNL     1      32.765 -15.723 -26.739  0.00  0.00    +0.037 C 
ATOM     15  H   UNL     1      33.936 -11.345 -26.130  0.00  0.00    +0.159 HD
ENDBRANCH   5   8
BRANCH   2  16
ATOM     16  O   UNL     1      32.639 -14.471 -19.516  0.00  0.00    -0.382 OA
ATOM     17  H   UNL     1      32.986 -13.578 -19.663  0.00  0.00    +0.210 HD
ENDBRANCH   2  16
BRANCH   3  18
ATOM     18  C   UNL     1      34.920 -16.458 -21.699  0.00  0.00    +0.183 C 
BRANCH  18  19
ATOM     19  O   UNL     1      34.944 -17.547 -20.790  0.00  0.00    -0.297 OA
BRANCH  19  20
ATOM     20  P   UNL     1      34.845 -19.075 -21.339  0.00  0.00    +0.310 P 
ATOM     21  O   UNL     1      36.009 -19.888 -20.829  0.00  0.00    -0.267 OA
BRANCH  20  22
ATOM     22  S   UNL     1      33.054 -19.961 -20.673  0.00  0.00    -0.077 S 
ATOM     23  H   UNL     1      32.206 -18.994 -20.233  0.00  0.00    +0.112 HD
ENDBRANCH  20  22
BRANCH  20  24
ATOM     24  S   UNL     1      34.899 -19.076 -23.446  0.00  0.00    -0.077 S 
ATOM     25  H   UNL     1      33.868 -19.823 -23.925  0.00  0.00    +0.112 HD
ENDBRANCH  20  24
ENDBRANCH  19  20
ENDBRANCH  18  19
ENDBRANCH   3  18
TORSDOF 7
ENDMDL
MODEL 5
REMARK VINA RESULT:      -7.2      5.361      8.006
REMARK  Name = 444291
REMARK  7 active torsions:
REMARK  status: ('A' for Active; 'I' for Inactive)
REMARK    1  A    between atoms: C_2  and  O_16
REMARK    2  A    between atoms: C_3  and  C_18
REMARK    3  A    between atoms: C_5  and  N_8
REMARK    4  A    between atoms: C_18  and  O_19
REMARK    5  A    between atoms: O_19  and  P_20
REMARK    6  A    between atoms: P_20  and  S_22
REMARK    7  A    between atoms: P_20  and  S_24
REMARK                            x       y       z     vdW  Elec       q    Type
REMARK                         _______ _______ _______ _____ _____    ______ ____
ROOT
ATOM      1  O   UNL     1      31.809 -13.269 -22.695  0.00  0.00    -0.335 OA
ATOM      2  C   UNL     1      33.703 -13.797 -24.019  0.00  0.00    +0.144 C 
ATOM      3  C   UNL     1      32.744 -14.332 -22.965  0.00  0.00    +0.174 C 
ATOM      4  C   UNL     1      33.717 -12.311 -23.748  0.00  0.00    +0.083 C 
ATOM      5  C   UNL     1      32.296 -12.050 -23.272  0.00  0.00    +0.202 C 
ENDROOT
BRANCH   5   8
ATOM      6  O   UNL     1      32.876  -9.306 -23.765  0.00  0.00    -0.252 OA
ATOM      7  O   UNL     1      31.947  -8.155 -19.410  0.00  0.00    -0.270 OA
ATOM      8  N   UNL     1      32.220 -11.001 -22.299  0.00  0.00    -0.219 N 
ATOM      9  N   UNL     1      32.411  -8.746 -21.590  0.00  0.00    -0.236 N 
ATOM     10  C   UNL     1      31.835 -11.325 -21.005  0.00  0.00    +0.071 C 
ATOM     11  C   UNL     1      32.527  -9.665 -22.638  0.00  0.00    +0.315 C 
ATOM     12  C   UNL     1      31.724 -10.443 -20.004  0.00  0.00    +0.047 C 
ATOM     13  C   UNL     1      32.031  -9.015 -20.284  0.00  0.00    +0.250 C 
ATOM     14  C   UNL     1      31.308 -10.813 -18.617  0.00  0.00    +0.037 C 
ATOM     15  H   UNL     1      32.620  -7.808 -21.803  0.00  0.00    +0.159 HD
ENDBRANCH   5   8
BRANCH   2  16
ATOM     16  O   UNL     1      33.178 -14.043 -25.323  0.00  0.00    -0.382 OA
ATOM     17  H   UNL     1      33.781 -13.677 -25.988  0.00  0.00    +0.210 HD
ENDBRANCH   2  16
BRANCH   3  18
ATOM     18  C   UNL     1      33.440 -14.686 -21.658  0.00  0.00    +0.183 C 
BRANCH  18  19
ATOM     19  O   UNL     1      33.176 -16.046 -21.352  0.00  0.00    -0.297 OA
BRANCH  19  20
ATOM     20  P   UNL     1      34.371 -17.148 -21.420  0.00  0.00    +0.310 P 
ATOM     21  O   UNL     1      35.427 -16.835 -20.389  0.00  0.00    -0.267 OA
BRANCH  20  22
ATOM     22  S   UNL     1      33.598 -19.069 -21.037  0.00  0.00    -0.077 S 
ATOM     23  H   UNL     1      34.590 -19.872 -20.568  0.00  0.00    +0.112 HD
ENDBRANCH  20  22
BRANCH  20  24
ATOM     24  S   UNL     1      35.264 -17.108 -23.329  0.00  0.00    -0.077 S 
ATOM     25  H   UNL     1      35.627 -15.832 -23.632  0.00  0.00    +0.112 HD
ENDBRANCH  20  24
ENDBRANCH  19  20
ENDBRANCH  18  19
ENDBRANCH   3  18
TORSDOF 7
ENDMDL
MODEL 6
REMARK VINA RESULT:      -7.0      7.747     10.239
REMARK  Name = 444291
REMARK  7 active torsions:
REMARK  status: ('A' for Active; 'I' for Inactive)
REMARK    1  A    between atoms: C_2  and  O_16
REMARK    2  A    between atoms: C_3  and  C_18
REMARK    3  A    between atoms: C_5  and  N_8
REMARK    4  A    between atoms: C_18  and  O_19
REMARK    5  A    between atoms: O_19  and  P_20
REMARK    6  A    between atoms: P_20  and  S_22
REMARK    7  A    between atoms: P_20  and  S_24
REMARK                            x       y       z     vdW  Elec       q    Type
REMARK                         _______ _______ _______ _____ _____    ______ ____
ROOT
ATOM      1  O   UNL     1      30.937  -7.911 -22.888  0.00  0.00    -0.335 OA
ATOM      2  C   UNL     1      32.227  -6.127 -22.007  0.00  0.00    +0.144 C 
ATOM      3  C   UNL     1      31.176  -6.499 -23.045  0.00  0.00    +0.174 C 
ATOM      4  C   UNL     1      33.018  -7.405 -21.849  0.00  0.00    +0.083 C 
ATOM      5  C   UNL     1      31.959  -8.476 -22.055  0.00  0.00    +0.202 C 
ENDROOT
BRANCH   5   8
ATOM      6  O   UNL     1      31.072 -11.131 -21.535  0.00  0.00    -0.252 OA
ATOM      7  O   UNL     1      34.067 -12.900 -24.543  0.00  0.00    -0.270 OA
ATOM      8  N   UNL     1      32.478  -9.658 -22.678  0.00  0.00    -0.219 N 
ATOM      9  N   UNL     1      32.571 -12.000 -23.037  0.00  0.00    -0.236 N 
ATOM     10  C   UNL     1      33.496  -9.522 -23.612  0.00  0.00    +0.071 C 
ATOM     11  C   UNL     1      31.972 -10.936 -22.354  0.00  0.00    +0.315 C 
ATOM     12  C   UNL     1      34.067 -10.543 -24.265  0.00  0.00    +0.047 C 
ATOM     13  C   UNL     1      33.587 -11.921 -23.978  0.00  0.00    +0.250 C 
ATOM     14  C   UNL     1      35.162 -10.374 -25.268  0.00  0.00    +0.037 C 
ATOM     15  H   UNL     1      32.235 -12.902 -22.829  0.00  0.00    +0.159 HD
ENDBRANCH   5   8
BRANCH   2  16
ATOM     16  O   UNL     1      31.594  -5.798 -20.771  0.00  0.00    -0.382 OA
ATOM     17  H   UNL     1      32.250  -5.425 -20.162  0.00  0.00    +0.210 HD
ENDBRANCH   2  16
BRANCH   3  18
ATOM     18  C   UNL     1      31.644  -6.258 -24.473  0.00  0.00    +0.183 C 
BRANCH  18  19
ATOM     19  O   UNL     1      32.353  -5.030 -24.522  0.00  0.00    -0.297 OA
BRANCH  19  20
ATOM     20  P   UNL     1      31.580  -3.653 -24.913  0.00  0.00    +0.310 P 
ATOM     21  O   UNL     1      30.113  -3.925 -25.138  0.00  0.00    -0.267 OA
BRANCH  20  22
ATOM     22  S   UNL     1      31.778  -2.252 -23.352  0.00  0.00    -0.077 S 
ATOM     23  H   UNL     1      31.243  -1.063 -23.740  0.00  0.00    +0.112 HD
ENDBRANCH  20  22
BRANCH  20  24
ATOM     24  S   UNL     1      32.396  -2.861 -26.687  0.00  0.00    -0.077 S 
ATOM     25  H   UNL     1      32.766  -1.569 -26.479  0.00  0.00    +0.112 HD
ENDBRANCH  20  24
ENDBRANCH  19  20
ENDBRANCH  18  19
ENDBRANCH   3  18
TORSDOF 7
ENDMDL
MODEL 7
REMARK VINA RESULT:      -7.0      6.052      8.875
REMARK  Name = 444291
REMARK  7 active torsions:
REMARK  status: ('A' for Active; 'I' for Inactive)
REMARK    1  A    between atoms: C_2  and  O_16
REMARK    2  A    between atoms: C_3  and  C_18
REMARK    3  A    between atoms: C_5  and  N_8
REMARK    4  A    between atoms: C_18  and  O_19
REMARK    5  A    between atoms: O_19  and  P_20
REMARK    6  A    between atoms: P_20  and  S_22
REMARK    7  A    between atoms: P_20  and  S_24
REMARK                            x       y       z     vdW  Elec       q    Type
REMARK                         _______ _______ _______ _____ _____    ______ ____
ROOT
ATOM      1  O   UNL     1      33.520 -23.372 -18.383  0.00  0.00    -0.335 OA
ATOM      2  C   UNL     1      34.327 -23.443 -16.155  0.00  0.00    +0.144 C 
ATOM      3  C   UNL     1      33.090 -23.604 -17.028  0.00  0.00    +0.174 C 
ATOM      4  C   UNL     1      35.165 -22.453 -16.930  0.00  0.00    +0.083 C 
ATOM      5  C   UNL     1      34.835 -22.798 -18.373  0.00  0.00    +0.202 C 
ENDROOT
BRANCH   5   8
ATOM      6  O   UNL     1      37.188 -21.488 -19.295  0.00  0.00    -0.252 OA
ATOM      7  O   UNL     1      34.743 -18.420 -21.695  0.00  0.00    -0.270 OA
ATOM      8  N   UNL     1      34.860 -21.655 -19.238  0.00  0.00    -0.219 N 
ATOM      9  N   UNL     1      35.956 -19.964 -20.486  0.00  0.00    -0.236 N 
ATOM     10  C   UNL     1      33.652 -21.128 -19.673  0.00  0.00    +0.071 C 
ATOM     11  C   UNL     1      36.081 -21.073 -19.643  0.00  0.00    +0.315 C 
ATOM     12  C   UNL     1      33.537 -20.066 -20.481  0.00  0.00    +0.047 C 
ATOM     13  C   UNL     1      34.779 -19.398 -20.951  0.00  0.00    +0.250 C 
ATOM     14  C   UNL     1      32.225 -19.514 -20.939  0.00  0.00    +0.037 C 
ATOM     15  H   UNL     1      36.795 -19.541 -20.783  0.00  0.00    +0.159 HD
ENDBRANCH   5   8
BRANCH   2  16
ATOM     16  O   UNL     1      35.019 -24.687 -16.060  0.00  0.00    -0.382 OA
ATOM     17  H   UNL     1      35.695 -24.627 -15.367  0.00  0.00    +0.210 HD
ENDBRANCH   2  16
BRANCH   3  18
ATOM     18  C   UNL     1      32.001 -22.591 -16.703  0.00  0.00    +0.183 C 
BRANCH  18  19
ATOM     19  O   UNL     1      30.735 -23.207 -16.880  0.00  0.00    -0.297 OA
BRANCH  19  20
ATOM     20  P   UNL     1      29.700 -23.328 -15.630  0.00  0.00    +0.310 P 
ATOM     21  O   UNL     1      30.172 -22.474 -14.479  0.00  0.00    -0.267 OA
BRANCH  20  22
ATOM     22  S   UNL     1      27.786 -22.675 -16.218  0.00  0.00    -0.077 S 
ATOM     23  H   UNL     1      27.411 -21.617 -15.450  0.00  0.00    +0.112 HD
ENDBRANCH  20  22
BRANCH  20  24
ATOM     24  S   UNL     1      29.601 -25.331 -14.983  0.00  0.00    -0.077 S 
ATOM     25  H   UNL     1      28.309 -25.754 -15.014  0.00  0.00    +0.112 HD
ENDBRANCH  20  24
ENDBRANCH  19  20
ENDBRANCH  18  19
ENDBRANCH   3  18
TORSDOF 7
ENDMDL
MODEL 8
REMARK VINA RESULT:      -7.0      7.469     10.479
REMARK  Name = 444291
REMARK  7 active torsions:
REMARK  status: ('A' for Active; 'I' for Inactive)
REMARK    1  A    between atoms: C_2  and  O_16
REMARK    2  A    between atoms: C_3  and  C_18
REMARK    3  A    between atoms: C_5  and  N_8
REMARK    4  A    between atoms: C_18  and  O_19
REMARK    5  A    between atoms: O_19  and  P_20
REMARK    6  A    between atoms: P_20  and  S_22
REMARK    7  A    between atoms: P_20  and  S_24
REMARK                            x       y       z     vdW  Elec       q    Type
REMARK                         _______ _______ _______ _____ _____    ______ ____
ROOT
ATOM      1  O   UNL     1      33.946 -24.390 -14.955  0.00  0.00    -0.335 OA
ATOM      2  C   UNL     1      34.446 -23.883 -12.694  0.00  0.00    +0.144 C 
ATOM      3  C   UNL     1      33.317 -24.130 -13.685  0.00  0.00    +0.174 C 
ATOM      4  C   UNL     1      35.543 -23.308 -13.561  0.00  0.00    +0.083 C 
ATOM      5  C   UNL     1      35.333 -24.032 -14.881  0.00  0.00    +0.202 C 
ENDROOT
BRANCH   5   8
ATOM      6  O   UNL     1      37.895 -22.892 -15.373  0.00  0.00    -0.252 OA
ATOM      7  O   UNL     1      36.471 -20.969 -19.301  0.00  0.00    -0.270 OA
ATOM      8  N   UNL     1      35.676 -23.228 -16.017  0.00  0.00    -0.219 N 
ATOM      9  N   UNL     1      37.171 -21.938 -17.329  0.00  0.00    -0.236 N 
ATOM     10  C   UNL     1      34.696 -22.971 -16.966  0.00  0.00    +0.071 C 
ATOM     11  C   UNL     1      36.977 -22.705 -16.175  0.00  0.00    +0.315 C 
ATOM     12  C   UNL     1      34.885 -22.237 -18.070  0.00  0.00    +0.047 C 
ATOM     13  C   UNL     1      36.231 -21.651 -18.308  0.00  0.00    +0.250 C 
ATOM     14  C   UNL     1      33.815 -21.972 -19.080  0.00  0.00    +0.037 C 
ATOM     15  H   UNL     1      38.072 -21.562 -17.461  0.00  0.00    +0.159 HD
ENDBRANCH   5   8
BRANCH   2  16
ATOM     16  O   UNL     1      34.878 -25.121 -12.132  0.00  0.00    -0.382 OA
ATOM     17  H   UNL     1      34.644 -25.847 -12.730  0.00  0.00    +0.210 HD
ENDBRANCH   2  16
BRANCH   3  18
ATOM     18  C   UNL     1      32.404 -22.924 -13.854  0.00  0.00    +0.183 C 
BRANCH  18  19
ATOM     19  O   UNL     1      31.056 -23.368 -13.865  0.00  0.00    -0.297 OA
BRANCH  19  20
ATOM     20  P   UNL     1      30.299 -23.654 -15.276  0.00  0.00    +0.310 P 
ATOM     21  O   UNL     1      31.216 -23.339 -16.432  0.00  0.00    -0.267 OA
BRANCH  20  22
ATOM     22  S   UNL     1      29.736 -25.681 -15.390  0.00  0.00    -0.077 S 
ATOM     23  H   UNL     1      30.367 -26.268 -16.441  0.00  0.00    +0.112 HD
ENDBRANCH  20  22
BRANCH  20  24
ATOM     24  S   UNL     1      28.589 -22.431 -15.423  0.00  0.00    -0.077 S 
ATOM     25  H   UNL     1      27.602 -22.936 -14.635  0.00  0.00    +0.112 HD
ENDBRANCH  20  24
ENDBRANCH  19  20
ENDBRANCH  18  19
ENDBRANCH   3  18
TORSDOF 7
ENDMDL
MODEL 9
REMARK VINA RESULT:      -6.9      2.362      3.363
REMARK  Name = 444291
REMARK  7 active torsions:
REMARK  status: ('A' for Active; 'I' for Inactive)
REMARK    1  A    between atoms: C_2  and  O_16
REMARK    2  A    between atoms: C_3  and  C_18
REMARK    3  A    between atoms: C_5  and  N_8
REMARK    4  A    between atoms: C_18  and  O_19
REMARK    5  A    between atoms: O_19  and  P_20
REMARK    6  A    between atoms: P_20  and  S_22
REMARK    7  A    between atoms: P_20  and  S_24
REMARK                            x       y       z     vdW  Elec       q    Type
REMARK                         _______ _______ _______ _____ _____    ______ ____
ROOT
ATOM      1  O   UNL     1      34.455 -14.000 -22.430  0.00  0.00    -0.335 OA
ATOM      2  C   UNL     1      33.039 -13.490 -24.262  0.00  0.00    +0.144 C 
ATOM      3  C   UNL     1      33.335 -13.173 -22.802  0.00  0.00    +0.174 C 
ATOM      4  C   UNL     1      33.490 -14.926 -24.399  0.00  0.00    +0.083 C 
ATOM      5  C   UNL     1      34.669 -14.994 -23.441  0.00  0.00    +0.202 C 
ENDROOT
BRANCH   5   8
ATOM      6  O   UNL     1      34.925 -15.448 -20.642  0.00  0.00    -0.252 OA
ATOM      7  O   UNL     1      35.193 -20.000 -21.235  0.00  0.00    -0.270 OA
ATOM      8  N   UNL     1      34.808 -16.278 -22.821  0.00  0.00    -0.219 N 
ATOM      9  N   UNL     1      35.059 -17.716 -20.953  0.00  0.00    -0.236 N 
ATOM     10  C   UNL     1      34.823 -17.406 -23.631  0.00  0.00    +0.071 C 
ATOM     11  C   UNL     1      34.929 -16.404 -21.420  0.00  0.00    +0.315 C 
ATOM     12  C   UNL     1      34.946 -18.661 -23.180  0.00  0.00    +0.047 C 
ATOM     13  C   UNL     1      35.078 -18.875 -21.714  0.00  0.00    +0.250 C 
ATOM     14  C   UNL     1      34.959 -19.862 -24.070  0.00  0.00    +0.037 C 
ATOM     15  H   UNL     1      35.144 -17.829 -19.978  0.00  0.00    +0.159 HD
ENDBRANCH   5   8
BRANCH   2  16
ATOM     16  O   UNL     1      33.828 -12.656 -25.109  0.00  0.00    -0.382 OA
ATOM     17  H   UNL     1      33.514 -11.741 -25.046  0.00  0.00    +0.210 HD
ENDBRANCH   2  16
BRANCH   3  18
ATOM     18  C   UNL     1      32.175 -13.513 -21.877  0.00  0.00    +0.183 C 
BRANCH  18  19
ATOM     19  O   UNL     1      32.199 -12.628 -20.768  0.00  0.00    -0.297 OA
BRANCH  19  20
ATOM     20  P   UNL     1      31.395 -11.215 -20.829  0.00  0.00    +0.310 P 
ATOM     21  O   UNL     1      29.932 -11.460 -21.101  0.00  0.00    -0.267 OA
BRANCH  20  22
ATOM     22  S   UNL     1      31.584 -10.203 -18.991  0.00  0.00    -0.077 S 
ATOM     23  H   UNL     1      31.579 -11.105 -17.974  0.00  0.00    +0.112 HD
ENDBRANCH  20  22
BRANCH  20  24
ATOM     24  S   UNL     1      32.175 -10.022 -22.381  0.00  0.00    -0.077 S 
ATOM     25  H   UNL     1      31.371 -10.118 -23.474  0.00  0.00    +0.112 HD
ENDBRANCH  20  24
ENDBRANCH  19  20
ENDBRANCH  18  19
ENDBRANCH   3  18
TORSDOF 7
ENDMDL
