MODEL 1
REMARK VINA RESULT:     -10.4      0.000      0.000
REMARK  Name = 22425
REMARK  7 active torsions:
REMARK  status: ('A' for Active; 'I' for Inactive)
REMARK    1  A    between atoms: C_9  and  O_17
REMARK    2  A    between atoms: O_17  and  C_18
REMARK    3  A    between atoms: C_18  and  C_19
REMARK    4  A    between atoms: C_19  and  O_20
REMARK    5  A    between atoms: O_20  and  C_21
REMARK    6  A    between atoms: C_21  and  C_22
REMARK    7  A    between atoms: C_22  and  N_23
REMARK                            x       y       z     vdW  Elec       q    Type
REMARK                         _______ _______ _______ _____ _____    ______ ____
ROOT
ATOM      1  S   UNL     1      32.180 -25.015 -14.017  0.00  0.00    -0.083 S 
ATOM      2  O   UNL     1      32.381 -22.073 -18.536  0.00  0.00    -0.225 OA
ATOM      3  N   UNL     1      32.831 -23.146 -16.484  0.00  0.00    -0.187 N 
ATOM      4  N   UNL     1      30.500 -22.688 -16.862  0.00  0.00    -0.228 NA
ATOM      5  C   UNL     1      33.862 -23.344 -15.488  0.00  0.00    +0.069 C 
ATOM      6  C   UNL     1      31.444 -23.297 -16.091  0.00  0.00    +0.150 C 
ATOM      7  C   UNL     1      33.684 -24.144 -14.349  0.00  0.00    +0.044 C 
ATOM      8  C   UNL     1      31.059 -24.053 -14.983  0.00  0.00    +0.062 C 
ATOM      9  C   UNL     1      33.121 -22.741 -17.815  0.00  0.00    +0.414 C 
ATOM     10  C   UNL     1      35.092 -22.659 -15.602  0.00  0.00    +0.016 C 
ATOM     11  C   UNL     1      34.722 -24.303 -13.413  0.00  0.00    +0.008 C 
ATOM     12  C   UNL     1      29.695 -24.139 -14.660  0.00  0.00    +0.011 C 
ATOM     13  C   UNL     1      36.118 -22.814 -14.666  0.00  0.00    +0.001 C 
ATOM     14  C   UNL     1      35.937 -23.646 -13.574  0.00  0.00    +0.001 C 
ATOM     15  C   UNL     1      28.744 -23.491 -15.431  0.00  0.00    +0.021 C 
ATOM     16  C   UNL     1      29.196 -22.787 -16.522  0.00  0.00    +0.100 C 
ENDROOT
BRANCH   9  17
ATOM     17  O   UNL     1      34.303 -23.262 -18.285  0.00  0.00    -0.431 OA
BRANCH  17  18
ATOM     18  C   UNL     1      34.839 -22.660 -19.471  0.00  0.00    +0.242 C 
BRANCH  18  19
ATOM     19  C   UNL     1      35.794 -21.551 -19.074  0.00  0.00    +0.189 C 
BRANCH  19  20
ATOM     20  O   UNL     1      36.140 -20.799 -20.231  0.00  0.00    -0.352 OA
BRANCH  20  21
ATOM     21  C   UNL     1      35.030 -20.066 -20.727  0.00  0.00    +0.120 C 
BRANCH  21  22
ATOM     22  C   UNL     1      35.500 -18.675 -21.122  0.00  0.00    -0.045 C 
BRANCH  22  23
ATOM     23  N   UNL     1      34.831 -18.231 -22.344  0.00  0.00    +0.389 N 
ATOM     24  C   UNL     1      35.268 -16.874 -22.705  0.00  0.00    -0.077 C 
ATOM     25  C   UNL     1      35.079 -19.177 -23.440  0.00  0.00    -0.077 C 
ATOM     26  C   UNL     1      34.541 -16.375 -23.955  0.00  0.00    -0.023 C 
ATOM     27  C   UNL     1      34.346 -18.754 -24.713  0.00  0.00    -0.023 C 
ATOM     28  C   UNL     1      34.724 -17.336 -25.124  0.00  0.00    -0.004 C 
ATOM     29  H   UNL     1      33.825 -18.202 -22.175  0.00  0.00    -0.080 HD
ENDBRANCH  22  23
ENDBRANCH  21  22
ENDBRANCH  20  21
ENDBRANCH  19  20
ENDBRANCH  18  19
ENDBRANCH  17  18
ENDBRANCH   9  17
TORSDOF 7
ENDMDL
MODEL 2
REMARK VINA RESULT:     -10.1      5.547     11.431
REMARK  Name = 22425
REMARK  7 active torsions:
REMARK  status: ('A' for Active; 'I' for Inactive)
REMARK    1  A    between atoms: C_9  and  O_17
REMARK    2  A    between atoms: O_17  and  C_18
REMARK    3  A    between atoms: C_18  and  C_19
REMARK    4  A    between atoms: C_19  and  O_20
REMARK    5  A    between atoms: O_20  and  C_21
REMARK    6  A    between atoms: C_21  and  C_22
REMARK    7  A    between atoms: C_22  and  N_23
REMARK                            x       y       z     vdW  Elec       q    Type
REMARK                         _______ _______ _______ _____ _____    ______ ____
ROOT
ATOM      1  S   UNL     1      33.817 -10.627 -24.364  0.00  0.00    -0.083 S 
ATOM      2  O   UNL     1      31.969 -14.764 -21.435  0.00  0.00    -0.225 OA
ATOM      3  N   UNL     1      32.735 -13.340 -23.152  0.00  0.00    -0.187 N 
ATOM      4  N   UNL     1      31.639 -12.195 -21.342  0.00  0.00    -0.228 NA
ATOM      5  C   UNL     1      33.063 -13.306 -24.561  0.00  0.00    +0.069 C 
ATOM      6  C   UNL     1      32.364 -12.104 -22.493  0.00  0.00    +0.150 C 
ATOM      7  C   UNL     1      33.543 -12.157 -25.208  0.00  0.00    +0.044 C 
ATOM      8  C   UNL     1      32.743 -10.852 -22.982  0.00  0.00    +0.062 C 
ATOM      9  C   UNL     1      32.693 -14.548 -22.406  0.00  0.00    +0.414 C 
ATOM     10  C   UNL     1      32.835 -14.444 -25.365  0.00  0.00    +0.016 C 
ATOM     11  C   UNL     1      33.848 -12.181 -26.582  0.00  0.00    +0.008 C 
ATOM     12  C   UNL     1      32.333  -9.701 -22.292  0.00  0.00    +0.011 C 
ATOM     13  C   UNL     1      33.133 -14.462 -26.731  0.00  0.00    +0.001 C 
ATOM     14  C   UNL     1      33.651 -13.331 -27.339  0.00  0.00    +0.001 C 
ATOM     15  C   UNL     1      31.570  -9.801 -21.140  0.00  0.00    +0.021 C 
ATOM     16  C   UNL     1      31.257 -11.067 -20.704  0.00  0.00    +0.100 C 
ENDROOT
BRANCH   9  17
ATOM     17  O   UNL     1      33.637 -15.460 -22.814  0.00  0.00    -0.431 OA
BRANCH  17  18
ATOM     18  C   UNL     1      34.837 -15.528 -22.033  0.00  0.00    +0.242 C 
BRANCH  18  19
ATOM     19  C   UNL     1      35.084 -16.969 -21.631  0.00  0.00    +0.189 C 
BRANCH  19  20
ATOM     20  O   UNL     1      34.896 -17.808 -22.765  0.00  0.00    -0.352 OA
BRANCH  20  21
ATOM     21  C   UNL     1      35.023 -19.180 -22.425  0.00  0.00    +0.120 C 
BRANCH  21  22
ATOM     22  C   UNL     1      35.890 -19.298 -21.181  0.00  0.00    -0.045 C 
BRANCH  22  23
ATOM     23  N   UNL     1      35.201 -20.063 -20.142  0.00  0.00    +0.389 N 
ATOM     24  C   UNL     1      33.834 -20.396 -20.569  0.00  0.00    -0.077 C 
ATOM     25  C   UNL     1      35.961 -21.275 -19.806  0.00  0.00    -0.077 C 
ATOM     26  C   UNL     1      33.084 -21.154 -19.473  0.00  0.00    -0.023 C 
ATOM     27  C   UNL     1      35.280 -22.061 -18.685  0.00  0.00    -0.023 C 
ATOM     28  C   UNL     1      33.841 -22.406 -19.046  0.00  0.00    -0.004 C 
ATOM     29  H   UNL     1      35.137 -19.489 -19.301  0.00  0.00    -0.080 HD
ENDBRANCH  22  23
ENDBRANCH  21  22
ENDBRANCH  20  21
ENDBRANCH  19  20
ENDBRANCH  18  19
ENDBRANCH  17  18
ENDBRANCH   9  17
TORSDOF 7
ENDMDL
MODEL 3
REMARK VINA RESULT:     -10.0      0.875      1.381
REMARK  Name = 22425
REMARK  7 active torsions:
REMARK  status: ('A' for Active; 'I' for Inactive)
REMARK    1  A    between atoms: C_9  and  O_17
REMARK    2  A    between atoms: O_17  and  C_18
REMARK    3  A    between atoms: C_18  and  C_19
REMARK    4  A    between atoms: C_19  and  O_20
REMARK    5  A    between atoms: O_20  and  C_21
REMARK    6  A    between atoms: C_21  and  C_22
REMARK    7  A    between atoms: C_22  and  N_23
REMARK                            x       y       z     vdW  Elec       q    Type
REMARK                         _______ _______ _______ _____ _____    ______ ____
ROOT
ATOM      1  S   UNL     1      33.573 -24.710 -14.315  0.00  0.00    -0.083 S 
ATOM      2  O   UNL     1      32.689 -22.047 -18.923  0.00  0.00    -0.225 OA
ATOM      3  N   UNL     1      33.601 -22.961 -16.949  0.00  0.00    -0.187 N 
ATOM      4  N   UNL     1      31.214 -22.672 -16.886  0.00  0.00    -0.228 NA
ATOM      5  C   UNL     1      34.815 -23.032 -16.166  0.00  0.00    +0.069 C 
ATOM      6  C   UNL     1      32.330 -23.172 -16.285  0.00  0.00    +0.150 C 
ATOM      7  C   UNL     1      34.918 -23.770 -14.976  0.00  0.00    +0.044 C 
ATOM      8  C   UNL     1      32.220 -23.881 -15.088  0.00  0.00    +0.062 C 
ATOM      9  C   UNL     1      33.600 -22.622 -18.329  0.00  0.00    +0.414 C 
ATOM     10  C   UNL     1      35.947 -22.281 -16.550  0.00  0.00    +0.016 C 
ATOM     11  C   UNL     1      36.125 -23.805 -14.255  0.00  0.00    +0.008 C 
ATOM     12  C   UNL     1      30.954 -24.031 -14.501  0.00  0.00    +0.011 C 
ATOM     13  C   UNL     1      37.143 -22.313 -15.827  0.00  0.00    +0.001 C 
ATOM     14  C   UNL     1      37.236 -23.086 -14.682  0.00  0.00    +0.001 C 
ATOM     15  C   UNL     1      29.828 -23.493 -15.102  0.00  0.00    +0.021 C 
ATOM     16  C   UNL     1      30.010 -22.831 -16.293  0.00  0.00    +0.100 C 
ENDROOT
BRANCH   9  17
ATOM     17  O   UNL     1      34.705 -23.096 -18.995  0.00  0.00    -0.431 OA
BRANCH  17  18
ATOM     18  C   UNL     1      35.122 -22.353 -20.148  0.00  0.00    +0.242 C 
BRANCH  18  19
ATOM     19  C   UNL     1      36.343 -21.528 -19.789  0.00  0.00    +0.189 C 
BRANCH  19  20
ATOM     20  O   UNL     1      35.985 -20.151 -19.767  0.00  0.00    -0.352 OA
BRANCH  20  21
ATOM     21  C   UNL     1      35.335 -19.763 -20.968  0.00  0.00    +0.120 C 
BRANCH  21  22
ATOM     22  C   UNL     1      35.507 -18.265 -21.157  0.00  0.00    -0.045 C 
BRANCH  22  23
ATOM     23  N   UNL     1      35.478 -17.915 -22.576  0.00  0.00    +0.389 N 
ATOM     24  C   UNL     1      34.707 -18.911 -23.335  0.00  0.00    -0.077 C 
ATOM     25  C   UNL     1      34.928 -16.565 -22.762  0.00  0.00    -0.077 C 
ATOM     26  C   UNL     1      34.708 -18.585 -24.829  0.00  0.00    -0.023 C 
ATOM     27  C   UNL     1      34.936 -16.163 -24.237  0.00  0.00    -0.023 C 
ATOM     28  C   UNL     1      34.185 -17.178 -25.091  0.00  0.00    -0.004 C 
ATOM     29  H   UNL     1      36.433 -17.917 -22.934  0.00  0.00    -0.080 HD
ENDBRANCH  22  23
ENDBRANCH  21  22
ENDBRANCH  20  21
ENDBRANCH  19  20
ENDBRANCH  18  19
ENDBRANCH  17  18
ENDBRANCH   9  17
TORSDOF 7
ENDMDL
MODEL 4
REMARK VINA RESULT:      -9.9      7.770     11.749
REMARK  Name = 22425
REMARK  7 active torsions:
REMARK  status: ('A' for Active; 'I' for Inactive)
REMARK    1  A    between atoms: C_9  and  O_17
REMARK    2  A    between atoms: O_17  and  C_18
REMARK    3  A    between atoms: C_18  and  C_19
REMARK    4  A    between atoms: C_19  and  O_20
REMARK    5  A    between atoms: O_20  and  C_21
REMARK    6  A    between atoms: C_21  and  C_22
REMARK    7  A    between atoms: C_22  and  N_23
REMARK                            x       y       z     vdW  Elec       q    Type
REMARK                         _______ _______ _______ _____ _____    ______ ____
ROOT
ATOM      1  S   UNL     1      33.756 -16.632 -25.523  0.00  0.00    -0.083 S 
ATOM      2  O   UNL     1      33.799 -14.435 -20.595  0.00  0.00    -0.225 OA
ATOM      3  N   UNL     1      33.753 -14.838 -22.919  0.00  0.00    -0.187 N 
ATOM      4  N   UNL     1      34.916 -16.521 -21.653  0.00  0.00    -0.228 NA
ATOM      5  C   UNL     1      33.635 -14.178 -24.201  0.00  0.00    +0.069 C 
ATOM      6  C   UNL     1      34.411 -16.128 -22.856  0.00  0.00    +0.150 C 
ATOM      7  C   UNL     1      33.633 -14.870 -25.422  0.00  0.00    +0.044 C 
ATOM      8  C   UNL     1      34.517 -16.968 -23.966  0.00  0.00    +0.062 C 
ATOM      9  C   UNL     1      33.311 -14.240 -21.708  0.00  0.00    +0.414 C 
ATOM     10  C   UNL     1      33.588 -12.768 -24.266  0.00  0.00    +0.016 C 
ATOM     11  C   UNL     1      33.514 -14.177 -26.641  0.00  0.00    +0.008 C 
ATOM     12  C   UNL     1      35.181 -18.196 -23.827  0.00  0.00    +0.011 C 
ATOM     13  C   UNL     1      33.477 -12.083 -25.479  0.00  0.00    +0.001 C 
ATOM     14  C   UNL     1      33.429 -12.789 -26.669  0.00  0.00    +0.001 C 
ATOM     15  C   UNL     1      35.719 -18.575 -22.608  0.00  0.00    +0.021 C 
ATOM     16  C   UNL     1      35.553 -17.708 -21.554  0.00  0.00    +0.100 C 
ENDROOT
BRANCH   9  17
ATOM     17  O   UNL     1      32.186 -13.469 -21.873  0.00  0.00    -0.431 OA
BRANCH  17  18
ATOM     18  C   UNL     1      31.856 -12.581 -20.797  0.00  0.00    +0.242 C 
BRANCH  18  19
ATOM     19  C   UNL     1      31.052 -11.418 -21.344  0.00  0.00    +0.189 C 
BRANCH  19  20
ATOM     20  O   UNL     1      31.260 -10.279 -20.517  0.00  0.00    -0.352 OA
BRANCH  20  21
ATOM     21  C   UNL     1      31.901  -9.229 -21.227  0.00  0.00    +0.120 C 
BRANCH  21  22
ATOM     22  C   UNL     1      31.368  -9.205 -22.651  0.00  0.00    -0.045 C 
BRANCH  22  23
ATOM     23  N   UNL     1      32.352  -8.621 -23.561  0.00  0.00    +0.389 N 
ATOM     24  C   UNL     1      32.300  -7.152 -23.500  0.00  0.00    -0.077 C 
ATOM     25  C   UNL     1      33.700  -9.117 -23.250  0.00  0.00    -0.077 C 
ATOM     26  C   UNL     1      33.289  -6.524 -24.482  0.00  0.00    -0.023 C 
ATOM     27  C   UNL     1      34.734  -8.553 -24.225  0.00  0.00    -0.023 C 
ATOM     28  C   UNL     1      34.707  -7.029 -24.241  0.00  0.00    -0.004 C 
ATOM     29  H   UNL     1      32.125  -8.904 -24.514  0.00  0.00    -0.080 HD
ENDBRANCH  22  23
ENDBRANCH  21  22
ENDBRANCH  20  21
ENDBRANCH  19  20
ENDBRANCH  18  19
ENDBRANCH  17  18
ENDBRANCH   9  17
TORSDOF 7
ENDMDL
MODEL 5
REMARK VINA RESULT:      -9.8      8.740     11.839
REMARK  Name = 22425
REMARK  7 active torsions:
REMARK  status: ('A' for Active; 'I' for Inactive)
REMARK    1  A    between atoms: C_9  and  O_17
REMARK    2  A    between atoms: O_17  and  C_18
REMARK    3  A    between atoms: C_18  and  C_19
REMARK    4  A    between atoms: C_19  and  O_20
REMARK    5  A    between atoms: O_20  and  C_21
REMARK    6  A    between atoms: C_21  and  C_22
REMARK    7  A    between atoms: C_22  and  N_23
REMARK                            x       y       z     vdW  Elec       q    Type
REMARK                         _______ _______ _______ _____ _____    ______ ____
ROOT
ATOM      1  S   UNL     1      34.591 -15.941 -21.371  0.00  0.00    -0.083 S 
ATOM      2  O   UNL     1      33.496 -14.026 -26.294  0.00  0.00    -0.225 OA
ATOM      3  N   UNL     1      33.595 -14.453 -23.977  0.00  0.00    -0.187 N 
ATOM      4  N   UNL     1      34.035 -16.378 -25.350  0.00  0.00    -0.228 NA
ATOM      5  C   UNL     1      33.108 -13.986 -22.697  0.00  0.00    +0.069 C 
ATOM      6  C   UNL     1      34.016 -15.834 -24.101  0.00  0.00    +0.150 C 
ATOM      7  C   UNL     1      33.474 -14.573 -21.476  0.00  0.00    +0.044 C 
ATOM      8  C   UNL     1      34.419 -16.594 -23.002  0.00  0.00    +0.062 C 
ATOM      9  C   UNL     1      33.610 -13.630 -25.135  0.00  0.00    +0.414 C 
ATOM     10  C   UNL     1      32.163 -12.937 -22.642  0.00  0.00    +0.016 C 
ATOM     11  C   UNL     1      32.971 -14.077 -20.260  0.00  0.00    +0.008 C 
ATOM     12  C   UNL     1      34.801 -17.929 -23.203  0.00  0.00    +0.011 C 
ATOM     13  C   UNL     1      31.659 -12.452 -21.432  0.00  0.00    +0.001 C 
ATOM     14  C   UNL     1      32.072 -13.016 -20.237  0.00  0.00    +0.001 C 
ATOM     15  C   UNL     1      34.787 -18.485 -24.472  0.00  0.00    +0.021 C 
ATOM     16  C   UNL     1      34.404 -17.668 -25.509  0.00  0.00    +0.100 C 
ENDROOT
BRANCH   9  17
ATOM     17  O   UNL     1      33.872 -12.311 -24.849  0.00  0.00    -0.431 OA
BRANCH  17  18
ATOM     18  C   UNL     1      34.348 -11.505 -25.935  0.00  0.00    +0.242 C 
BRANCH  18  19
ATOM     19  C   UNL     1      35.208 -10.386 -25.380  0.00  0.00    +0.189 C 
BRANCH  19  20
ATOM     20  O   UNL     1      34.851 -10.155 -24.022  0.00  0.00    -0.352 OA
BRANCH  20  21
ATOM     21  C   UNL     1      34.040  -8.997 -23.887  0.00  0.00    +0.120 C 
BRANCH  21  22
ATOM     22  C   UNL     1      32.681  -9.412 -23.346  0.00  0.00    -0.045 C 
BRANCH  22  23
ATOM     23  N   UNL     1      31.991  -8.269 -22.751  0.00  0.00    +0.389 N 
ATOM     24  C   UNL     1      32.777  -7.716 -21.639  0.00  0.00    -0.077 C 
ATOM     25  C   UNL     1      31.718  -7.245 -23.769  0.00  0.00    -0.077 C 
ATOM     26  C   UNL     1      32.045  -6.549 -20.974  0.00  0.00    -0.023 C 
ATOM     27  C   UNL     1      30.951  -6.064 -23.173  0.00  0.00    -0.023 C 
ATOM     28  C   UNL     1      31.694  -5.464 -21.985  0.00  0.00    -0.004 C 
ATOM     29  H   UNL     1      31.096  -8.586 -22.377  0.00  0.00    -0.080 HD
ENDBRANCH  22  23
ENDBRANCH  21  22
ENDBRANCH  20  21
ENDBRANCH  19  20
ENDBRANCH  18  19
ENDBRANCH  17  18
ENDBRANCH   9  17
TORSDOF 7
ENDMDL
MODEL 6
REMARK VINA RESULT:      -9.7      2.291      4.652
REMARK  Name = 22425
REMARK  7 active torsions:
REMARK  status: ('A' for Active; 'I' for Inactive)
REMARK    1  A    between atoms: C_9  and  O_17
REMARK    2  A    between atoms: O_17  and  C_18
REMARK    3  A    between atoms: C_18  and  C_19
REMARK    4  A    between atoms: C_19  and  O_20
REMARK    5  A    between atoms: O_20  and  C_21
REMARK    6  A    between atoms: C_21  and  C_22
REMARK    7  A    between atoms: C_22  and  N_23
REMARK                            x       y       z     vdW  Elec       q    Type
REMARK                         _______ _______ _______ _____ _____    ______ ____
ROOT
ATOM      1  S   UNL     1      34.529 -24.160 -12.864  0.00  0.00    -0.083 S 
ATOM      2  O   UNL     1      38.403 -22.837 -16.380  0.00  0.00    -0.225 OA
ATOM      3  N   UNL     1      36.363 -23.338 -15.306  0.00  0.00    -0.187 N 
ATOM      4  N   UNL     1      38.271 -24.459 -14.362  0.00  0.00    -0.228 NA
ATOM      5  C   UNL     1      34.933 -23.388 -15.515  0.00  0.00    +0.069 C 
ATOM      6  C   UNL     1      36.945 -24.160 -14.264  0.00  0.00    +0.150 C 
ATOM      7  C   UNL     1      34.023 -23.747 -14.508  0.00  0.00    +0.044 C 
ATOM      8  C   UNL     1      36.204 -24.622 -13.175  0.00  0.00    +0.062 C 
ATOM      9  C   UNL     1      37.229 -22.568 -16.128  0.00  0.00    +0.414 C 
ATOM     10  C   UNL     1      34.399 -23.139 -16.798  0.00  0.00    +0.016 C 
ATOM     11  C   UNL     1      32.640 -23.779 -14.767  0.00  0.00    +0.008 C 
ATOM     12  C   UNL     1      36.838 -25.425 -12.214  0.00  0.00    +0.011 C 
ATOM     13  C   UNL     1      33.025 -23.178 -17.053  0.00  0.00    +0.001 C 
ATOM     14  C   UNL     1      32.143 -23.488 -16.033  0.00  0.00    +0.001 C 
ATOM     15  C   UNL     1      38.179 -25.749 -12.337  0.00  0.00    +0.021 C 
ATOM     16  C   UNL     1      38.850 -25.237 -13.422  0.00  0.00    +0.100 C 
ENDROOT
BRANCH   9  17
ATOM     17  O   UNL     1      36.654 -21.395 -16.558  0.00  0.00    -0.431 OA
BRANCH  17  18
ATOM     18  C   UNL     1      37.167 -20.842 -17.776  0.00  0.00    +0.242 C 
BRANCH  18  19
ATOM     19  C   UNL     1      36.471 -21.501 -18.950  0.00  0.00    +0.189 C 
BRANCH  19  20
ATOM     20  O   UNL     1      35.686 -20.529 -19.632  0.00  0.00    -0.352 OA
BRANCH  20  21
ATOM     21  C   UNL     1      34.393 -21.027 -19.941  0.00  0.00    +0.120 C 
BRANCH  21  22
ATOM     22  C   UNL     1      33.599 -19.931 -20.635  0.00  0.00    -0.045 C 
BRANCH  22  23
ATOM     23  N   UNL     1      34.494 -18.992 -21.308  0.00  0.00    +0.389 N 
ATOM     24  C   UNL     1      34.606 -19.323 -22.737  0.00  0.00    -0.077 C 
ATOM     25  C   UNL     1      34.030 -17.611 -21.119  0.00  0.00    -0.077 C 
ATOM     26  C   UNL     1      35.578 -18.379 -23.447  0.00  0.00    -0.023 C 
ATOM     27  C   UNL     1      34.982 -16.612 -21.776  0.00  0.00    -0.023 C 
ATOM     28  C   UNL     1      35.176 -16.921 -23.256  0.00  0.00    -0.004 C 
ATOM     29  H   UNL     1      35.424 -19.070 -20.894  0.00  0.00    -0.080 HD
ENDBRANCH  22  23
ENDBRANCH  21  22
ENDBRANCH  20  21
ENDBRANCH  19  20
ENDBRANCH  18  19
ENDBRANCH  17  18
ENDBRANCH   9  17
TORSDOF 7
ENDMDL
MODEL 7
REMARK VINA RESULT:      -9.7      7.671     12.330
REMARK  Name = 22425
REMARK  7 active torsions:
REMARK  status: ('A' for Active; 'I' for Inactive)
REMARK    1  A    between atoms: C_9  and  O_17
REMARK    2  A    between atoms: O_17  and  C_18
REMARK    3  A    between atoms: C_18  and  C_19
REMARK    4  A    between atoms: C_19  and  O_20
REMARK    5  A    between atoms: O_20  and  C_21
REMARK    6  A    between atoms: C_21  and  C_22
REMARK    7  A    between atoms: C_22  and  N_23
REMARK                            x       y       z     vdW  Elec       q    Type
REMARK                         _______ _______ _______ _____ _____    ______ ____
ROOT
ATOM      1  S   UNL     1      31.608 -10.013 -21.573  0.00  0.00    -0.083 S 
ATOM      2  O   UNL     1      34.671 -11.178 -25.859  0.00  0.00    -0.225 OA
ATOM      3  N   UNL     1      33.429 -11.229 -23.854  0.00  0.00    -0.187 N 
ATOM      4  N   UNL     1      34.364  -9.074 -24.376  0.00  0.00    -0.228 NA
ATOM      5  C   UNL     1      32.979 -12.110 -22.799  0.00  0.00    +0.069 C 
ATOM      6  C   UNL     1      33.540  -9.810 -23.578  0.00  0.00    +0.150 C 
ATOM      7  C   UNL     1      32.175 -11.681 -21.732  0.00  0.00    +0.044 C 
ATOM      8  C   UNL     1      32.822  -9.189 -22.554  0.00  0.00    +0.062 C 
ATOM      9  C   UNL     1      33.833 -11.707 -25.130  0.00  0.00    +0.414 C 
ATOM     10  C   UNL     1      33.409 -13.455 -22.773  0.00  0.00    +0.016 C 
ATOM     11  C   UNL     1      31.765 -12.582 -20.732  0.00  0.00    +0.008 C 
ATOM     12  C   UNL     1      32.995  -7.813 -22.342  0.00  0.00    +0.011 C 
ATOM     13  C   UNL     1      33.005 -14.346 -21.775  0.00  0.00    +0.001 C 
ATOM     14  C   UNL     1      32.173 -13.912 -20.758  0.00  0.00    +0.001 C 
ATOM     15  C   UNL     1      33.857  -7.077 -23.139  0.00  0.00    +0.021 C 
ATOM     16  C   UNL     1      34.510  -7.751 -24.143  0.00  0.00    +0.100 C 
ENDROOT
BRANCH   9  17
ATOM     17  O   UNL     1      33.111 -12.801 -25.543  0.00  0.00    -0.431 OA
BRANCH  17  18
ATOM     18  C   UNL     1      33.370 -13.272 -26.872  0.00  0.00    +0.242 C 
BRANCH  18  19
ATOM     19  C   UNL     1      32.901 -14.710 -26.986  0.00  0.00    +0.189 C 
BRANCH  19  20
ATOM     20  O   UNL     1      33.950 -15.576 -26.571  0.00  0.00    -0.352 OA
BRANCH  20  21
ATOM     21  C   UNL     1      33.742 -16.051 -25.249  0.00  0.00    +0.120 C 
BRANCH  21  22
ATOM     22  C   UNL     1      34.672 -17.226 -24.998  0.00  0.00    -0.045 C 
BRANCH  22  23
ATOM     23  N   UNL     1      34.548 -17.699 -23.621  0.00  0.00    +0.389 N 
ATOM     24  C   UNL     1      34.928 -19.117 -23.528  0.00  0.00    -0.077 C 
ATOM     25  C   UNL     1      35.360 -16.873 -22.717  0.00  0.00    -0.077 C 
ATOM     26  C   UNL     1      34.756 -19.641 -22.101  0.00  0.00    -0.023 C 
ATOM     27  C   UNL     1      35.203 -17.323 -21.264  0.00  0.00    -0.023 C 
ATOM     28  C   UNL     1      35.544 -18.800 -21.102  0.00  0.00    -0.004 C 
ATOM     29  H   UNL     1      33.573 -17.615 -23.332  0.00  0.00    -0.080 HD
ENDBRANCH  22  23
ENDBRANCH  21  22
ENDBRANCH  20  21
ENDBRANCH  19  20
ENDBRANCH  18  19
ENDBRANCH  17  18
ENDBRANCH   9  17
TORSDOF 7
ENDMDL
MODEL 8
REMARK VINA RESULT:      -9.0      1.508      3.917
REMARK  Name = 22425
REMARK  7 active torsions:
REMARK  status: ('A' for Active; 'I' for Inactive)
REMARK    1  A    between atoms: C_9  and  O_17
REMARK    2  A    between atoms: O_17  and  C_18
REMARK    3  A    between atoms: C_18  and  C_19
REMARK    4  A    between atoms: C_19  and  O_20
REMARK    5  A    between atoms: O_20  and  C_21
REMARK    6  A    between atoms: C_21  and  C_22
REMARK    7  A    between atoms: C_22  and  N_23
REMARK                            x       y       z     vdW  Elec       q    Type
REMARK                         _______ _______ _______ _____ _____    ______ ____
ROOT
ATOM      1  S   UNL     1      32.276 -22.791 -13.531  0.00  0.00    -0.083 S 
ATOM      2  O   UNL     1      34.289 -23.587 -18.474  0.00  0.00    -0.225 OA
ATOM      3  N   UNL     1      32.901 -23.240 -16.599  0.00  0.00    -0.187 N 
ATOM      4  N   UNL     1      34.953 -24.393 -16.101  0.00  0.00    -0.228 NA
ATOM      5  C   UNL     1      31.524 -23.032 -16.207  0.00  0.00    +0.069 C 
ATOM      6  C   UNL     1      33.827 -23.789 -15.628  0.00  0.00    +0.150 C 
ATOM      7  C   UNL     1      31.128 -22.831 -14.876  0.00  0.00    +0.044 C 
ATOM      8  C   UNL     1      33.611 -23.694 -14.252  0.00  0.00    +0.062 C 
ATOM      9  C   UNL     1      33.366 -22.994 -17.919  0.00  0.00    +0.414 C 
ATOM     10  C   UNL     1      30.498 -23.099 -17.175  0.00  0.00    +0.016 C 
ATOM     11  C   UNL     1      29.773 -22.633 -14.551  0.00  0.00    +0.008 C 
ATOM     12  C   UNL     1      34.549 -24.263 -13.377  0.00  0.00    +0.011 C 
ATOM     13  C   UNL     1      29.152 -22.909 -16.848  0.00  0.00    +0.001 C 
ATOM     14  C   UNL     1      28.790 -22.664 -15.535  0.00  0.00    +0.001 C 
ATOM     15  C   UNL     1      35.676 -24.902 -13.867  0.00  0.00    +0.021 C 
ATOM     16  C   UNL     1      35.834 -24.934 -15.232  0.00  0.00    +0.100 C 
ENDROOT
BRANCH   9  17
ATOM     17  O   UNL     1      32.737 -21.926 -18.515  0.00  0.00    -0.431 OA
BRANCH  17  18
ATOM     18  C   UNL     1      33.529 -21.142 -19.417  0.00  0.00    +0.242 C 
BRANCH  18  19
ATOM     19  C   UNL     1      32.607 -20.302 -20.280  0.00  0.00    +0.189 C 
BRANCH  19  20
ATOM     20  O   UNL     1      33.392 -19.529 -21.182  0.00  0.00    -0.352 OA
BRANCH  20  21
ATOM     21  C   UNL     1      34.778 -19.793 -21.024  0.00  0.00    +0.120 C 
BRANCH  21  22
ATOM     22  C   UNL     1      35.567 -18.704 -21.733  0.00  0.00    -0.045 C 
BRANCH  22  23
ATOM     23  N   UNL     1      34.743 -17.513 -21.929  0.00  0.00    +0.389 N 
ATOM     24  C   UNL     1      34.972 -16.545 -20.847  0.00  0.00    -0.077 C 
ATOM     25  C   UNL     1      35.010 -16.912 -23.243  0.00  0.00    -0.077 C 
ATOM     26  C   UNL     1      34.080 -15.313 -21.011  0.00  0.00    -0.023 C 
ATOM     27  C   UNL     1      34.120 -15.693 -23.486  0.00  0.00    -0.023 C 
ATOM     28  C   UNL     1      34.279 -14.662 -22.375  0.00  0.00    -0.004 C 
ATOM     29  H   UNL     1      33.760 -17.786 -21.904  0.00  0.00    -0.080 HD
ENDBRANCH  22  23
ENDBRANCH  21  22
ENDBRANCH  20  21
ENDBRANCH  19  20
ENDBRANCH  18  19
ENDBRANCH  17  18
ENDBRANCH   9  17
TORSDOF 7
ENDMDL
MODEL 9
REMARK VINA RESULT:      -8.8      7.903     12.275
REMARK  Name = 22425
REMARK  7 active torsions:
REMARK  status: ('A' for Active; 'I' for Inactive)
REMARK    1  A    between atoms: C_9  and  O_17
REMARK    2  A    between atoms: O_17  and  C_18
REMARK    3  A    between atoms: C_18  and  C_19
REMARK    4  A    between atoms: C_19  and  O_20
REMARK    5  A    between atoms: O_20  and  C_21
REMARK    6  A    between atoms: C_21  and  C_22
REMARK    7  A    between atoms: C_22  and  N_23
REMARK                            x       y       z     vdW  Elec       q    Type
REMARK                         _______ _______ _______ _____ _____    ______ ____
ROOT
ATOM      1  S   UNL     1      34.875  -9.601 -24.624  0.00  0.00    -0.083 S 
ATOM      2  O   UNL     1      31.599 -12.223 -21.232  0.00  0.00    -0.225 OA
ATOM      3  N   UNL     1      32.915 -11.530 -23.062  0.00  0.00    -0.187 N 
ATOM      4  N   UNL     1      32.054  -9.721 -21.732  0.00  0.00    -0.228 NA
ATOM      5  C   UNL     1      33.368 -11.936 -24.375  0.00  0.00    +0.069 C 
ATOM      6  C   UNL     1      32.876 -10.117 -22.744  0.00  0.00    +0.150 C 
ATOM      7  C   UNL     1      34.230 -11.158 -25.162  0.00  0.00    +0.044 C 
ATOM      8  C   UNL     1      33.659  -9.177 -23.416  0.00  0.00    +0.062 C 
ATOM      9  C   UNL     1      32.441 -12.459 -22.097  0.00  0.00    +0.414 C 
ATOM     10  C   UNL     1      32.882 -13.131 -24.950  0.00  0.00    +0.016 C 
ATOM     11  C   UNL     1      34.640 -11.602 -26.433  0.00  0.00    +0.008 C 
ATOM     12  C   UNL     1      33.554  -7.824 -23.057  0.00  0.00    +0.011 C 
ATOM     13  C   UNL     1      33.286 -13.565 -26.216  0.00  0.00    +0.001 C 
ATOM     14  C   UNL     1      34.175 -12.804 -26.955  0.00  0.00    +0.001 C 
ATOM     15  C   UNL     1      32.693  -7.426 -22.047  0.00  0.00    +0.021 C 
ATOM     16  C   UNL     1      31.973  -8.410 -21.413  0.00  0.00    +0.100 C 
ENDROOT
BRANCH   9  17
ATOM     17  O   UNL     1      33.099 -13.664 -22.148  0.00  0.00    -0.431 OA
BRANCH  17  18
ATOM     18  C   UNL     1      32.395 -14.799 -21.626  0.00  0.00    +0.242 C 
BRANCH  18  19
ATOM     19  C   UNL     1      33.080 -15.263 -20.355  0.00  0.00    +0.189 C 
BRANCH  19  20
ATOM     20  O   UNL     1      34.405 -15.678 -20.666  0.00  0.00    -0.352 OA
BRANCH  20  21
ATOM     21  C   UNL     1      34.466 -17.071 -20.932  0.00  0.00    +0.120 C 
BRANCH  21  22
ATOM     22  C   UNL     1      35.787 -17.381 -21.618  0.00  0.00    -0.045 C 
BRANCH  22  23
ATOM     23  N   UNL     1      35.579 -17.664 -23.037  0.00  0.00    +0.389 N 
ATOM     24  C   UNL     1      34.712 -18.840 -23.205  0.00  0.00    -0.077 C 
ATOM     25  C   UNL     1      35.018 -16.490 -23.719  0.00  0.00    -0.077 C 
ATOM     26  C   UNL     1      34.524 -19.179 -24.685  0.00  0.00    -0.023 C 
ATOM     27  C   UNL     1      34.840 -16.752 -25.215  0.00  0.00    -0.023 C 
ATOM     28  C   UNL     1      33.981 -17.986 -25.462  0.00  0.00    -0.004 C 
ATOM     29  H   UNL     1      36.481 -17.874 -23.464  0.00  0.00    -0.080 HD
ENDBRANCH  22  23
ENDBRANCH  21  22
ENDBRANCH  20  21
ENDBRANCH  19  20
ENDBRANCH  18  19
ENDBRANCH  17  18
ENDBRANCH   9  17
TORSDOF 7
ENDMDL
