MODEL 1
REMARK VINA RESULT:      -8.9      0.000      0.000
REMARK  Name = 5327
REMARK  3 active torsions:
REMARK  status: ('A' for Active; 'I' for Inactive)
REMARK    1  A    between atoms: S_1  and  N_4
REMARK    2  A    between atoms: S_1  and  C_14
REMARK    3  A    between atoms: C_17  and  N_20
REMARK                            x       y       z     vdW  Elec       q    Type
REMARK                         _______ _______ _______ _____ _____    ______ ____
ROOT
ATOM      1  S   UNL     1      34.021 -22.940 -18.256  0.00  0.00    +0.083 S 
ATOM      2  O   UNL     1      35.253 -22.970 -17.474  0.00  0.00    -0.149 OA
ATOM      3  O   UNL     1      33.635 -24.132 -19.002  0.00  0.00    -0.149 OA
ENDROOT
BRANCH   1   4
ATOM      4  N   UNL     1      32.735 -22.473 -17.210  0.00  0.00    -0.139 N 
ATOM      5  N   UNL     1      31.302 -23.958 -16.067  0.00  0.00    -0.336 NA
ATOM      6  N   UNL     1      33.412 -23.300 -15.107  0.00  0.00    -0.336 NA
ATOM      7  C   UNL     1      32.467 -23.293 -16.059  0.00  0.00    +0.218 C 
ATOM      8  C   UNL     1      31.083 -24.717 -14.973  0.00  0.00    +0.107 C 
ATOM      9  C   UNL     1      33.128 -24.079 -14.042  0.00  0.00    +0.107 C 
ATOM     10  C   UNL     1      31.969 -24.817 -13.920  0.00  0.00    +0.111 C 
ATOM     11  C   UNL     1      29.802 -25.478 -14.930  0.00  0.00    +0.063 C 
ATOM     12  C   UNL     1      34.148 -24.124 -12.954  0.00  0.00    +0.063 C 
ATOM     13  H   UNL     1      32.199 -21.668 -17.395  0.00  0.00    +0.188 HD
ENDBRANCH   1   4
BRANCH   1  14
ATOM     14  C   UNL     1      34.127 -21.596 -19.366  0.00  0.00    +0.126 C 
ATOM     15  C   UNL     1      35.372 -21.173 -19.831  0.00  0.00    +0.021 C 
ATOM     16  C   UNL     1      32.966 -20.947 -19.787  0.00  0.00    +0.021 C 
ATOM     17  C   UNL     1      34.296 -19.448 -21.137  0.00  0.00    +0.042 C 
ATOM     18  C   UNL     1      35.456 -20.098 -20.717  0.00  0.00    +0.015 C 
ATOM     19  C   UNL     1      33.051 -19.872 -20.673  0.00  0.00    +0.015 C 
BRANCH  17  20
ATOM     20  N   UNL     1      34.382 -18.363 -22.034  0.00  0.00    -0.357 N 
ATOM     21  H   UNL     1      34.670 -18.513 -22.963  0.00  0.00    +0.142 HD
ATOM     22  H   UNL     1      34.152 -17.454 -21.730  0.00  0.00    +0.142 HD
ENDBRANCH  17  20
ENDBRANCH   1  14
TORSDOF 3
ENDMDL
MODEL 2
REMARK VINA RESULT:      -8.9      8.574     11.839
REMARK  Name = 5327
REMARK  3 active torsions:
REMARK  status: ('A' for Active; 'I' for Inactive)
REMARK    1  A    between atoms: S_1  and  N_4
REMARK    2  A    between atoms: S_1  and  C_14
REMARK    3  A    between atoms: C_17  and  N_20
REMARK                            x       y       z     vdW  Elec       q    Type
REMARK                         _______ _______ _______ _____ _____    ______ ____
ROOT
ATOM      1  S   UNL     1      33.297 -13.406 -23.752  0.00  0.00    +0.083 S 
ATOM      2  O   UNL     1      32.943 -13.888 -25.083  0.00  0.00    -0.149 OA
ATOM      3  O   UNL     1      34.207 -12.273 -23.637  0.00  0.00    -0.149 OA
ENDROOT
BRANCH   1   4
ATOM      4  N   UNL     1      31.839 -13.065 -22.901  0.00  0.00    -0.139 N 
ATOM      5  N   UNL     1      31.704 -11.961 -20.821  0.00  0.00    -0.336 NA
ATOM      6  N   UNL     1      31.757 -10.708 -22.879  0.00  0.00    -0.336 NA
ATOM      7  C   UNL     1      31.762 -11.838 -22.156  0.00  0.00    +0.218 C 
ATOM      8  C   UNL     1      31.632 -10.790 -20.154  0.00  0.00    +0.107 C 
ATOM      9  C   UNL     1      31.683  -9.575 -22.149  0.00  0.00    +0.107 C 
ATOM     10  C   UNL     1      31.618  -9.556 -20.771  0.00  0.00    +0.111 C 
ATOM     11  C   UNL     1      31.565 -10.869 -18.667  0.00  0.00    +0.063 C 
ATOM     12  C   UNL     1      31.675  -8.289 -22.905  0.00  0.00    +0.063 C 
ATOM     13  H   UNL     1      31.081 -13.693 -22.924  0.00  0.00    +0.188 HD
ENDBRANCH   1   4
BRANCH   1  14
ATOM     14  C   UNL     1      33.963 -14.751 -22.859  0.00  0.00    +0.126 C 
ATOM     15  C   UNL     1      34.437 -15.873 -23.539  0.00  0.00    +0.021 C 
ATOM     16  C   UNL     1      34.020 -14.703 -21.466  0.00  0.00    +0.021 C 
ATOM     17  C   UNL     1      35.025 -16.900 -21.433  0.00  0.00    +0.042 C 
ATOM     18  C   UNL     1      34.969 -16.948 -22.825  0.00  0.00    +0.015 C 
ATOM     19  C   UNL     1      34.551 -15.778 -20.752  0.00  0.00    +0.015 C 
BRANCH  17  20
ATOM     20  N   UNL     1      35.563 -17.986 -20.711  0.00  0.00    -0.357 N 
ATOM     21  H   UNL     1      35.017 -18.446 -20.035  0.00  0.00    +0.142 HD
ATOM     22  H   UNL     1      36.486 -18.283 -20.885  0.00  0.00    +0.142 HD
ENDBRANCH  17  20
ENDBRANCH   1  14
TORSDOF 3
ENDMDL
MODEL 3
REMARK VINA RESULT:      -8.6      5.265      9.793
REMARK  Name = 5327
REMARK  3 active torsions:
REMARK  status: ('A' for Active; 'I' for Inactive)
REMARK    1  A    between atoms: S_1  and  N_4
REMARK    2  A    between atoms: S_1  and  C_14
REMARK    3  A    between atoms: C_17  and  N_20
REMARK                            x       y       z     vdW  Elec       q    Type
REMARK                         _______ _______ _______ _____ _____    ______ ____
ROOT
ATOM      1  S   UNL     1      34.634 -16.901 -21.631  0.00  0.00    +0.083 S 
ATOM      2  O   UNL     1      35.295 -17.023 -22.926  0.00  0.00    -0.149 OA
ATOM      3  O   UNL     1      35.281 -16.120 -20.584  0.00  0.00    -0.149 OA
ENDROOT
BRANCH   1   4
ATOM      4  N   UNL     1      33.042 -16.299 -21.898  0.00  0.00    -0.139 N 
ATOM      5  N   UNL     1      32.283 -14.146 -21.303  0.00  0.00    -0.336 NA
ATOM      6  N   UNL     1      33.375 -14.526 -23.417  0.00  0.00    -0.336 NA
ATOM      7  C   UNL     1      32.891 -14.907 -22.226  0.00  0.00    +0.218 C 
ATOM      8  C   UNL     1      32.158 -12.847 -21.643  0.00  0.00    +0.107 C 
ATOM      9  C   UNL     1      33.217 -13.214 -23.693  0.00  0.00    +0.107 C 
ATOM     10  C   UNL     1      32.610 -12.320 -22.836  0.00  0.00    +0.111 C 
ATOM     11  C   UNL     1      31.489 -11.956 -20.653  0.00  0.00    +0.063 C 
ATOM     12  C   UNL     1      33.739 -12.737 -25.007  0.00  0.00    +0.063 C 
ATOM     13  H   UNL     1      32.258 -16.892 -21.828  0.00  0.00    +0.188 HD
ENDBRANCH   1   4
BRANCH   1  14
ATOM     14  C   UNL     1      34.343 -18.514 -21.028  0.00  0.00    +0.126 C 
ATOM     15  C   UNL     1      33.036 -18.948 -20.803  0.00  0.00    +0.021 C 
ATOM     16  C   UNL     1      35.416 -19.367 -20.772  0.00  0.00    +0.021 C 
ATOM     17  C   UNL     1      33.878 -21.089 -20.063  0.00  0.00    +0.042 C 
ATOM     18  C   UNL     1      32.804 -20.237 -20.320  0.00  0.00    +0.015 C 
ATOM     19  C   UNL     1      35.184 -20.655 -20.289  0.00  0.00    +0.015 C 
BRANCH  17  20
ATOM     20  N   UNL     1      33.643 -22.392 -19.577  0.00  0.00    -0.357 N 
ATOM     21  H   UNL     1      34.277 -23.116 -19.782  0.00  0.00    +0.142 HD
ATOM     22  H   UNL     1      32.843 -22.577 -19.031  0.00  0.00    +0.142 HD
ENDBRANCH  17  20
ENDBRANCH   1  14
TORSDOF 3
ENDMDL
MODEL 4
REMARK VINA RESULT:      -8.5      3.792      5.691
REMARK  Name = 5327
REMARK  3 active torsions:
REMARK  status: ('A' for Active; 'I' for Inactive)
REMARK    1  A    between atoms: S_1  and  N_4
REMARK    2  A    between atoms: S_1  and  C_14
REMARK    3  A    between atoms: C_17  and  N_20
REMARK                            x       y       z     vdW  Elec       q    Type
REMARK                         _______ _______ _______ _____ _____    ______ ____
ROOT
ATOM      1  S   UNL     1      34.853 -23.472 -16.041  0.00  0.00    +0.083 S 
ATOM      2  O   UNL     1      35.230 -22.752 -17.253  0.00  0.00    -0.149 OA
ATOM      3  O   UNL     1      35.162 -24.894 -15.946  0.00  0.00    -0.149 OA
ENDROOT
BRANCH   1   4
ATOM      4  N   UNL     1      35.531 -22.643 -14.693  0.00  0.00    -0.139 N 
ATOM      5  N   UNL     1      35.702 -23.512 -12.507  0.00  0.00    -0.336 NA
ATOM      6  N   UNL     1      37.418 -23.948 -14.141  0.00  0.00    -0.336 NA
ATOM      7  C   UNL     1      36.261 -23.414 -13.722  0.00  0.00    +0.218 C 
ATOM      8  C   UNL     1      36.413 -24.241 -11.621  0.00  0.00    +0.107 C 
ATOM      9  C   UNL     1      38.076 -24.664 -13.206  0.00  0.00    +0.107 C 
ATOM     10  C   UNL     1      37.616 -24.846 -11.917  0.00  0.00    +0.111 C 
ATOM     11  C   UNL     1      35.836 -24.382 -10.253  0.00  0.00    +0.063 C 
ATOM     12  C   UNL     1      39.369 -25.281 -13.620  0.00  0.00    +0.063 C 
ATOM     13  H   UNL     1      35.423 -21.670 -14.590  0.00  0.00    +0.188 HD
ENDBRANCH   1   4
BRANCH   1  14
ATOM     14  C   UNL     1      33.136 -23.256 -15.806  0.00  0.00    +0.126 C 
ATOM     15  C   UNL     1      32.303 -23.047 -16.906  0.00  0.00    +0.021 C 
ATOM     16  C   UNL     1      32.598 -23.293 -14.519  0.00  0.00    +0.021 C 
ATOM     17  C   UNL     1      30.394 -22.910 -15.430  0.00  0.00    +0.042 C 
ATOM     18  C   UNL     1      30.931 -22.874 -16.717  0.00  0.00    +0.015 C 
ATOM     19  C   UNL     1      31.227 -23.119 -14.331  0.00  0.00    +0.015 C 
BRANCH  17  20
ATOM     20  N   UNL     1      29.007 -22.736 -15.240  0.00  0.00    -0.357 N 
ATOM     21  H   UNL     1      28.675 -21.983 -14.701  0.00  0.00    +0.142 HD
ATOM     22  H   UNL     1      28.371 -23.368 -15.648  0.00  0.00    +0.142 HD
ENDBRANCH  17  20
ENDBRANCH   1  14
TORSDOF 3
ENDMDL
MODEL 5
REMARK VINA RESULT:      -8.2      3.094      4.265
REMARK  Name = 5327
REMARK  3 active torsions:
REMARK  status: ('A' for Active; 'I' for Inactive)
REMARK    1  A    between atoms: S_1  and  N_4
REMARK    2  A    between atoms: S_1  and  C_14
REMARK    3  A    between atoms: C_17  and  N_20
REMARK                            x       y       z     vdW  Elec       q    Type
REMARK                         _______ _______ _______ _____ _____    ______ ____
ROOT
ATOM      1  S   UNL     1      34.401 -23.576 -15.976  0.00  0.00    +0.083 S 
ATOM      2  O   UNL     1      35.063 -24.872 -16.088  0.00  0.00    -0.149 OA
ATOM      3  O   UNL     1      32.954 -23.540 -15.801  0.00  0.00    -0.149 OA
ENDROOT
BRANCH   1   4
ATOM      4  N   UNL     1      35.158 -22.698 -14.703  0.00  0.00    -0.139 N 
ATOM      5  N   UNL     1      35.524 -23.512 -12.519  0.00  0.00    -0.336 NA
ATOM      6  N   UNL     1      37.119 -23.936 -14.274  0.00  0.00    -0.336 NA
ATOM      7  C   UNL     1      35.983 -23.426 -13.776  0.00  0.00    +0.218 C 
ATOM      8  C   UNL     1      36.323 -24.201 -11.677  0.00  0.00    +0.107 C 
ATOM      9  C   UNL     1      37.870 -24.613 -13.379  0.00  0.00    +0.107 C 
ATOM     10  C   UNL     1      37.517 -24.778 -12.055  0.00  0.00    +0.111 C 
ATOM     11  C   UNL     1      35.859 -24.327 -10.265  0.00  0.00    +0.063 C 
ATOM     12  C   UNL     1      39.144 -25.203 -13.881  0.00  0.00    +0.063 C 
ATOM     13  H   UNL     1      35.029 -21.726 -14.611  0.00  0.00    +0.188 HD
ENDBRANCH   1   4
BRANCH   1  14
ATOM     14  C   UNL     1      34.817 -22.642 -17.392  0.00  0.00    +0.126 C 
ATOM     15  C   UNL     1      33.863 -22.421 -18.386  0.00  0.00    +0.021 C 
ATOM     16  C   UNL     1      36.102 -22.117 -17.528  0.00  0.00    +0.021 C 
ATOM     17  C   UNL     1      35.480 -21.151 -19.654  0.00  0.00    +0.042 C 
ATOM     18  C   UNL     1      34.195 -21.675 -19.517  0.00  0.00    +0.015 C 
ATOM     19  C   UNL     1      36.434 -21.371 -18.660  0.00  0.00    +0.015 C 
BRANCH  17  20
ATOM     20  N   UNL     1      35.816 -20.396 -20.797  0.00  0.00    -0.357 N 
ATOM     21  H   UNL     1      36.637 -19.853 -20.805  0.00  0.00    +0.142 HD
ATOM     22  H   UNL     1      35.228 -20.412 -21.587  0.00  0.00    +0.142 HD
ENDBRANCH  17  20
ENDBRANCH   1  14
TORSDOF 3
ENDMDL
MODEL 6
REMARK VINA RESULT:      -8.2      3.956      6.056
REMARK  Name = 5327
REMARK  3 active torsions:
REMARK  status: ('A' for Active; 'I' for Inactive)
REMARK    1  A    between atoms: S_1  and  N_4
REMARK    2  A    between atoms: S_1  and  C_14
REMARK    3  A    between atoms: C_17  and  N_20
REMARK                            x       y       z     vdW  Elec       q    Type
REMARK                         _______ _______ _______ _____ _____    ______ ____
ROOT
ATOM      1  S   UNL     1      34.620 -23.359 -15.912  0.00  0.00    +0.083 S 
ATOM      2  O   UNL     1      35.083 -22.345 -14.971  0.00  0.00    -0.149 OA
ATOM      3  O   UNL     1      34.872 -23.164 -17.335  0.00  0.00    -0.149 OA
ENDROOT
BRANCH   1   4
ATOM      4  N   UNL     1      35.261 -24.879 -15.417  0.00  0.00    -0.139 N 
ATOM      5  N   UNL     1      37.439 -25.231 -14.581  0.00  0.00    -0.336 NA
ATOM      6  N   UNL     1      35.645 -24.587 -13.108  0.00  0.00    -0.336 NA
ATOM      7  C   UNL     1      36.169 -24.900 -14.302  0.00  0.00    +0.218 C 
ATOM      8  C   UNL     1      38.263 -25.241 -13.513  0.00  0.00    +0.107 C 
ATOM      9  C   UNL     1      36.523 -24.616 -12.084  0.00  0.00    +0.107 C 
ATOM     10  C   UNL     1      37.857 -24.939 -12.229  0.00  0.00    +0.111 C 
ATOM     11  C   UNL     1      39.687 -25.602 -13.767  0.00  0.00    +0.063 C 
ATOM     12  C   UNL     1      35.991 -24.274 -10.733  0.00  0.00    +0.063 C 
ATOM     13  H   UNL     1      35.013 -25.710 -15.885  0.00  0.00    +0.188 HD
ENDBRANCH   1   4
BRANCH   1  14
ATOM     14  C   UNL     1      32.903 -23.565 -15.670  0.00  0.00    +0.126 C 
ATOM     15  C   UNL     1      32.434 -24.238 -14.541  0.00  0.00    +0.021 C 
ATOM     16  C   UNL     1      32.001 -23.057 -16.605  0.00  0.00    +0.021 C 
ATOM     17  C   UNL     1      30.161 -23.896 -15.284  0.00  0.00    +0.042 C 
ATOM     18  C   UNL     1      31.062 -24.403 -14.349  0.00  0.00    +0.015 C 
ATOM     19  C   UNL     1      30.629 -23.222 -16.412  0.00  0.00    +0.015 C 
BRANCH  17  20
ATOM     20  N   UNL     1      28.774 -24.061 -15.089  0.00  0.00    -0.357 N 
ATOM     21  H   UNL     1      28.297 -24.795 -15.540  0.00  0.00    +0.142 HD
ATOM     22  H   UNL     1      28.282 -23.443 -14.500  0.00  0.00    +0.142 HD
ENDBRANCH  17  20
ENDBRANCH   1  14
TORSDOF 3
ENDMDL
MODEL 7
REMARK VINA RESULT:      -8.2      4.270      6.014
REMARK  Name = 5327
REMARK  3 active torsions:
REMARK  status: ('A' for Active; 'I' for Inactive)
REMARK    1  A    between atoms: S_1  and  N_4
REMARK    2  A    between atoms: S_1  and  C_14
REMARK    3  A    between atoms: C_17  and  N_20
REMARK                            x       y       z     vdW  Elec       q    Type
REMARK                         _______ _______ _______ _____ _____    ______ ____
ROOT
ATOM      1  S   UNL     1      32.105 -24.358 -13.607  0.00  0.00    +0.083 S 
ATOM      2  O   UNL     1      31.620 -25.490 -12.825  0.00  0.00    -0.149 OA
ATOM      3  O   UNL     1      32.503 -23.142 -12.909  0.00  0.00    -0.149 OA
ENDROOT
BRANCH   1   4
ATOM      4  N   UNL     1      33.405 -24.907 -14.594  0.00  0.00    -0.139 N 
ATOM      5  N   UNL     1      35.143 -23.552 -15.434  0.00  0.00    -0.336 NA
ATOM      6  N   UNL     1      35.306 -24.548 -13.246  0.00  0.00    -0.336 NA
ATOM      7  C   UNL     1      34.695 -24.299 -14.414  0.00  0.00    +0.218 C 
ATOM      8  C   UNL     1      36.357 -22.997 -15.232  0.00  0.00    +0.107 C 
ATOM      9  C   UNL     1      36.515 -23.962 -13.110  0.00  0.00    +0.107 C 
ATOM     10  C   UNL     1      37.095 -23.169 -14.079  0.00  0.00    +0.111 C 
ATOM     11  C   UNL     1      36.902 -22.156 -16.335  0.00  0.00    +0.063 C 
ATOM     12  C   UNL     1      37.237 -24.206 -11.827  0.00  0.00    +0.063 C 
ATOM     13  H   UNL     1      33.268 -25.617 -15.264  0.00  0.00    +0.188 HD
ENDBRANCH   1   4
BRANCH   1  14
ATOM     14  C   UNL     1      30.873 -23.953 -14.777  0.00  0.00    +0.126 C 
ATOM     15  C   UNL     1      31.107 -22.947 -15.716  0.00  0.00    +0.021 C 
ATOM     16  C   UNL     1      29.657 -24.635 -14.774  0.00  0.00    +0.021 C 
ATOM     17  C   UNL     1      28.906 -23.305 -16.646  0.00  0.00    +0.042 C 
ATOM     18  C   UNL     1      30.122 -22.624 -16.650  0.00  0.00    +0.015 C 
ATOM     19  C   UNL     1      28.672 -24.311 -15.708  0.00  0.00    +0.015 C 
BRANCH  17  20
ATOM     20  N   UNL     1      27.912 -22.978 -17.591  0.00  0.00    -0.357 N 
ATOM     21  H   UNL     1      28.118 -23.010 -18.553  0.00  0.00    +0.142 HD
ATOM     22  H   UNL     1      27.011 -22.719 -17.288  0.00  0.00    +0.142 HD
ENDBRANCH  17  20
ENDBRANCH   1  14
TORSDOF 3
ENDMDL
MODEL 8
REMARK VINA RESULT:      -8.0      7.079      9.734
REMARK  Name = 5327
REMARK  3 active torsions:
REMARK  status: ('A' for Active; 'I' for Inactive)
REMARK    1  A    between atoms: S_1  and  N_4
REMARK    2  A    between atoms: S_1  and  C_14
REMARK    3  A    between atoms: C_17  and  N_20
REMARK                            x       y       z     vdW  Elec       q    Type
REMARK                         _______ _______ _______ _____ _____    ______ ____
ROOT
ATOM      1  S   UNL     1      32.813 -14.870 -20.916  0.00  0.00    +0.083 S 
ATOM      2  O   UNL     1      32.035 -15.853 -21.662  0.00  0.00    -0.149 OA
ATOM      3  O   UNL     1      32.481 -14.628 -19.518  0.00  0.00    -0.149 OA
ENDROOT
BRANCH   1   4
ATOM      4  N   UNL     1      34.477 -15.295 -21.048  0.00  0.00    -0.139 N 
ATOM      5  N   UNL     1      35.343 -17.482 -20.868  0.00  0.00    -0.336 NA
ATOM      6  N   UNL     1      34.548 -16.643 -22.982  0.00  0.00    -0.336 NA
ATOM      7  C   UNL     1      34.809 -16.548 -21.670  0.00  0.00    +0.218 C 
ATOM      8  C   UNL     1      35.642 -18.644 -21.484  0.00  0.00    +0.107 C 
ATOM      9  C   UNL     1      34.871 -17.831 -23.534  0.00  0.00    +0.107 C 
ATOM     10  C   UNL     1      35.426 -18.878 -22.827  0.00  0.00    +0.111 C 
ATOM     11  C   UNL     1      36.238 -19.718 -20.638  0.00  0.00    +0.063 C 
ATOM     12  C   UNL     1      34.599 -17.990 -24.992  0.00  0.00    +0.063 C 
ATOM     13  H   UNL     1      35.181 -14.696 -20.707  0.00  0.00    +0.188 HD
ENDBRANCH   1   4
BRANCH   1  14
ATOM     14  C   UNL     1      32.729 -13.356 -21.782  0.00  0.00    +0.126 C 
ATOM     15  C   UNL     1      31.886 -12.341 -21.330  0.00  0.00    +0.021 C 
ATOM     16  C   UNL     1      33.505 -13.162 -22.925  0.00  0.00    +0.021 C 
ATOM     17  C   UNL     1      32.593 -10.938 -23.165  0.00  0.00    +0.042 C 
ATOM     18  C   UNL     1      31.818 -11.131 -22.022  0.00  0.00    +0.015 C 
ATOM     19  C   UNL     1      33.437 -11.953 -23.617  0.00  0.00    +0.015 C 
BRANCH  17  20
ATOM     20  N   UNL     1      32.526  -9.715 -23.864  0.00  0.00    -0.357 N 
ATOM     21  H   UNL     1      31.927  -9.000 -23.549  0.00  0.00    +0.142 HD
ATOM     22  H   UNL     1      33.078  -9.576 -24.668  0.00  0.00    +0.142 HD
ENDBRANCH  17  20
ENDBRANCH   1  14
TORSDOF 3
ENDMDL
MODEL 9
REMARK VINA RESULT:      -8.0      6.567      9.339
REMARK  Name = 5327
REMARK  3 active torsions:
REMARK  status: ('A' for Active; 'I' for Inactive)
REMARK    1  A    between atoms: S_1  and  N_4
REMARK    2  A    between atoms: S_1  and  C_14
REMARK    3  A    between atoms: C_17  and  N_20
REMARK                            x       y       z     vdW  Elec       q    Type
REMARK                         _______ _______ _______ _____ _____    ______ ____
ROOT
ATOM      1  S   UNL     1      33.210 -14.756 -21.502  0.00  0.00    +0.083 S 
ATOM      2  O   UNL     1      32.142 -15.750 -21.530  0.00  0.00    -0.149 OA
ATOM      3  O   UNL     1      33.146 -13.687 -20.513  0.00  0.00    -0.149 OA
ENDROOT
BRANCH   1   4
ATOM      4  N   UNL     1      34.711 -15.588 -21.356  0.00  0.00    -0.139 N 
ATOM      5  N   UNL     1      34.953 -17.882 -20.865  0.00  0.00    -0.336 NA
ATOM      6  N   UNL     1      34.655 -17.135 -23.136  0.00  0.00    -0.336 NA
ATOM      7  C   UNL     1      34.777 -16.950 -21.813  0.00  0.00    +0.218 C 
ATOM      8  C   UNL     1      35.011 -19.149 -21.328  0.00  0.00    +0.107 C 
ATOM      9  C   UNL     1      34.721 -18.424 -23.530  0.00  0.00    +0.107 C 
ATOM     10  C   UNL     1      34.900 -19.482 -22.662  0.00  0.00    +0.111 C 
ATOM     11  C   UNL     1      35.206 -20.225 -20.315  0.00  0.00    +0.063 C 
ATOM     12  C   UNL     1      34.590 -18.686 -24.993  0.00  0.00    +0.063 C 
ATOM     13  H   UNL     1      35.501 -15.144 -20.971  0.00  0.00    +0.188 HD
ENDBRANCH   1   4
BRANCH   1  14
ATOM     14  C   UNL     1      33.315 -14.042 -23.092  0.00  0.00    +0.126 C 
ATOM     15  C   UNL     1      33.042 -14.814 -24.222  0.00  0.00    +0.021 C 
ATOM     16  C   UNL     1      33.670 -12.701 -23.232  0.00  0.00    +0.021 C 
ATOM     17  C   UNL     1      33.483 -12.903 -25.632  0.00  0.00    +0.042 C 
ATOM     18  C   UNL     1      33.126 -14.243 -25.493  0.00  0.00    +0.015 C 
ATOM     19  C   UNL     1      33.755 -12.131 -24.503  0.00  0.00    +0.015 C 
BRANCH  17  20
ATOM     20  N   UNL     1      33.567 -12.326 -26.917  0.00  0.00    -0.357 N 
ATOM     21  H   UNL     1      32.760 -11.961 -27.346  0.00  0.00    +0.142 HD
ATOM     22  H   UNL     1      34.434 -12.288 -27.384  0.00  0.00    +0.142 HD
ENDBRANCH  17  20
ENDBRANCH   1  14
TORSDOF 3
ENDMDL
