MODEL 1
REMARK VINA RESULT:      -7.3      0.000      0.000
REMARK  Name = 447400
REMARK  8 active torsions:
REMARK  status: ('A' for Active; 'I' for Inactive)
REMARK    1  A    between atoms: C_1  and  S_7
REMARK    2  A    between atoms: C_4  and  C_19
REMARK    3  A    between atoms: C_5  and  O_16
REMARK    4  A    between atoms: S_7  and  N_10
REMARK    5  A    between atoms: N_10  and  C_12
REMARK    6  A    between atoms: C_12  and  C_13
REMARK    7  A    between atoms: C_13  and  S_14
REMARK    8  A    between atoms: C_19  and  O_20
REMARK                            x       y       z     vdW  Elec       q    Type
REMARK                         _______ _______ _______ _____ _____    ______ ____
ROOT
ATOM      1  C   UNL     1      35.048 -17.519 -23.033  0.00  0.00    +0.122 C 
ATOM      2  C   UNL     1      34.612 -16.195 -22.981  0.00  0.00    +0.029 C 
ATOM      3  C   UNL     1      34.985 -18.227 -24.233  0.00  0.00    +0.023 C 
ATOM      4  C   UNL     1      34.113 -15.579 -24.129  0.00  0.00    +0.110 C 
ATOM      5  C   UNL     1      34.051 -16.287 -25.329  0.00  0.00    +0.140 C 
ATOM      6  C   UNL     1      34.487 -17.611 -25.382  0.00  0.00    +0.038 C 
ENDROOT
BRANCH   1   7
ATOM      7  S   UNL     1      35.673 -18.292 -21.596  0.00  0.00    +0.060 S 
ATOM      8  O   UNL     1      37.074 -18.625 -21.817  0.00  0.00    -0.153 OA
ATOM      9  O   UNL     1      35.307 -17.466 -20.453  0.00  0.00    -0.153 OA
BRANCH   7  10
ATOM     10  N   UNL     1      34.769 -19.740 -21.535  0.00  0.00    -0.179 NA
ATOM     11  H   UNL     1      35.380 -20.452 -21.132  0.00  0.00    +0.149 HD
BRANCH  10  12
ATOM     12  C   UNL     1      33.508 -19.786 -20.783  0.00  0.00    +0.103 C 
BRANCH  12  13
ATOM     13  C   UNL     1      33.480 -20.987 -19.848  0.00  0.00    +0.072 C 
BRANCH  13  14
ATOM     14  S   UNL     1      35.148 -21.612 -19.479  0.00  0.00    -0.166 S 
ATOM     15  H   UNL     1      35.956 -21.408 -20.554  0.00  0.00    +0.102 HD
ENDBRANCH  13  14
ENDBRANCH  12  13
ENDBRANCH  10  12
ENDBRANCH   7  10
ENDBRANCH   1   7
BRANCH   5  16
ATOM     16  O   UNL     1      33.567 -15.704 -26.461  0.00  0.00    -0.505 OA
ATOM     17  H   UNL     1      34.159 -15.353 -27.097  0.00  0.00    +0.292 HD
ENDBRANCH   5  16
BRANCH   4  19
ATOM     18  O   UNL     1      32.740 -13.710 -24.711  0.00  0.00    -0.245 OA
ATOM     19  C   UNL     1      33.663 -14.197 -24.052  0.00  0.00    +0.341 C 
BRANCH  19  20
ATOM     20  O   UNL     1      34.380 -13.467 -23.156  0.00  0.00    -0.477 OA
ATOM     21  H   UNL     1      35.099 -13.859 -22.700  0.00  0.00    +0.295 HD
ENDBRANCH  19  20
ENDBRANCH   4  19
TORSDOF 8
ENDMDL
MODEL 2
REMARK VINA RESULT:      -7.2      2.936      6.648
REMARK  Name = 447400
REMARK  8 active torsions:
REMARK  status: ('A' for Active; 'I' for Inactive)
REMARK    1  A    between atoms: C_1  and  S_7
REMARK    2  A    between atoms: C_4  and  C_19
REMARK    3  A    between atoms: C_5  and  O_16
REMARK    4  A    between atoms: S_7  and  N_10
REMARK    5  A    between atoms: N_10  and  C_12
REMARK    6  A    between atoms: C_12  and  C_13
REMARK    7  A    between atoms: C_13  and  S_14
REMARK    8  A    between atoms: C_19  and  O_20
REMARK                            x       y       z     vdW  Elec       q    Type
REMARK                         _______ _______ _______ _____ _____    ______ ____
ROOT
ATOM      1  C   UNL     1      34.881 -19.425 -21.370  0.00  0.00    +0.122 C 
ATOM      2  C   UNL     1      35.522 -20.284 -20.478  0.00  0.00    +0.029 C 
ATOM      3  C   UNL     1      33.488 -19.393 -21.429  0.00  0.00    +0.023 C 
ATOM      4  C   UNL     1      34.769 -21.112 -19.645  0.00  0.00    +0.110 C 
ATOM      5  C   UNL     1      33.375 -21.080 -19.704  0.00  0.00    +0.140 C 
ATOM      6  C   UNL     1      32.735 -20.221 -20.596  0.00  0.00    +0.038 C 
ENDROOT
BRANCH   1   7
ATOM      7  S   UNL     1      35.822 -18.387 -22.414  0.00  0.00    +0.060 S 
ATOM      8  O   UNL     1      37.219 -18.455 -22.003  0.00  0.00    -0.153 OA
ATOM      9  O   UNL     1      35.468 -18.702 -23.791  0.00  0.00    -0.153 OA
BRANCH   7  10
ATOM     10  N   UNL     1      35.216 -16.836 -22.034  0.00  0.00    -0.179 NA
ATOM     11  H   UNL     1      35.935 -16.364 -21.485  0.00  0.00    +0.149 HD
BRANCH  10  12
ATOM     12  C   UNL     1      34.832 -15.915 -23.114  0.00  0.00    +0.103 C 
BRANCH  12  13
ATOM     13  C   UNL     1      34.400 -14.570 -22.548  0.00  0.00    +0.072 C 
BRANCH  13  14
ATOM     14  S   UNL     1      32.728 -14.627 -21.835  0.00  0.00    -0.166 S 
ATOM     15  H   UNL     1      31.807 -14.503 -22.829  0.00  0.00    +0.102 HD
ENDBRANCH  13  14
ENDBRANCH  12  13
ENDBRANCH  10  12
ENDBRANCH   7  10
ENDBRANCH   1   7
BRANCH   5  16
ATOM     16  O   UNL     1      32.623 -21.881 -18.899  0.00  0.00    -0.505 OA
ATOM     17  H   UNL     1      31.717 -22.024 -19.095  0.00  0.00    +0.292 HD
ENDBRANCH   5  16
BRANCH   4  19
ATOM     18  O   UNL     1      34.933 -22.931 -18.101  0.00  0.00    -0.245 OA
ATOM     19  C   UNL     1      35.457 -22.003 -18.721  0.00  0.00    +0.341 C 
BRANCH  19  20
ATOM     20  O   UNL     1      36.779 -21.704 -18.602  0.00  0.00    -0.477 OA
ATOM     21  H   UNL     1      37.183 -21.114 -19.207  0.00  0.00    +0.295 HD
ENDBRANCH  19  20
ENDBRANCH   4  19
TORSDOF 8
ENDMDL
MODEL 3
REMARK VINA RESULT:      -7.1      3.392      7.016
REMARK  Name = 447400
REMARK  8 active torsions:
REMARK  status: ('A' for Active; 'I' for Inactive)
REMARK    1  A    between atoms: C_1  and  S_7
REMARK    2  A    between atoms: C_4  and  C_19
REMARK    3  A    between atoms: C_5  and  O_16
REMARK    4  A    between atoms: S_7  and  N_10
REMARK    5  A    between atoms: N_10  and  C_12
REMARK    6  A    between atoms: C_12  and  C_13
REMARK    7  A    between atoms: C_13  and  S_14
REMARK    8  A    between atoms: C_19  and  O_20
REMARK                            x       y       z     vdW  Elec       q    Type
REMARK                         _______ _______ _______ _____ _____    ______ ____
ROOT
ATOM      1  C   UNL     1      35.398 -19.852 -20.829  0.00  0.00    +0.122 C 
ATOM      2  C   UNL     1      34.364 -20.681 -20.393  0.00  0.00    +0.029 C 
ATOM      3  C   UNL     1      36.657 -19.937 -20.234  0.00  0.00    +0.023 C 
ATOM      4  C   UNL     1      34.589 -21.593 -19.361  0.00  0.00    +0.110 C 
ATOM      5  C   UNL     1      35.848 -21.678 -18.767  0.00  0.00    +0.140 C 
ATOM      6  C   UNL     1      36.882 -20.850 -19.203  0.00  0.00    +0.038 C 
ENDROOT
BRANCH   1   7
ATOM      7  S   UNL     1      35.118 -18.709 -22.119  0.00  0.00    +0.060 S 
ATOM      8  O   UNL     1      36.391 -18.110 -22.497  0.00  0.00    -0.153 OA
ATOM      9  O   UNL     1      34.313 -19.375 -23.135  0.00  0.00    -0.153 OA
BRANCH   7  10
ATOM     10  N   UNL     1      34.158 -17.520 -21.355  0.00  0.00    -0.179 NA
ATOM     11  H   UNL     1      33.783 -17.944 -20.506  0.00  0.00    +0.149 HD
BRANCH  10  12
ATOM     12  C   UNL     1      34.758 -16.237 -20.961  0.00  0.00    +0.103 C 
BRANCH  12  13
ATOM     13  C   UNL     1      34.405 -15.146 -21.960  0.00  0.00    +0.072 C 
BRANCH  13  14
ATOM     14  S   UNL     1      32.683 -14.585 -21.789  0.00  0.00    -0.166 S 
ATOM     15  H   UNL     1      31.962 -15.000 -22.864  0.00  0.00    +0.102 HD
ENDBRANCH  13  14
ENDBRANCH  12  13
ENDBRANCH  10  12
ENDBRANCH   7  10
ENDBRANCH   1   7
BRANCH   5  16
ATOM     16  O   UNL     1      36.088 -22.562 -17.759  0.00  0.00    -0.505 OA
ATOM     17  H   UNL     1      36.774 -22.395 -17.143  0.00  0.00    +0.292 HD
ENDBRANCH   5  16
BRANCH   4  19
ATOM     18  O   UNL     1      32.405 -22.052 -18.501  0.00  0.00    -0.245 OA
ATOM     19  C   UNL     1      33.496 -22.448 -18.921  0.00  0.00    +0.341 C 
BRANCH  19  20
ATOM     20  O   UNL     1      33.800 -23.770 -19.018  0.00  0.00    -0.477 OA
ATOM     21  H   UNL     1      33.522 -24.366 -18.351  0.00  0.00    +0.295 HD
ENDBRANCH  19  20
ENDBRANCH   4  19
TORSDOF 8
ENDMDL
MODEL 4
REMARK VINA RESULT:      -7.0      8.326     10.438
REMARK  Name = 447400
REMARK  8 active torsions:
REMARK  status: ('A' for Active; 'I' for Inactive)
REMARK    1  A    between atoms: C_1  and  S_7
REMARK    2  A    between atoms: C_4  and  C_19
REMARK    3  A    between atoms: C_5  and  O_16
REMARK    4  A    between atoms: S_7  and  N_10
REMARK    5  A    between atoms: N_10  and  C_12
REMARK    6  A    between atoms: C_12  and  C_13
REMARK    7  A    between atoms: C_13  and  S_14
REMARK    8  A    between atoms: C_19  and  O_20
REMARK                            x       y       z     vdW  Elec       q    Type
REMARK                         _______ _______ _______ _____ _____    ______ ____
ROOT
ATOM      1  C   UNL     1      33.727 -23.712 -14.589  0.00  0.00    +0.122 C 
ATOM      2  C   UNL     1      33.938 -23.493 -15.950  0.00  0.00    +0.029 C 
ATOM      3  C   UNL     1      32.449 -23.569 -14.050  0.00  0.00    +0.023 C 
ATOM      4  C   UNL     1      32.870 -23.130 -16.772  0.00  0.00    +0.110 C 
ATOM      5  C   UNL     1      31.592 -22.987 -16.233  0.00  0.00    +0.140 C 
ATOM      6  C   UNL     1      31.380 -23.206 -14.872  0.00  0.00    +0.038 C 
ENDROOT
BRANCH   1   7
ATOM      7  S   UNL     1      35.062 -24.166 -13.559  0.00  0.00    +0.060 S 
ATOM      8  O   UNL     1      36.080 -23.126 -13.627  0.00  0.00    -0.153 OA
ATOM      9  O   UNL     1      34.515 -24.545 -12.263  0.00  0.00    -0.153 OA
BRANCH   7  10
ATOM     10  N   UNL     1      35.661 -25.568 -14.330  0.00  0.00    -0.179 NA
ATOM     11  H   UNL     1      34.991 -25.812 -15.061  0.00  0.00    +0.149 HD
BRANCH  10  12
ATOM     12  C   UNL     1      36.989 -25.548 -14.960  0.00  0.00    +0.103 C 
BRANCH  12  13
ATOM     13  C   UNL     1      38.054 -26.039 -13.990  0.00  0.00    +0.072 C 
BRANCH  13  14
ATOM     14  S   UNL     1      39.736 -25.622 -14.545  0.00  0.00    -0.166 S 
ATOM     15  H   UNL     1      39.708 -25.286 -15.863  0.00  0.00    +0.102 HD
ENDBRANCH  13  14
ENDBRANCH  12  13
ENDBRANCH  10  12
ENDBRANCH   7  10
ENDBRANCH   1   7
BRANCH   5  16
ATOM     16  O   UNL     1      30.537 -22.633 -17.018  0.00  0.00    -0.505 OA
ATOM     17  H   UNL     1      30.302 -21.730 -17.109  0.00  0.00    +0.292 HD
ENDBRANCH   5  16
BRANCH   4  19
ATOM     18  O   UNL     1      32.702 -21.940 -18.840  0.00  0.00    -0.245 OA
ATOM     19  C   UNL     1      33.113 -22.906 -18.190  0.00  0.00    +0.341 C 
BRANCH  19  20
ATOM     20  O   UNL     1      33.860 -23.894 -18.751  0.00  0.00    -0.477 OA
ATOM     21  H   UNL     1      33.799 -24.770 -18.426  0.00  0.00    +0.295 HD
ENDBRANCH  19  20
ENDBRANCH   4  19
TORSDOF 8
ENDMDL
MODEL 5
REMARK VINA RESULT:      -7.0      3.802      5.924
REMARK  Name = 447400
REMARK  8 active torsions:
REMARK  status: ('A' for Active; 'I' for Inactive)
REMARK    1  A    between atoms: C_1  and  S_7
REMARK    2  A    between atoms: C_4  and  C_19
REMARK    3  A    between atoms: C_5  and  O_16
REMARK    4  A    between atoms: S_7  and  N_10
REMARK    5  A    between atoms: N_10  and  C_12
REMARK    6  A    between atoms: C_12  and  C_13
REMARK    7  A    between atoms: C_13  and  S_14
REMARK    8  A    between atoms: C_19  and  O_20
REMARK                            x       y       z     vdW  Elec       q    Type
REMARK                         _______ _______ _______ _____ _____    ______ ____
ROOT
ATOM      1  C   UNL     1      34.708 -21.643 -19.409  0.00  0.00    +0.122 C 
ATOM      2  C   UNL     1      34.103 -20.652 -20.181  0.00  0.00    +0.029 C 
ATOM      3  C   UNL     1      36.097 -21.674 -19.277  0.00  0.00    +0.023 C 
ATOM      4  C   UNL     1      34.886 -19.692 -20.823  0.00  0.00    +0.110 C 
ATOM      5  C   UNL     1      36.274 -19.722 -20.691  0.00  0.00    +0.140 C 
ATOM      6  C   UNL     1      36.880 -20.713 -19.918  0.00  0.00    +0.038 C 
ENDROOT
BRANCH   1   7
ATOM      7  S   UNL     1      33.729 -22.846 -18.606  0.00  0.00    +0.060 S 
ATOM      8  O   UNL     1      32.410 -22.282 -18.352  0.00  0.00    -0.153 OA
ATOM      9  O   UNL     1      33.842 -24.087 -19.360  0.00  0.00    -0.153 OA
BRANCH   7  10
ATOM     10  N   UNL     1      34.537 -23.040 -17.113  0.00  0.00    -0.179 NA
ATOM     11  H   UNL     1      34.956 -22.137 -16.885  0.00  0.00    +0.149 HD
BRANCH  10  12
ATOM     12  C   UNL     1      33.787 -23.473 -15.925  0.00  0.00    +0.103 C 
BRANCH  12  13
ATOM     13  C   UNL     1      34.703 -24.182 -14.938  0.00  0.00    +0.072 C 
BRANCH  13  14
ATOM     14  S   UNL     1      36.452 -23.747 -15.185  0.00  0.00    -0.166 S 
ATOM     15  H   UNL     1      37.099 -23.775 -13.990  0.00  0.00    +0.102 HD
ENDBRANCH  13  14
ENDBRANCH  12  13
ENDBRANCH  10  12
ENDBRANCH   7  10
ENDBRANCH   1   7
BRANCH   5  16
ATOM     16  O   UNL     1      37.056 -18.794 -21.309  0.00  0.00    -0.505 OA
ATOM     17  H   UNL     1      37.173 -18.823 -22.239  0.00  0.00    +0.292 HD
ENDBRANCH   5  16
BRANCH   4  19
ATOM     18  O   UNL     1      33.591 -17.712 -21.179  0.00  0.00    -0.245 OA
ATOM     19  C   UNL     1      34.234 -18.667 -21.625  0.00  0.00    +0.341 C 
BRANCH  19  20
ATOM     20  O   UNL     1      34.405 -18.866 -22.960  0.00  0.00    -0.477 OA
ATOM     21  H   UNL     1      34.411 -18.136 -23.546  0.00  0.00    +0.295 HD
ENDBRANCH  19  20
ENDBRANCH   4  19
TORSDOF 8
ENDMDL
MODEL 6
REMARK VINA RESULT:      -7.0      3.840      6.802
REMARK  Name = 447400
REMARK  8 active torsions:
REMARK  status: ('A' for Active; 'I' for Inactive)
REMARK    1  A    between atoms: C_1  and  S_7
REMARK    2  A    between atoms: C_4  and  C_19
REMARK    3  A    between atoms: C_5  and  O_16
REMARK    4  A    between atoms: S_7  and  N_10
REMARK    5  A    between atoms: N_10  and  C_12
REMARK    6  A    between atoms: C_12  and  C_13
REMARK    7  A    between atoms: C_13  and  S_14
REMARK    8  A    between atoms: C_19  and  O_20
REMARK                            x       y       z     vdW  Elec       q    Type
REMARK                         _______ _______ _______ _____ _____    ______ ____
ROOT
ATOM      1  C   UNL     1      33.755 -14.767 -22.761  0.00  0.00    +0.122 C 
ATOM      2  C   UNL     1      34.242 -15.904 -23.405  0.00  0.00    +0.029 C 
ATOM      3  C   UNL     1      33.880 -14.642 -21.378  0.00  0.00    +0.023 C 
ATOM      4  C   UNL     1      34.853 -16.917 -22.666  0.00  0.00    +0.110 C 
ATOM      5  C   UNL     1      34.978 -16.792 -21.282  0.00  0.00    +0.140 C 
ATOM      6  C   UNL     1      34.492 -15.655 -20.637  0.00  0.00    +0.038 C 
ENDROOT
BRANCH   1   7
ATOM      7  S   UNL     1      32.990 -13.498 -23.686  0.00  0.00    +0.060 S 
ATOM      8  O   UNL     1      32.628 -14.026 -24.995  0.00  0.00    -0.153 OA
ATOM      9  O   UNL     1      31.959 -12.898 -22.849  0.00  0.00    -0.153 OA
BRANCH   7  10
ATOM     10  N   UNL     1      34.258 -12.371 -23.883  0.00  0.00    -0.179 NA
ATOM     11  H   UNL     1      35.072 -12.896 -24.205  0.00  0.00    +0.149 HD
BRANCH  10  12
ATOM     12  C   UNL     1      34.093 -11.236 -24.802  0.00  0.00    +0.103 C 
BRANCH  12  13
ATOM     13  C   UNL     1      34.265  -9.915 -24.066  0.00  0.00    +0.072 C 
BRANCH  13  14
ATOM     14  S   UNL     1      32.714  -9.341 -23.309  0.00  0.00    -0.166 S 
ATOM     15  H   UNL     1      31.946  -8.736 -24.254  0.00  0.00    +0.102 HD
ENDBRANCH  13  14
ENDBRANCH  12  13
ENDBRANCH  10  12
ENDBRANCH   7  10
ENDBRANCH   1   7
BRANCH   5  16
ATOM     16  O   UNL     1      35.571 -17.770 -20.542  0.00  0.00    -0.505 OA
ATOM     17  H   UNL     1      36.506 -17.845 -20.528  0.00  0.00    +0.292 HD
ENDBRANCH   5  16
BRANCH   4  19
ATOM     18  O   UNL     1      34.703 -18.792 -24.143  0.00  0.00    -0.245 OA
ATOM     19  C   UNL     1      35.353 -18.096 -23.358  0.00  0.00    +0.341 C 
BRANCH  19  20
ATOM     20  O   UNL     1      36.649 -18.369 -23.046  0.00  0.00    -0.477 OA
ATOM     21  H   UNL     1      37.291 -18.431 -23.725  0.00  0.00    +0.295 HD
ENDBRANCH  19  20
ENDBRANCH   4  19
TORSDOF 8
ENDMDL
MODEL 7
REMARK VINA RESULT:      -7.0      3.788      6.370
REMARK  Name = 447400
REMARK  8 active torsions:
REMARK  status: ('A' for Active; 'I' for Inactive)
REMARK    1  A    between atoms: C_1  and  S_7
REMARK    2  A    between atoms: C_4  and  C_19
REMARK    3  A    between atoms: C_5  and  O_16
REMARK    4  A    between atoms: S_7  and  N_10
REMARK    5  A    between atoms: N_10  and  C_12
REMARK    6  A    between atoms: C_12  and  C_13
REMARK    7  A    between atoms: C_13  and  S_14
REMARK    8  A    between atoms: C_19  and  O_20
REMARK                            x       y       z     vdW  Elec       q    Type
REMARK                         _______ _______ _______ _____ _____    ______ ____
ROOT
ATOM      1  C   UNL     1      33.815 -14.690 -22.731  0.00  0.00    +0.122 C 
ATOM      2  C   UNL     1      34.278 -15.828 -23.391  0.00  0.00    +0.029 C 
ATOM      3  C   UNL     1      33.931 -14.593 -21.344  0.00  0.00    +0.023 C 
ATOM      4  C   UNL     1      34.854 -16.870 -22.665  0.00  0.00    +0.110 C 
ATOM      5  C   UNL     1      34.970 -16.773 -21.278  0.00  0.00    +0.140 C 
ATOM      6  C   UNL     1      34.508 -15.635 -20.617  0.00  0.00    +0.038 C 
ENDROOT
BRANCH   1   7
ATOM      7  S   UNL     1      33.093 -13.384 -23.639  0.00  0.00    +0.060 S 
ATOM      8  O   UNL     1      34.060 -12.300 -23.748  0.00  0.00    -0.153 OA
ATOM      9  O   UNL     1      32.516 -13.951 -24.850  0.00  0.00    -0.153 OA
BRANCH   7  10
ATOM     10  N   UNL     1      31.823 -12.882 -22.613  0.00  0.00    -0.179 NA
ATOM     11  H   UNL     1      31.859 -13.478 -21.785  0.00  0.00    +0.149 HD
BRANCH  10  12
ATOM     12  C   UNL     1      31.772 -11.493 -22.135  0.00  0.00    +0.103 C 
BRANCH  12  13
ATOM     13  C   UNL     1      30.730 -11.337 -21.037  0.00  0.00    +0.072 C 
BRANCH  13  14
ATOM     14  S   UNL     1      31.469 -10.832 -19.453  0.00  0.00    -0.166 S 
ATOM     15  H   UNL     1      30.677  -9.898 -18.861  0.00  0.00    +0.102 HD
ENDBRANCH  13  14
ENDBRANCH  12  13
ENDBRANCH  10  12
ENDBRANCH   7  10
ENDBRANCH   1   7
BRANCH   5  16
ATOM     16  O   UNL     1      35.530 -17.780 -20.551  0.00  0.00    -0.505 OA
ATOM     17  H   UNL     1      35.284 -17.904 -19.655  0.00  0.00    +0.292 HD
ENDBRANCH   5  16
BRANCH   4  19
ATOM     18  O   UNL     1      34.667 -18.717 -24.173  0.00  0.00    -0.245 OA
ATOM     19  C   UNL     1      35.329 -18.050 -23.374  0.00  0.00    +0.341 C 
BRANCH  19  20
ATOM     20  O   UNL     1      36.617 -18.358 -23.062  0.00  0.00    -0.477 OA
ATOM     21  H   UNL     1      37.296 -17.725 -23.192  0.00  0.00    +0.295 HD
ENDBRANCH  19  20
ENDBRANCH   4  19
TORSDOF 8
ENDMDL
MODEL 8
REMARK VINA RESULT:      -6.9      6.115      9.760
REMARK  Name = 447400
REMARK  8 active torsions:
REMARK  status: ('A' for Active; 'I' for Inactive)
REMARK    1  A    between atoms: C_1  and  S_7
REMARK    2  A    between atoms: C_4  and  C_19
REMARK    3  A    between atoms: C_5  and  O_16
REMARK    4  A    between atoms: S_7  and  N_10
REMARK    5  A    between atoms: N_10  and  C_12
REMARK    6  A    between atoms: C_12  and  C_13
REMARK    7  A    between atoms: C_13  and  S_14
REMARK    8  A    between atoms: C_19  and  O_20
REMARK                            x       y       z     vdW  Elec       q    Type
REMARK                         _______ _______ _______ _____ _____    ______ ____
ROOT
ATOM      1  C   UNL     1      32.905 -23.087 -16.896  0.00  0.00    +0.122 C 
ATOM      2  C   UNL     1      31.521 -22.974 -17.025  0.00  0.00    +0.029 C 
ATOM      3  C   UNL     1      33.472 -23.321 -15.644  0.00  0.00    +0.023 C 
ATOM      4  C   UNL     1      30.704 -23.094 -15.900  0.00  0.00    +0.110 C 
ATOM      5  C   UNL     1      31.271 -23.329 -14.648  0.00  0.00    +0.140 C 
ATOM      6  C   UNL     1      32.655 -23.443 -14.519  0.00  0.00    +0.038 C 
ENDROOT
BRANCH   1   7
ATOM      7  S   UNL     1      33.929 -22.936 -18.303  0.00  0.00    +0.060 S 
ATOM      8  O   UNL     1      35.255 -22.511 -17.872  0.00  0.00    -0.153 OA
ATOM      9  O   UNL     1      33.791 -24.156 -19.086  0.00  0.00    -0.153 OA
BRANCH   7  10
ATOM     10  N   UNL     1      33.195 -21.651 -19.157  0.00  0.00    -0.179 NA
ATOM     11  H   UNL     1      32.764 -21.042 -18.460  0.00  0.00    +0.149 HD
BRANCH  10  12
ATOM     12  C   UNL     1      34.007 -20.792 -20.029  0.00  0.00    +0.103 C 
BRANCH  12  13
ATOM     13  C   UNL     1      33.140 -19.750 -20.720  0.00  0.00    +0.072 C 
BRANCH  13  14
ATOM     14  S   UNL     1      34.122 -18.389 -21.420  0.00  0.00    -0.166 S 
ATOM     15  H   UNL     1      33.304 -17.543 -22.102  0.00  0.00    +0.102 HD
ENDBRANCH  13  14
ENDBRANCH  12  13
ENDBRANCH  10  12
ENDBRANCH   7  10
ENDBRANCH   1   7
BRANCH   5  16
ATOM     16  O   UNL     1      30.490 -23.450 -13.538  0.00  0.00    -0.505 OA
ATOM     17  H   UNL     1      30.774 -23.082 -12.723  0.00  0.00    +0.292 HD
ENDBRANCH   5  16
BRANCH   4  19
ATOM     18  O   UNL     1      28.420 -23.660 -15.474  0.00  0.00    -0.245 OA
ATOM     19  C   UNL     1      29.261 -22.971 -16.056  0.00  0.00    +0.341 C 
BRANCH  19  20
ATOM     20  O   UNL     1      28.917 -21.992 -16.935  0.00  0.00    -0.477 OA
ATOM     21  H   UNL     1      29.442 -21.838 -17.695  0.00  0.00    +0.295 HD
ENDBRANCH  19  20
ENDBRANCH   4  19
TORSDOF 8
ENDMDL
MODEL 9
REMARK VINA RESULT:      -6.9      6.371      8.728
REMARK  Name = 447400
REMARK  8 active torsions:
REMARK  status: ('A' for Active; 'I' for Inactive)
REMARK    1  A    between atoms: C_1  and  S_7
REMARK    2  A    between atoms: C_4  and  C_19
REMARK    3  A    between atoms: C_5  and  O_16
REMARK    4  A    between atoms: S_7  and  N_10
REMARK    5  A    between atoms: N_10  and  C_12
REMARK    6  A    between atoms: C_12  and  C_13
REMARK    7  A    between atoms: C_13  and  S_14
REMARK    8  A    between atoms: C_19  and  O_20
REMARK                            x       y       z     vdW  Elec       q    Type
REMARK                         _______ _______ _______ _____ _____    ______ ____
ROOT
ATOM      1  C   UNL     1      35.447 -22.960 -16.457  0.00  0.00    +0.122 C 
ATOM      2  C   UNL     1      35.955 -22.210 -17.518  0.00  0.00    +0.029 C 
ATOM      3  C   UNL     1      34.129 -23.415 -16.494  0.00  0.00    +0.023 C 
ATOM      4  C   UNL     1      35.144 -21.915 -18.615  0.00  0.00    +0.110 C 
ATOM      5  C   UNL     1      33.826 -22.371 -18.652  0.00  0.00    +0.140 C 
ATOM      6  C   UNL     1      33.318 -23.121 -17.591  0.00  0.00    +0.038 C 
ENDROOT
BRANCH   1   7
ATOM      7  S   UNL     1      36.459 -23.329 -15.084  0.00  0.00    +0.060 S 
ATOM      8  O   UNL     1      37.611 -22.436 -15.098  0.00  0.00    -0.153 OA
ATOM      9  O   UNL     1      35.607 -23.375 -13.903  0.00  0.00    -0.153 OA
BRANCH   7  10
ATOM     10  N   UNL     1      36.992 -24.914 -15.435  0.00  0.00    -0.179 NA
ATOM     11  H   UNL     1      37.856 -24.822 -15.971  0.00  0.00    +0.149 HD
BRANCH  10  12
ATOM     12  C   UNL     1      37.269 -25.854 -14.339  0.00  0.00    +0.103 C 
BRANCH  12  13
ATOM     13  C   UNL     1      38.536 -25.457 -13.595  0.00  0.00    +0.072 C 
BRANCH  13  14
ATOM     14  S   UNL     1      40.017 -25.579 -14.643  0.00  0.00    -0.166 S 
ATOM     15  H   UNL     1      40.515 -26.843 -14.580  0.00  0.00    +0.102 HD
ENDBRANCH  13  14
ENDBRANCH  12  13
ENDBRANCH  10  12
ENDBRANCH   7  10
ENDBRANCH   1   7
BRANCH   5  16
ATOM     16  O   UNL     1      33.020 -22.094 -19.714  0.00  0.00    -0.505 OA
ATOM     17  H   UNL     1      32.573 -21.271 -19.761  0.00  0.00    +0.292 HD
ENDBRANCH   5  16
BRANCH   4  19
ATOM     18  O   UNL     1      36.790 -21.321 -20.246  0.00  0.00    -0.245 OA
ATOM     19  C   UNL     1      35.694 -21.130 -19.711  0.00  0.00    +0.341 C 
BRANCH  19  20
ATOM     20  O   UNL     1      34.858 -20.132 -20.105  0.00  0.00    -0.477 OA
ATOM     21  H   UNL     1      34.229 -20.287 -20.782  0.00  0.00    +0.295 HD
ENDBRANCH  19  20
ENDBRANCH   4  19
TORSDOF 8
ENDMDL
