MODEL 1
REMARK VINA RESULT:      -9.8      0.000      0.000
REMARK  Name = 44176356
REMARK  5 active torsions:
REMARK  status: ('A' for Active; 'I' for Inactive)
REMARK    1  A    between atoms: C_13  and  O_25
REMARK    2  A    between atoms: C_14  and  O_23
REMARK    3  A    between atoms: O_25  and  C_26
REMARK    4  A    between atoms: C_26  and  C_27
REMARK    5  A    between atoms: C_27  and  O_28
REMARK                            x       y       z     vdW  Elec       q    Type
REMARK                         _______ _______ _______ _____ _____    ______ ____
ROOT
ATOM      1  N   UNL     1      36.569 -22.713 -16.669  0.00  0.00    -0.248 NA
ATOM      2  N   UNL     1      30.552 -24.271 -15.292  0.00  0.00    -0.221 N 
ATOM      3  N   UNL     1      32.690 -24.481 -14.367  0.00  0.00    -0.372 NA
ATOM      4  N   UNL     1      28.607 -24.974 -14.486  0.00  0.00    -0.224 NA
ATOM      5  C   UNL     1      33.783 -23.116 -16.616  0.00  0.00    +0.010 C 
ATOM      6  C   UNL     1      34.405 -22.437 -17.716  0.00  0.00    +0.017 C 
ATOM      7  C   UNL     1      34.597 -23.575 -15.566  0.00  0.00    +0.063 C 
ATOM      8  C   UNL     1      35.810 -22.267 -17.681  0.00  0.00    +0.067 C 
ATOM      9  C   UNL     1      32.399 -23.368 -16.493  0.00  0.00    +0.049 C 
ATOM     10  C   UNL     1      33.700 -21.926 -18.834  0.00  0.00    +0.041 C 
ATOM     11  C   UNL     1      36.442 -21.612 -18.734  0.00  0.00    +0.113 C 
ATOM     12  C   UNL     1      31.917 -24.038 -15.376  0.00  0.00    +0.194 C 
ATOM     13  C   UNL     1      35.731 -21.116 -19.826  0.00  0.00    +0.156 C 
ATOM     14  C   UNL     1      34.356 -21.273 -19.876  0.00  0.00    +0.169 C 
ATOM     15  C   UNL     1      34.012 -24.239 -14.485  0.00  0.00    +0.180 C 
ATOM     16  C   UNL     1      35.964 -23.348 -15.645  0.00  0.00    +0.102 C 
ATOM     17  C   UNL     1      29.610 -23.902 -16.212  0.00  0.00    +0.094 C 
ATOM     18  C   UNL     1      29.903 -24.911 -14.274  0.00  0.00    +0.174 C 
ATOM     19  C   UNL     1      28.418 -24.347 -15.692  0.00  0.00    +0.117 C 
ATOM     20  N   UNL     1      34.834 -24.701 -13.426  0.00  0.00    -0.333 N 
ATOM     21  H   UNL     1      34.434 -25.170 -12.659  0.00  0.00    +0.145 HD
ATOM     22  H   UNL     1      35.807 -24.552 -13.458  0.00  0.00    +0.145 HD
ENDROOT
BRANCH  14  23
ATOM     23  O   UNL     1      33.638 -20.798 -20.931  0.00  0.00    -0.469 OA
ATOM     24  C   UNL     1      32.681 -19.776 -20.657  0.00  0.00    +0.253 C 
ENDBRANCH  14  23
BRANCH  13  25
ATOM     25  O   UNL     1      36.398 -20.480 -20.828  0.00  0.00    -0.474 OA
BRANCH  25  26
ATOM     26  C   UNL     1      36.775 -19.123 -20.598  0.00  0.00    +0.237 C 
BRANCH  26  27
ATOM     27  C   UNL     1      35.924 -18.218 -21.467  0.00  0.00    +0.189 C 
BRANCH  27  28
ATOM     28  O   UNL     1      35.274 -17.260 -20.641  0.00  0.00    -0.347 OA
ATOM     29  C   UNL     1      34.513 -16.341 -21.412  0.00  0.00    +0.174 C 
ENDBRANCH  27  28
ENDBRANCH  26  27
ENDBRANCH  25  26
ENDBRANCH  13  25
TORSDOF 5
ENDMDL
MODEL 2
REMARK VINA RESULT:      -9.5      4.123      6.353
REMARK  Name = 44176356
REMARK  5 active torsions:
REMARK  status: ('A' for Active; 'I' for Inactive)
REMARK    1  A    between atoms: C_13  and  O_25
REMARK    2  A    between atoms: C_14  and  O_23
REMARK    3  A    between atoms: O_25  and  C_26
REMARK    4  A    between atoms: C_26  and  C_27
REMARK    5  A    between atoms: C_27  and  O_28
REMARK                            x       y       z     vdW  Elec       q    Type
REMARK                         _______ _______ _______ _____ _____    ______ ____
ROOT
ATOM      1  N   UNL     1      36.542 -22.550 -17.103  0.00  0.00    -0.248 NA
ATOM      2  N   UNL     1      30.341 -23.552 -16.071  0.00  0.00    -0.221 N 
ATOM      3  N   UNL     1      31.739 -22.674 -17.728  0.00  0.00    -0.372 NA
ATOM      4  N   UNL     1      28.129 -23.739 -16.066  0.00  0.00    -0.224 NA
ATOM      5  C   UNL     1      34.005 -23.232 -16.093  0.00  0.00    +0.010 C 
ATOM      6  C   UNL     1      35.191 -23.482 -15.325  0.00  0.00    +0.017 C 
ATOM      7  C   UNL     1      34.139 -22.638 -17.360  0.00  0.00    +0.063 C 
ATOM      8  C   UNL     1      36.436 -23.115 -15.891  0.00  0.00    +0.067 C 
ATOM      9  C   UNL     1      32.689 -23.535 -15.678  0.00  0.00    +0.049 C 
ATOM     10  C   UNL     1      35.194 -24.074 -14.038  0.00  0.00    +0.041 C 
ATOM     11  C   UNL     1      37.604 -23.346 -15.172  0.00  0.00    +0.113 C 
ATOM     12  C   UNL     1      31.618 -23.243 -16.513  0.00  0.00    +0.194 C 
ATOM     13  C   UNL     1      37.587 -23.930 -13.906  0.00  0.00    +0.156 C 
ATOM     14  C   UNL     1      36.378 -24.295 -13.337  0.00  0.00    +0.169 C 
ATOM     15  C   UNL     1      32.996 -22.385 -18.123  0.00  0.00    +0.180 C 
ATOM     16  C   UNL     1      35.414 -22.323 -17.807  0.00  0.00    +0.102 C 
ATOM     17  C   UNL     1      30.016 -24.128 -14.874  0.00  0.00    +0.094 C 
ATOM     18  C   UNL     1      29.176 -23.337 -16.753  0.00  0.00    +0.174 C 
ATOM     19  C   UNL     1      28.646 -24.232 -14.895  0.00  0.00    +0.117 C 
ATOM     20  N   UNL     1      33.134 -21.787 -19.401  0.00  0.00    -0.333 N 
ATOM     21  H   UNL     1      32.336 -21.604 -19.948  0.00  0.00    +0.145 HD
ATOM     22  H   UNL     1      34.028 -21.555 -19.741  0.00  0.00    +0.145 HD
ENDROOT
BRANCH  14  23
ATOM     23  O   UNL     1      36.333 -24.866 -12.102  0.00  0.00    -0.469 OA
ATOM     24  C   UNL     1      35.844 -24.060 -11.031  0.00  0.00    +0.253 C 
ENDBRANCH  14  23
BRANCH  13  25
ATOM     25  O   UNL     1      38.759 -24.136 -13.245  0.00  0.00    -0.474 OA
BRANCH  25  26
ATOM     26  C   UNL     1      39.316 -25.449 -13.306  0.00  0.00    +0.237 C 
BRANCH  26  27
ATOM     27  C   UNL     1      39.133 -26.000 -14.707  0.00  0.00    +0.189 C 
BRANCH  27  28
ATOM     28  O   UNL     1      38.350 -27.186 -14.639  0.00  0.00    -0.347 OA
ATOM     29  C   UNL     1      37.130 -27.044 -15.354  0.00  0.00    +0.174 C 
ENDBRANCH  27  28
ENDBRANCH  26  27
ENDBRANCH  25  26
ENDBRANCH  13  25
TORSDOF 5
ENDMDL
MODEL 3
REMARK VINA RESULT:      -8.7      8.492     13.033
REMARK  Name = 44176356
REMARK  5 active torsions:
REMARK  status: ('A' for Active; 'I' for Inactive)
REMARK    1  A    between atoms: C_13  and  O_25
REMARK    2  A    between atoms: C_14  and  O_23
REMARK    3  A    between atoms: O_25  and  C_26
REMARK    4  A    between atoms: C_26  and  C_27
REMARK    5  A    between atoms: C_27  and  O_28
REMARK                            x       y       z     vdW  Elec       q    Type
REMARK                         _______ _______ _______ _____ _____    ______ ____
ROOT
ATOM      1  N   UNL     1      32.371 -14.017 -21.164  0.00  0.00    -0.248 NA
ATOM      2  N   UNL     1      31.974  -7.760 -22.269  0.00  0.00    -0.221 N 
ATOM      3  N   UNL     1      31.656  -9.269 -20.511  0.00  0.00    -0.372 NA
ATOM      4  N   UNL     1      31.725  -5.554 -22.277  0.00  0.00    -0.224 NA
ATOM      5  C   UNL     1      32.379 -11.416 -22.239  0.00  0.00    +0.010 C 
ATOM      6  C   UNL     1      32.732 -12.546 -23.050  0.00  0.00    +0.017 C 
ATOM      7  C   UNL     1      32.030 -11.638 -20.896  0.00  0.00    +0.063 C 
ATOM      8  C   UNL     1      32.708 -13.827 -22.448  0.00  0.00    +0.067 C 
ATOM      9  C   UNL     1      32.352 -10.074 -22.682  0.00  0.00    +0.049 C 
ATOM     10  C   UNL     1      33.103 -12.458 -24.415  0.00  0.00    +0.041 C 
ATOM     11  C   UNL     1      33.045 -14.942 -23.209  0.00  0.00    +0.113 C 
ATOM     12  C   UNL     1      31.993  -9.065 -21.798  0.00  0.00    +0.194 C 
ATOM     13  C   UNL     1      33.408 -14.837 -24.550  0.00  0.00    +0.156 C 
ATOM     14  C   UNL     1      33.437 -13.591 -25.156  0.00  0.00    +0.169 C 
ATOM     15  C   UNL     1      31.683 -10.551 -20.090  0.00  0.00    +0.180 C 
ATOM     16  C   UNL     1      32.043 -12.940 -20.419  0.00  0.00    +0.102 C 
ATOM     17  C   UNL     1      32.280  -7.353 -23.538  0.00  0.00    +0.094 C 
ATOM     18  C   UNL     1      31.647  -6.645 -21.548  0.00  0.00    +0.174 C 
ATOM     19  C   UNL     1      32.119  -5.988 -23.518  0.00  0.00    +0.117 C 
ATOM     20  N   UNL     1      31.331 -10.777 -18.735  0.00  0.00    -0.333 N 
ATOM     21  H   UNL     1      31.085 -10.019 -18.156  0.00  0.00    +0.145 HD
ATOM     22  H   UNL     1      31.334 -11.692 -18.372  0.00  0.00    +0.145 HD
ENDROOT
BRANCH  14  23
ATOM     23  O   UNL     1      33.787 -13.460 -26.465  0.00  0.00    -0.469 OA
ATOM     24  C   UNL     1      32.729 -13.279 -27.405  0.00  0.00    +0.253 C 
ENDBRANCH  14  23
BRANCH  13  25
ATOM     25  O   UNL     1      33.732 -15.959 -25.249  0.00  0.00    -0.474 OA
BRANCH  25  26
ATOM     26  C   UNL     1      34.836 -16.725 -24.770  0.00  0.00    +0.237 C 
BRANCH  26  27
ATOM     27  C   UNL     1      34.508 -18.201 -24.898  0.00  0.00    +0.189 C 
BRANCH  27  28
ATOM     28  O   UNL     1      34.670 -18.824 -23.630  0.00  0.00    -0.347 OA
ATOM     29  C   UNL     1      35.407 -18.000 -22.737  0.00  0.00    +0.174 C 
ENDBRANCH  27  28
ENDBRANCH  26  27
ENDBRANCH  25  26
ENDBRANCH  13  25
TORSDOF 5
ENDMDL
MODEL 4
REMARK VINA RESULT:      -8.3      1.900      2.874
REMARK  Name = 44176356
REMARK  5 active torsions:
REMARK  status: ('A' for Active; 'I' for Inactive)
REMARK    1  A    between atoms: C_13  and  O_25
REMARK    2  A    between atoms: C_14  and  O_23
REMARK    3  A    between atoms: O_25  and  C_26
REMARK    4  A    between atoms: C_26  and  C_27
REMARK    5  A    between atoms: C_27  and  O_28
REMARK                            x       y       z     vdW  Elec       q    Type
REMARK                         _______ _______ _______ _____ _____    ______ ____
ROOT
ATOM      1  N   UNL     1      33.917 -23.857 -15.483  0.00  0.00    -0.248 NA
ATOM      2  N   UNL     1      27.763 -22.359 -16.118  0.00  0.00    -0.221 N 
ATOM      3  N   UNL     1      29.172 -23.443 -14.598  0.00  0.00    -0.372 NA
ATOM      4  N   UNL     1      25.572 -22.019 -15.994  0.00  0.00    -0.224 NA
ATOM      5  C   UNL     1      31.390 -22.933 -16.311  0.00  0.00    +0.010 C 
ATOM      6  C   UNL     1      32.554 -22.714 -17.122  0.00  0.00    +0.017 C 
ATOM      7  C   UNL     1      31.542 -23.620 -15.094  0.00  0.00    +0.063 C 
ATOM      8  C   UNL     1      33.794 -23.204 -16.648  0.00  0.00    +0.067 C 
ATOM      9  C   UNL     1      30.082 -22.512 -16.636  0.00  0.00    +0.049 C 
ATOM     10  C   UNL     1      32.537 -22.038 -18.367  0.00  0.00    +0.041 C 
ATOM     11  C   UNL     1      34.940 -23.007 -17.412  0.00  0.00    +0.113 C 
ATOM     12  C   UNL     1      29.034 -22.786 -15.765  0.00  0.00    +0.194 C 
ATOM     13  C   UNL     1      34.904 -22.338 -18.635  0.00  0.00    +0.156 C 
ATOM     14  C   UNL     1      33.699 -21.852 -19.114  0.00  0.00    +0.169 C 
ATOM     15  C   UNL     1      30.422 -23.844 -14.290  0.00  0.00    +0.180 C 
ATOM     16  C   UNL     1      32.811 -24.052 -14.736  0.00  0.00    +0.102 C 
ATOM     17  C   UNL     1      27.423 -21.682 -17.257  0.00  0.00    +0.094 C 
ATOM     18  C   UNL     1      26.619 -22.538 -15.391  0.00  0.00    +0.174 C 
ATOM     19  C   UNL     1      26.067 -21.484 -17.156  0.00  0.00    +0.117 C 
ATOM     20  N   UNL     1      30.577 -24.536 -13.062  0.00  0.00    -0.333 N 
ATOM     21  H   UNL     1      29.796 -24.700 -12.486  0.00  0.00    +0.145 HD
ATOM     22  H   UNL     1      31.467 -24.852 -12.785  0.00  0.00    +0.145 HD
ENDROOT
BRANCH  14  23
ATOM     23  O   UNL     1      33.636 -21.196 -20.306  0.00  0.00    -0.469 OA
ATOM     24  C   UNL     1      32.744 -20.085 -20.388  0.00  0.00    +0.253 C 
ENDBRANCH  14  23
BRANCH  13  25
ATOM     25  O   UNL     1      36.055 -22.169 -19.342  0.00  0.00    -0.474 OA
BRANCH  25  26
ATOM     26  C   UNL     1      36.717 -20.912 -19.213  0.00  0.00    +0.237 C 
BRANCH  26  27
ATOM     27  C   UNL     1      36.751 -20.228 -20.566  0.00  0.00    +0.189 C 
BRANCH  27  28
ATOM     28  O   UNL     1      36.073 -18.982 -20.473  0.00  0.00    -0.347 OA
ATOM     29  C   UNL     1      36.125 -18.269 -21.701  0.00  0.00    +0.174 C 
ENDBRANCH  27  28
ENDBRANCH  26  27
ENDBRANCH  25  26
ENDBRANCH  13  25
TORSDOF 5
ENDMDL
MODEL 5
REMARK VINA RESULT:      -8.1     10.679     13.960
REMARK  Name = 44176356
REMARK  5 active torsions:
REMARK  status: ('A' for Active; 'I' for Inactive)
REMARK    1  A    between atoms: C_13  and  O_25
REMARK    2  A    between atoms: C_14  and  O_23
REMARK    3  A    between atoms: O_25  and  C_26
REMARK    4  A    between atoms: C_26  and  C_27
REMARK    5  A    between atoms: C_27  and  O_28
REMARK                            x       y       z     vdW  Elec       q    Type
REMARK                         _______ _______ _______ _____ _____    ______ ____
ROOT
ATOM      1  N   UNL     1      31.793 -10.499 -19.802  0.00  0.00    -0.248 NA
ATOM      2  N   UNL     1      33.084 -14.141 -24.861  0.00  0.00    -0.221 N 
ATOM      3  N   UNL     1      32.647 -14.379 -22.576  0.00  0.00    -0.372 NA
ATOM      4  N   UNL     1      33.510 -15.712 -26.372  0.00  0.00    -0.224 NA
ATOM      5  C   UNL     1      32.379 -11.552 -22.347  0.00  0.00    +0.010 C 
ATOM      6  C   UNL     1      32.231 -10.138 -22.155  0.00  0.00    +0.017 C 
ATOM      7  C   UNL     1      32.226 -12.399 -21.235  0.00  0.00    +0.063 C 
ATOM      8  C   UNL     1      31.936  -9.673 -20.850  0.00  0.00    +0.067 C 
ATOM      9  C   UNL     1      32.672 -12.178 -23.578  0.00  0.00    +0.049 C 
ATOM     10  C   UNL     1      32.360  -9.178 -23.189  0.00  0.00    +0.041 C 
ATOM     11  C   UNL     1      31.786  -8.307 -20.632  0.00  0.00    +0.113 C 
ATOM     12  C   UNL     1      32.792 -13.561 -23.636  0.00  0.00    +0.194 C 
ATOM     13  C   UNL     1      31.916  -7.378 -21.663  0.00  0.00    +0.156 C 
ATOM     14  C   UNL     1      32.205  -7.815 -22.945  0.00  0.00    +0.169 C 
ATOM     15  C   UNL     1      32.367 -13.779 -21.401  0.00  0.00    +0.180 C 
ATOM     16  C   UNL     1      31.937 -11.825 -20.005  0.00  0.00    +0.102 C 
ATOM     17  C   UNL     1      33.269 -13.482 -26.045  0.00  0.00    +0.094 C 
ATOM     18  C   UNL     1      33.238 -15.477 -25.107  0.00  0.00    +0.174 C 
ATOM     19  C   UNL     1      33.530 -14.473 -26.961  0.00  0.00    +0.117 C 
ATOM     20  N   UNL     1      32.211 -14.631 -20.279  0.00  0.00    -0.333 N 
ATOM     21  H   UNL     1      32.308 -15.605 -20.383  0.00  0.00    +0.145 HD
ATOM     22  H   UNL     1      32.005 -14.249 -19.396  0.00  0.00    +0.145 HD
ENDROOT
BRANCH  14  23
ATOM     23  O   UNL     1      32.338  -6.928 -23.970  0.00  0.00    -0.469 OA
ATOM     24  C   UNL     1      33.665  -6.632 -24.404  0.00  0.00    +0.253 C 
ENDBRANCH  14  23
BRANCH  13  25
ATOM     25  O   UNL     1      31.756  -6.053 -21.396  0.00  0.00    -0.474 OA
BRANCH  25  26
ATOM     26  C   UNL     1      30.545  -5.444 -21.839  0.00  0.00    +0.237 C 
BRANCH  26  27
ATOM     27  C   UNL     1      30.877  -4.172 -22.596  0.00  0.00    +0.189 C 
BRANCH  27  28
ATOM     28  O   UNL     1      30.540  -4.348 -23.967  0.00  0.00    -0.347 OA
ATOM     29  C   UNL     1      31.385  -3.579 -24.812  0.00  0.00    +0.174 C 
ENDBRANCH  27  28
ENDBRANCH  26  27
ENDBRANCH  25  26
ENDBRANCH  13  25
TORSDOF 5
ENDMDL
MODEL 6
REMARK VINA RESULT:      -7.5     12.940     18.176
REMARK  Name = 44176356
REMARK  5 active torsions:
REMARK  status: ('A' for Active; 'I' for Inactive)
REMARK    1  A    between atoms: C_13  and  O_25
REMARK    2  A    between atoms: C_14  and  O_23
REMARK    3  A    between atoms: O_25  and  C_26
REMARK    4  A    between atoms: C_26  and  C_27
REMARK    5  A    between atoms: C_27  and  O_28
REMARK                            x       y       z     vdW  Elec       q    Type
REMARK                         _______ _______ _______ _____ _____    ______ ____
ROOT
ATOM      1  N   UNL     1      31.080  -6.382 -21.215  0.00  0.00    -0.248 NA
ATOM      2  N   UNL     1      32.587  -3.718 -26.797  0.00  0.00    -0.221 N 
ATOM      3  N   UNL     1      31.578  -3.128 -24.771  0.00  0.00    -0.372 NA
ATOM      4  N   UNL     1      32.950  -2.463 -28.593  0.00  0.00    -0.224 NA
ATOM      5  C   UNL     1      31.975  -5.783 -23.816  0.00  0.00    +0.010 C 
ATOM      6  C   UNL     1      32.140  -7.099 -23.268  0.00  0.00    +0.017 C 
ATOM      7  C   UNL     1      31.356  -4.801 -23.024  0.00  0.00    +0.063 C 
ATOM      8  C   UNL     1      31.668  -7.334 -21.955  0.00  0.00    +0.067 C 
ATOM      9  C   UNL     1      32.388  -5.382 -25.106  0.00  0.00    +0.049 C 
ATOM     10  C   UNL     1      32.747  -8.177 -23.960  0.00  0.00    +0.041 C 
ATOM     11  C   UNL     1      31.814  -8.600 -21.396  0.00  0.00    +0.113 C 
ATOM     12  C   UNL     1      32.171  -4.075 -25.523  0.00  0.00    +0.194 C 
ATOM     13  C   UNL     1      32.414  -9.648 -22.092  0.00  0.00    +0.156 C 
ATOM     14  C   UNL     1      32.882  -9.436 -23.379  0.00  0.00    +0.169 C 
ATOM     15  C   UNL     1      31.185  -3.513 -23.539  0.00  0.00    +0.180 C 
ATOM     16  C   UNL     1      30.935  -5.152 -21.750  0.00  0.00    +0.102 C 
ATOM     17  C   UNL     1      33.202  -4.533 -27.706  0.00  0.00    +0.094 C 
ATOM     18  C   UNL     1      32.457  -2.485 -27.374  0.00  0.00    +0.174 C 
ATOM     19  C   UNL     1      33.416  -3.736 -28.805  0.00  0.00    +0.117 C 
ATOM     20  N   UNL     1      30.560  -2.524 -22.739  0.00  0.00    -0.333 N 
ATOM     21  H   UNL     1      30.435  -1.613 -23.090  0.00  0.00    +0.145 HD
ATOM     22  H   UNL     1      30.254  -2.747 -21.831  0.00  0.00    +0.145 HD
ENDROOT
BRANCH  14  23
ATOM     23  O   UNL     1      33.471 -10.442 -24.081  0.00  0.00    -0.469 OA
ATOM     24  C   UNL     1      34.776 -10.192 -24.603  0.00  0.00    +0.253 C 
ENDBRANCH  14  23
BRANCH  13  25
ATOM     25  O   UNL     1      32.535 -10.867 -21.498  0.00  0.00    -0.474 OA
BRANCH  25  26
ATOM     26  C   UNL     1      31.543 -11.843 -21.811  0.00  0.00    +0.237 C 
BRANCH  26  27
ATOM     27  C   UNL     1      32.219 -13.183 -22.032  0.00  0.00    +0.189 C 
BRANCH  27  28
ATOM     28  O   UNL     1      32.199 -13.488 -23.422  0.00  0.00    -0.347 OA
ATOM     29  C   UNL     1      33.376 -14.177 -23.819  0.00  0.00    +0.174 C 
ENDBRANCH  27  28
ENDBRANCH  26  27
ENDBRANCH  25  26
ENDBRANCH  13  25
TORSDOF 5
ENDMDL
MODEL 7
REMARK VINA RESULT:      -7.4     11.684     16.803
REMARK  Name = 44176356
REMARK  5 active torsions:
REMARK  status: ('A' for Active; 'I' for Inactive)
REMARK    1  A    between atoms: C_13  and  O_25
REMARK    2  A    between atoms: C_14  and  O_23
REMARK    3  A    between atoms: O_25  and  C_26
REMARK    4  A    between atoms: C_26  and  C_27
REMARK    5  A    between atoms: C_27  and  O_28
REMARK                            x       y       z     vdW  Elec       q    Type
REMARK                         _______ _______ _______ _____ _____    ______ ____
ROOT
ATOM      1  N   UNL     1      31.809  -9.164 -21.440  0.00  0.00    -0.248 NA
ATOM      2  N   UNL     1      32.490  -4.269 -25.453  0.00  0.00    -0.221 N 
ATOM      3  N   UNL     1      31.552  -4.722 -23.359  0.00  0.00    -0.372 NA
ATOM      4  N   UNL     1      32.529  -2.357 -26.581  0.00  0.00    -0.224 NA
ATOM      5  C   UNL     1      32.414  -7.429 -23.573  0.00  0.00    +0.010 C 
ATOM      6  C   UNL     1      32.816  -8.806 -23.612  0.00  0.00    +0.017 C 
ATOM      7  C   UNL     1      31.712  -6.967 -22.447  0.00  0.00    +0.063 C 
ATOM      8  C   UNL     1      32.480  -9.625 -22.506  0.00  0.00    +0.067 C 
ATOM      9  C   UNL     1      32.668  -6.480 -24.589  0.00  0.00    +0.049 C 
ATOM     10  C   UNL     1      33.527  -9.396 -24.686  0.00  0.00    +0.041 C 
ATOM     11  C   UNL     1      32.856 -10.965 -22.514  0.00  0.00    +0.113 C 
ATOM     12  C   UNL     1      32.226  -5.172 -24.434  0.00  0.00    +0.194 C 
ATOM     13  C   UNL     1      33.556 -11.528 -23.580  0.00  0.00    +0.156 C 
ATOM     14  C   UNL     1      33.892 -10.741 -24.670  0.00  0.00    +0.169 C 
ATOM     15  C   UNL     1      31.312  -5.630 -22.390  0.00  0.00    +0.180 C 
ATOM     16  C   UNL     1      31.442  -7.866 -21.425  0.00  0.00    +0.102 C 
ATOM     17  C   UNL     1      33.154  -4.535 -26.618  0.00  0.00    +0.094 C 
ATOM     18  C   UNL     1      32.134  -2.950 -25.476  0.00  0.00    +0.174 C 
ATOM     19  C   UNL     1      33.165  -3.340 -27.297  0.00  0.00    +0.117 C 
ATOM     20  N   UNL     1      30.604  -5.165 -21.253  0.00  0.00    -0.333 N 
ATOM     21  H   UNL     1      30.317  -4.225 -21.201  0.00  0.00    +0.145 HD
ATOM     22  H   UNL     1      30.401  -5.783 -20.514  0.00  0.00    +0.145 HD
ENDROOT
BRANCH  14  23
ATOM     23  O   UNL     1      34.575 -11.266 -25.724  0.00  0.00    -0.469 OA
ATOM     24  C   UNL     1      35.621 -10.470 -26.281  0.00  0.00    +0.253 C 
ENDBRANCH  14  23
BRANCH  13  25
ATOM     25  O   UNL     1      33.903 -12.844 -23.536  0.00  0.00    -0.474 OA
BRANCH  25  26
ATOM     26  C   UNL     1      32.948 -13.783 -24.027  0.00  0.00    +0.237 C 
BRANCH  26  27
ATOM     27  C   UNL     1      33.635 -15.116 -24.251  0.00  0.00    +0.189 C 
BRANCH  27  28
ATOM     28  O   UNL     1      33.404 -15.538 -25.589  0.00  0.00    -0.347 OA
ATOM     29  C   UNL     1      32.814 -14.504 -26.365  0.00  0.00    +0.174 C 
ENDBRANCH  27  28
ENDBRANCH  26  27
ENDBRANCH  25  26
ENDBRANCH  13  25
TORSDOF 5
ENDMDL
MODEL 8
REMARK VINA RESULT:      -7.2      9.563     14.286
REMARK  Name = 44176356
REMARK  5 active torsions:
REMARK  status: ('A' for Active; 'I' for Inactive)
REMARK    1  A    between atoms: C_13  and  O_25
REMARK    2  A    between atoms: C_14  and  O_23
REMARK    3  A    between atoms: O_25  and  C_26
REMARK    4  A    between atoms: C_26  and  C_27
REMARK    5  A    between atoms: C_27  and  O_28
REMARK                            x       y       z     vdW  Elec       q    Type
REMARK                         _______ _______ _______ _____ _____    ______ ____
ROOT
ATOM      1  N   UNL     1      31.936 -11.307 -19.338  0.00  0.00    -0.248 NA
ATOM      2  N   UNL     1      32.052  -6.415 -23.409  0.00  0.00    -0.221 N 
ATOM      3  N   UNL     1      31.838  -6.799 -21.112  0.00  0.00    -0.372 NA
ATOM      4  N   UNL     1      32.042  -4.485 -24.508  0.00  0.00    -0.224 NA
ATOM      5  C   UNL     1      32.063  -9.602 -21.574  0.00  0.00    +0.010 C 
ATOM      6  C   UNL     1      32.169 -11.024 -21.730  0.00  0.00    +0.017 C 
ATOM      7  C   UNL     1      31.894  -9.080 -20.280  0.00  0.00    +0.063 C 
ATOM      8  C   UNL     1      32.097 -11.825 -20.565  0.00  0.00    +0.067 C 
ATOM      9  C   UNL     1      32.115  -8.663 -22.628  0.00  0.00    +0.049 C 
ATOM     10  C   UNL     1      32.340 -11.676 -22.976  0.00  0.00    +0.041 C 
ATOM     11  C   UNL     1      32.196 -13.208 -20.683  0.00  0.00    +0.113 C 
ATOM     12  C   UNL     1      32.000  -7.307 -22.349  0.00  0.00    +0.194 C 
ATOM     13  C   UNL     1      32.365 -13.832 -21.919  0.00  0.00    +0.156 C 
ATOM     14  C   UNL     1      32.437 -13.063 -23.069  0.00  0.00    +0.169 C 
ATOM     15  C   UNL     1      31.789  -7.698 -20.107  0.00  0.00    +0.180 C 
ATOM     16  C   UNL     1      31.839  -9.967 -19.215  0.00  0.00    +0.102 C 
ATOM     17  C   UNL     1      32.208  -6.735 -24.729  0.00  0.00    +0.094 C 
ATOM     18  C   UNL     1      31.956  -5.053 -23.325  0.00  0.00    +0.174 C 
ATOM     19  C   UNL     1      32.198  -5.527 -25.387  0.00  0.00    +0.117 C 
ATOM     20  N   UNL     1      31.620  -7.173 -18.800  0.00  0.00    -0.333 N 
ATOM     21  H   UNL     1      31.545  -6.201 -18.665  0.00  0.00    +0.145 HD
ATOM     22  H   UNL     1      31.578  -7.782 -18.028  0.00  0.00    +0.145 HD
ENDROOT
BRANCH  14  23
ATOM     23  O   UNL     1      32.602 -13.647 -24.288  0.00  0.00    -0.469 OA
ATOM     24  C   UNL     1      33.494 -13.005 -25.199  0.00  0.00    +0.253 C 
ENDBRANCH  14  23
BRANCH  13  25
ATOM     25  O   UNL     1      32.460 -15.188 -21.979  0.00  0.00    -0.474 OA
BRANCH  25  26
ATOM     26  C   UNL     1      33.772 -15.744 -22.053  0.00  0.00    +0.237 C 
BRANCH  26  27
ATOM     27  C   UNL     1      33.843 -16.966 -21.158  0.00  0.00    +0.189 C 
BRANCH  27  28
ATOM     28  O   UNL     1      35.190 -17.159 -20.743  0.00  0.00    -0.347 OA
ATOM     29  C   UNL     1      35.713 -18.387 -21.230  0.00  0.00    +0.174 C 
ENDBRANCH  27  28
ENDBRANCH  26  27
ENDBRANCH  25  26
ENDBRANCH  13  25
TORSDOF 5
ENDMDL
MODEL 9
REMARK VINA RESULT:      -7.2     13.872     19.161
REMARK  Name = 44176356
REMARK  5 active torsions:
REMARK  status: ('A' for Active; 'I' for Inactive)
REMARK    1  A    between atoms: C_13  and  O_25
REMARK    2  A    between atoms: C_14  and  O_23
REMARK    3  A    between atoms: O_25  and  C_26
REMARK    4  A    between atoms: C_26  and  C_27
REMARK    5  A    between atoms: C_27  and  O_28
REMARK                            x       y       z     vdW  Elec       q    Type
REMARK                         _______ _______ _______ _____ _____    ______ ____
ROOT
ATOM      1  N   UNL     1      30.893  -5.662 -23.413  0.00  0.00    -0.248 NA
ATOM      2  N   UNL     1      34.808  -3.745 -28.053  0.00  0.00    -0.221 N 
ATOM      3  N   UNL     1      32.863  -3.027 -26.970  0.00  0.00    -0.372 NA
ATOM      4  N   UNL     1      35.930  -2.768 -29.701  0.00  0.00    -0.224 NA
ATOM      5  C   UNL     1      32.935  -5.353 -25.326  0.00  0.00    +0.010 C 
ATOM      6  C   UNL     1      32.906  -6.499 -24.463  0.00  0.00    +0.017 C 
ATOM      7  C   UNL     1      31.921  -4.389 -25.194  0.00  0.00    +0.063 C 
ATOM      8  C   UNL     1      31.852  -6.594 -23.523  0.00  0.00    +0.067 C 
ATOM      9  C   UNL     1      33.913  -5.104 -26.315  0.00  0.00    +0.049 C 
ATOM     10  C   UNL     1      33.867  -7.540 -24.494  0.00  0.00    +0.041 C 
ATOM     11  C   UNL     1      31.796  -7.694 -22.672  0.00  0.00    +0.113 C 
ATOM     12  C   UNL     1      33.832  -3.954 -27.090  0.00  0.00    +0.194 C 
ATOM     13  C   UNL     1      32.751  -8.708 -22.717  0.00  0.00    +0.156 C 
ATOM     14  C   UNL     1      33.790  -8.631 -23.631  0.00  0.00    +0.169 C 
ATOM     15  C   UNL     1      31.931  -3.266 -26.025  0.00  0.00    +0.180 C 
ATOM     16  C   UNL     1      30.940  -4.593 -24.234  0.00  0.00    +0.102 C 
ATOM     17  C   UNL     1      35.865  -4.569 -28.326  0.00  0.00    +0.094 C 
ATOM     18  C   UNL     1      34.889  -2.678 -28.903  0.00  0.00    +0.174 C 
ATOM     19  C   UNL     1      36.542  -3.944 -29.347  0.00  0.00    +0.117 C 
ATOM     20  N   UNL     1      30.907  -2.294 -25.890  0.00  0.00    -0.333 N 
ATOM     21  H   UNL     1      30.903  -1.498 -26.469  0.00  0.00    +0.145 HD
ATOM     22  H   UNL     1      30.200  -2.415 -25.216  0.00  0.00    +0.145 HD
ENDROOT
BRANCH  14  23
ATOM     23  O   UNL     1      34.735  -9.609 -23.695  0.00  0.00    -0.469 OA
ATOM     24  C   UNL     1      34.655 -10.518 -24.792  0.00  0.00    +0.253 C 
ENDBRANCH  14  23
BRANCH  13  25
ATOM     25  O   UNL     1      32.653  -9.761 -21.860  0.00  0.00    -0.474 OA
BRANCH  25  26
ATOM     26  C   UNL     1      31.861 -10.870 -22.282  0.00  0.00    +0.237 C 
BRANCH  26  27
ATOM     27  C   UNL     1      30.871 -11.218 -21.186  0.00  0.00    +0.189 C 
BRANCH  27  28
ATOM     28  O   UNL     1      31.587 -11.634 -20.030  0.00  0.00    -0.347 OA
ATOM     29  C   UNL     1      31.338 -10.774 -18.927  0.00  0.00    +0.174 C 
ENDBRANCH  27  28
ENDBRANCH  26  27
ENDBRANCH  25  26
ENDBRANCH  13  25
TORSDOF 5
ENDMDL
