MODEL 1
REMARK VINA RESULT:      -9.7      0.000      0.000
REMARK  Name = 6914648
REMARK  13 active torsions:
REMARK  status: ('A' for Active; 'I' for Inactive)
REMARK    1  A    between atoms: N_2  and  C_5
REMARK    2  A    between atoms: C_3  and  C_20
REMARK    3  A    between atoms: C_5  and  C_9
REMARK    4  A    between atoms: N_8  and  C_11
REMARK    5  A    between atoms: C_11  and  C_13
REMARK    6  A    between atoms: C_11  and  C_16
REMARK    7  A    between atoms: C_13  and  O_14
REMARK    8  A    between atoms: C_16  and  C_17
REMARK    9  A    between atoms: C_20  and  O_21
REMARK   10  A    between atoms: C_20  and  C_23
REMARK   11  A    between atoms: C_23  and  C_24
REMARK   12  A    between atoms: C_23  and  N_33
REMARK   13  A    between atoms: C_25  and  C_30
REMARK                            x       y       z     vdW  Elec       q    Type
REMARK                         _______ _______ _______ _____ _____    ______ ____
ROOT
ATOM      1  O   UNL     1      34.982 -16.944 -25.784  0.00  0.00    -0.273 OA
ATOM      2  N   UNL     1      33.831 -15.713 -24.189  0.00  0.00    -0.296 N 
ATOM      3  C   UNL     1      34.406 -16.868 -24.701  0.00  0.00    +0.248 C 
ATOM      4  H   UNL     1      33.391 -15.756 -23.309  0.00  0.00    +0.150 HD
ENDROOT
BRANCH   2   5
ATOM      5  C   UNL     1      33.849 -14.454 -24.887  0.00  0.00    +0.149 C 
ATOM      6  C   UNL     1      32.685 -14.345 -25.860  0.00  0.00    +0.031 C 
BRANCH   5   9
ATOM      7  O   UNL     1      33.542 -13.538 -22.665  0.00  0.00    -0.273 OA
ATOM      8  N   UNL     1      34.028 -12.089 -24.411  0.00  0.00    -0.295 N 
ATOM      9  C   UNL     1      33.798 -13.340 -23.850  0.00  0.00    +0.241 C 
ATOM     10  H   UNL     1      34.227 -12.033 -25.373  0.00  0.00    +0.150 HD
BRANCH   8  11
ATOM     11  C   UNL     1      33.992 -10.871 -23.642  0.00  0.00    +0.171 C 
BRANCH  11  13
ATOM     12  O   UNL     1      35.338 -10.052 -25.498  0.00  0.00    -0.248 OA
ATOM     13  C   UNL     1      34.836  -9.863 -24.398  0.00  0.00    +0.335 C 
BRANCH  13  14
ATOM     14  O   UNL     1      34.985  -8.739 -23.634  0.00  0.00    -0.443 OA
ATOM     15  C   UNL     1      34.601  -7.512 -24.262  0.00  0.00    +0.256 C 
ENDBRANCH  13  14
ENDBRANCH  11  13
BRANCH  11  16
ATOM     16  C   UNL     1      32.569 -10.334 -23.462  0.00  0.00    +0.031 C 
BRANCH  16  17
ATOM     17  C   UNL     1      32.106 -10.212 -21.997  0.00  0.00    +0.002 C 
ATOM     18  C   UNL     1      30.811 -10.981 -21.728  0.00  0.00    +0.000 C 
ATOM     19  C   UNL     1      31.913  -8.736 -21.637  0.00  0.00    +0.000 C 
ENDBRANCH  16  17
ENDBRANCH  11  16
ENDBRANCH   8  11
ENDBRANCH   5   9
ENDBRANCH   2   5
BRANCH   3  20
ATOM     20  C   UNL     1      34.273 -18.064 -23.761  0.00  0.00    +0.170 C 
BRANCH  20  21
ATOM     21  O   UNL     1      34.662 -19.239 -24.456  0.00  0.00    -0.377 OA
ATOM     22  H   UNL     1      35.376 -19.681 -23.968  0.00  0.00    +0.211 HD
ENDBRANCH  20  21
BRANCH  20  23
ATOM     23  C   UNL     1      35.054 -17.890 -22.437  0.00  0.00    -0.006 C 
BRANCH  23  24
ATOM     24  C   UNL     1      34.905 -19.061 -21.478  0.00  0.00    -0.040 C 
ATOM     25  C   UNL     1      34.633 -21.209 -19.718  0.00  0.00    -0.023 C 
ATOM     26  C   UNL     1      36.040 -19.675 -20.946  0.00  0.00    -0.007 C 
ATOM     27  C   UNL     1      33.635 -19.522 -21.130  0.00  0.00    -0.007 C 
ATOM     28  C   UNL     1      35.903 -20.748 -20.065  0.00  0.00    -0.005 C 
ATOM     29  C   UNL     1      33.499 -20.596 -20.250  0.00  0.00    -0.005 C 
BRANCH  25  30
ATOM     30  C   UNL     1      34.489 -22.357 -18.776  0.00  0.00    +0.022 C 
ATOM     31  C   UNL     1      35.512 -22.306 -17.625  0.00  0.00    +0.005 C 
ATOM     32  C   UNL     1      33.064 -22.474 -18.204  0.00  0.00    +0.005 C 
ENDBRANCH  25  30
ENDBRANCH  23  24
BRANCH  23  33
ATOM     33  N   UNL     1      36.464 -17.595 -22.725  0.00  0.00    +0.386 N 
ATOM     34  H   UNL     1      36.540 -17.165 -23.647  0.00  0.00    -0.089 HD
ATOM     35  H   UNL     1      37.004 -18.461 -22.708  0.00  0.00    -0.089 HD
ATOM     36  H   UNL     1      36.829 -16.954 -22.020  0.00  0.00    -0.089 HD
ENDBRANCH  23  33
ENDBRANCH  20  23
ENDBRANCH   3  20
TORSDOF 13
ENDMDL
MODEL 2
REMARK VINA RESULT:      -9.6      3.018     10.649
REMARK  Name = 6914648
REMARK  13 active torsions:
REMARK  status: ('A' for Active; 'I' for Inactive)
REMARK    1  A    between atoms: N_2  and  C_5
REMARK    2  A    between atoms: C_3  and  C_20
REMARK    3  A    between atoms: C_5  and  C_9
REMARK    4  A    between atoms: N_8  and  C_11
REMARK    5  A    between atoms: C_11  and  C_13
REMARK    6  A    between atoms: C_11  and  C_16
REMARK    7  A    between atoms: C_13  and  O_14
REMARK    8  A    between atoms: C_16  and  C_17
REMARK    9  A    between atoms: C_20  and  O_21
REMARK   10  A    between atoms: C_20  and  C_23
REMARK   11  A    between atoms: C_23  and  C_24
REMARK   12  A    between atoms: C_23  and  N_33
REMARK   13  A    between atoms: C_25  and  C_30
REMARK                            x       y       z     vdW  Elec       q    Type
REMARK                         _______ _______ _______ _____ _____    ______ ____
ROOT
ATOM      1  O   UNL     1      30.620 -10.052 -22.834  0.00  0.00    -0.273 OA
ATOM      2  N   UNL     1      32.806 -10.795 -22.595  0.00  0.00    -0.296 N 
ATOM      3  C   UNL     1      31.687 -10.062 -22.224  0.00  0.00    +0.248 C 
ATOM      4  H   UNL     1      33.615 -10.734 -22.037  0.00  0.00    +0.150 HD
ENDROOT
BRANCH   2   5
ATOM      5  C   UNL     1      32.836 -11.639 -23.760  0.00  0.00    +0.149 C 
ATOM      6  C   UNL     1      34.060 -11.355 -24.617  0.00  0.00    +0.031 C 
BRANCH   5   9
ATOM      7  O   UNL     1      32.269 -13.454 -22.257  0.00  0.00    -0.273 OA
ATOM      8  N   UNL     1      33.540 -13.922 -24.142  0.00  0.00    -0.295 N 
ATOM      9  C   UNL     1      32.823 -13.088 -23.292  0.00  0.00    +0.241 C 
ATOM     10  H   UNL     1      33.948 -13.534 -24.949  0.00  0.00    +0.150 HD
BRANCH   8  11
ATOM     11  C   UNL     1      33.710 -15.330 -23.892  0.00  0.00    +0.171 C 
BRANCH  11  13
ATOM     12  O   UNL     1      33.533 -15.632 -26.301  0.00  0.00    -0.248 OA
ATOM     13  C   UNL     1      34.025 -15.967 -25.231  0.00  0.00    +0.335 C 
BRANCH  13  14
ATOM     14  O   UNL     1      34.900 -17.001 -25.043  0.00  0.00    -0.443 OA
ATOM     15  C   UNL     1      34.330 -18.311 -25.114  0.00  0.00    +0.256 C 
ENDBRANCH  13  14
ENDBRANCH  11  13
BRANCH  11  16
ATOM     16  C   UNL     1      34.837 -15.617 -22.897  0.00  0.00    +0.031 C 
BRANCH  16  17
ATOM     17  C   UNL     1      34.381 -16.264 -21.573  0.00  0.00    +0.002 C 
ATOM     18  C   UNL     1      34.508 -15.310 -20.384  0.00  0.00    +0.000 C 
ATOM     19  C   UNL     1      35.199 -17.531 -21.308  0.00  0.00    +0.000 C 
ENDBRANCH  16  17
ENDBRANCH  11  16
ENDBRANCH   8  11
ENDBRANCH   5   9
ENDBRANCH   2   5
BRANCH   3  20
ATOM     20  C   UNL     1      31.900  -9.263 -20.940  0.00  0.00    +0.170 C 
BRANCH  20  21
ATOM     21  O   UNL     1      32.092 -10.167 -19.863  0.00  0.00    -0.377 OA
ATOM     22  H   UNL     1      32.407  -9.680 -19.084  0.00  0.00    +0.211 HD
ENDBRANCH  20  21
BRANCH  20  23
ATOM     23  C   UNL     1      33.053  -8.236 -21.044  0.00  0.00    -0.006 C 
BRANCH  23  24
ATOM     24  C   UNL     1      33.067  -7.459 -22.352  0.00  0.00    -0.040 C 
ATOM     25  C   UNL     1      33.093  -6.036 -24.751  0.00  0.00    -0.023 C 
ATOM     26  C   UNL     1      34.172  -7.543 -23.201  0.00  0.00    -0.007 C 
ATOM     27  C   UNL     1      31.977  -6.664 -22.703  0.00  0.00    -0.007 C 
ATOM     28  C   UNL     1      34.184  -6.831 -24.400  0.00  0.00    -0.005 C 
ATOM     29  C   UNL     1      31.990  -5.952 -23.903  0.00  0.00    -0.005 C 
BRANCH  25  30
ATOM     30  C   UNL     1      33.108  -5.275 -26.034  0.00  0.00    +0.022 C 
ATOM     31  C   UNL     1      32.480  -3.875 -25.897  0.00  0.00    +0.005 C 
ATOM     32  C   UNL     1      34.521  -5.158 -26.634  0.00  0.00    +0.005 C 
ENDBRANCH  25  30
ENDBRANCH  23  24
BRANCH  23  33
ATOM     33  N   UNL     1      33.032  -7.342 -19.878  0.00  0.00    +0.386 N 
ATOM     34  H   UNL     1      32.069  -7.068 -19.677  0.00  0.00    -0.089 HD
ATOM     35  H   UNL     1      33.587  -6.509 -20.077  0.00  0.00    -0.089 HD
ATOM     36  H   UNL     1      33.422  -7.827 -19.070  0.00  0.00    -0.089 HD
ENDBRANCH  23  33
ENDBRANCH  20  23
ENDBRANCH   3  20
TORSDOF 13
ENDMDL
MODEL 3
REMARK VINA RESULT:      -9.6      2.308      3.517
REMARK  Name = 6914648
REMARK  13 active torsions:
REMARK  status: ('A' for Active; 'I' for Inactive)
REMARK    1  A    between atoms: N_2  and  C_5
REMARK    2  A    between atoms: C_3  and  C_20
REMARK    3  A    between atoms: C_5  and  C_9
REMARK    4  A    between atoms: N_8  and  C_11
REMARK    5  A    between atoms: C_11  and  C_13
REMARK    6  A    between atoms: C_11  and  C_16
REMARK    7  A    between atoms: C_13  and  O_14
REMARK    8  A    between atoms: C_16  and  C_17
REMARK    9  A    between atoms: C_20  and  O_21
REMARK   10  A    between atoms: C_20  and  C_23
REMARK   11  A    between atoms: C_23  and  C_24
REMARK   12  A    between atoms: C_23  and  N_33
REMARK   13  A    between atoms: C_25  and  C_30
REMARK                            x       y       z     vdW  Elec       q    Type
REMARK                         _______ _______ _______ _____ _____    ______ ____
ROOT
ATOM      1  O   UNL     1      32.316 -15.502 -21.666  0.00  0.00    -0.273 OA
ATOM      2  N   UNL     1      33.397 -13.466 -21.939  0.00  0.00    -0.296 N 
ATOM      3  C   UNL     1      33.345 -14.830 -21.684  0.00  0.00    +0.248 C 
ATOM      4  H   UNL     1      34.274 -13.019 -21.930  0.00  0.00    +0.150 HD
ENDROOT
BRANCH   2   5
ATOM      5  C   UNL     1      32.225 -12.678 -22.217  0.00  0.00    +0.149 C 
ATOM      6  C   UNL     1      31.584 -12.170 -20.934  0.00  0.00    +0.031 C 
BRANCH   5   9
ATOM      7  O   UNL     1      33.296 -11.670 -24.143  0.00  0.00    -0.273 OA
ATOM      8  N   UNL     1      32.227 -10.291 -22.612  0.00  0.00    -0.295 N 
ATOM      9  C   UNL     1      32.639 -11.520 -23.115  0.00  0.00    +0.241 C 
ATOM     10  H   UNL     1      31.703 -10.275 -21.779  0.00  0.00    +0.150 HD
BRANCH   8  11
ATOM     11  C   UNL     1      32.533  -9.042 -23.260  0.00  0.00    +0.171 C 
BRANCH  11  13
ATOM     12  O   UNL     1      30.370  -8.071 -23.811  0.00  0.00    -0.248 OA
ATOM     13  C   UNL     1      31.327  -8.146 -23.053  0.00  0.00    +0.335 C 
BRANCH  13  14
ATOM     14  O   UNL     1      31.507  -7.405 -21.917  0.00  0.00    -0.443 OA
ATOM     15  C   UNL     1      31.125  -6.029 -22.013  0.00  0.00    +0.256 C 
ENDBRANCH  13  14
ENDBRANCH  11  13
BRANCH  11  16
ATOM     16  C   UNL     1      33.786  -8.375 -22.686  0.00  0.00    +0.031 C 
BRANCH  16  17
ATOM     17  C   UNL     1      34.856  -8.002 -23.732  0.00  0.00    +0.002 C 
ATOM     18  C   UNL     1      34.440  -6.807 -24.591  0.00  0.00    +0.000 C 
ATOM     19  C   UNL     1      35.142  -9.209 -24.630  0.00  0.00    +0.000 C 
ENDBRANCH  16  17
ENDBRANCH  11  16
ENDBRANCH   8  11
ENDBRANCH   5   9
ENDBRANCH   2   5
BRANCH   3  20
ATOM     20  C   UNL     1      34.723 -15.441 -21.440  0.00  0.00    +0.170 C 
BRANCH  20  21
ATOM     21  O   UNL     1      34.839 -15.782 -20.067  0.00  0.00    -0.377 OA
ATOM     22  H   UNL     1      34.429 -15.087 -19.526  0.00  0.00    +0.211 HD
ENDBRANCH  20  21
BRANCH  20  23
ATOM     23  C   UNL     1      35.029 -16.645 -22.362  0.00  0.00    -0.006 C 
BRANCH  23  24
ATOM     24  C   UNL     1      35.042 -17.984 -21.640  0.00  0.00    -0.040 C 
ATOM     25  C   UNL     1      35.066 -20.439 -20.316  0.00  0.00    -0.023 C 
ATOM     26  C   UNL     1      33.840 -18.620 -21.327  0.00  0.00    -0.007 C 
ATOM     27  C   UNL     1      36.256 -18.576 -21.290  0.00  0.00    -0.007 C 
ATOM     28  C   UNL     1      33.852 -19.847 -20.666  0.00  0.00    -0.005 C 
ATOM     29  C   UNL     1      36.267 -19.804 -20.628  0.00  0.00    -0.005 C 
BRANCH  25  30
ATOM     30  C   UNL     1      35.078 -21.753 -19.609  0.00  0.00    +0.022 C 
ATOM     31  C   UNL     1      36.123 -21.804 -18.478  0.00  0.00    +0.005 C 
ATOM     32  C   UNL     1      33.693 -22.138 -19.058  0.00  0.00    +0.005 C 
ENDBRANCH  25  30
ENDBRANCH  23  24
BRANCH  23  33
ATOM     33  N   UNL     1      34.101 -16.649 -23.502  0.00  0.00    +0.386 N 
ATOM     34  H   UNL     1      33.141 -16.684 -23.158  0.00  0.00    -0.089 HD
ATOM     35  H   UNL     1      34.283 -17.464 -24.088  0.00  0.00    -0.089 HD
ATOM     36  H   UNL     1      34.233 -15.799 -24.051  0.00  0.00    -0.089 HD
ENDBRANCH  23  33
ENDBRANCH  20  23
ENDBRANCH   3  20
TORSDOF 13
ENDMDL
MODEL 4
REMARK VINA RESULT:      -9.2      2.682      4.829
REMARK  Name = 6914648
REMARK  13 active torsions:
REMARK  status: ('A' for Active; 'I' for Inactive)
REMARK    1  A    between atoms: N_2  and  C_5
REMARK    2  A    between atoms: C_3  and  C_20
REMARK    3  A    between atoms: C_5  and  C_9
REMARK    4  A    between atoms: N_8  and  C_11
REMARK    5  A    between atoms: C_11  and  C_13
REMARK    6  A    between atoms: C_11  and  C_16
REMARK    7  A    between atoms: C_13  and  O_14
REMARK    8  A    between atoms: C_16  and  C_17
REMARK    9  A    between atoms: C_20  and  O_21
REMARK   10  A    between atoms: C_20  and  C_23
REMARK   11  A    between atoms: C_23  and  C_24
REMARK   12  A    between atoms: C_23  and  N_33
REMARK   13  A    between atoms: C_25  and  C_30
REMARK                            x       y       z     vdW  Elec       q    Type
REMARK                         _______ _______ _______ _____ _____    ______ ____
ROOT
ATOM      1  O   UNL     1      36.316 -19.629 -20.895  0.00  0.00    -0.273 OA
ATOM      2  N   UNL     1      34.405 -19.177 -22.134  0.00  0.00    -0.296 N 
ATOM      3  C   UNL     1      35.094 -19.660 -21.030  0.00  0.00    +0.248 C 
ATOM      4  H   UNL     1      33.423 -19.249 -22.145  0.00  0.00    +0.150 HD
ENDROOT
BRANCH   2   5
ATOM      5  C   UNL     1      35.063 -18.575 -23.263  0.00  0.00    +0.149 C 
ATOM      6  C   UNL     1      34.470 -19.065 -24.575  0.00  0.00    +0.031 C 
BRANCH   5   9
ATOM      7  O   UNL     1      35.425 -16.420 -22.214  0.00  0.00    -0.273 OA
ATOM      8  N   UNL     1      34.148 -16.517 -24.150  0.00  0.00    -0.295 N 
ATOM      9  C   UNL     1      34.928 -17.063 -23.136  0.00  0.00    +0.241 C 
ATOM     10  H   UNL     1      33.794 -17.117 -24.846  0.00  0.00    +0.150 HD
BRANCH   8  11
ATOM     11  C   UNL     1      33.839 -15.113 -24.226  0.00  0.00    +0.171 C 
BRANCH  11  13
ATOM     12  O   UNL     1      33.381 -15.679 -26.549  0.00  0.00    -0.248 OA
ATOM     13  C   UNL     1      33.487 -14.830 -25.673  0.00  0.00    +0.335 C 
BRANCH  13  14
ATOM     14  O   UNL     1      33.357 -13.480 -25.849  0.00  0.00    -0.443 OA
ATOM     15  C   UNL     1      33.207 -13.047 -27.205  0.00  0.00    +0.256 C 
ENDBRANCH  13  14
ENDBRANCH  11  13
BRANCH  11  16
ATOM     16  C   UNL     1      32.672 -14.720 -23.315  0.00  0.00    +0.031 C 
BRANCH  16  17
ATOM     17  C   UNL     1      33.043 -13.759 -22.168  0.00  0.00    +0.002 C 
ATOM     18  C   UNL     1      32.900 -14.411 -20.792  0.00  0.00    +0.000 C 
ATOM     19  C   UNL     1      32.166 -12.506 -22.239  0.00  0.00    +0.000 C 
ENDBRANCH  16  17
ENDBRANCH  11  16
ENDBRANCH   8  11
ENDBRANCH   5   9
ENDBRANCH   2   5
BRANCH   3  20
ATOM     20  C   UNL     1      34.169 -20.231 -19.957  0.00  0.00    +0.170 C 
BRANCH  20  21
ATOM     21  O   UNL     1      32.828 -19.907 -20.287  0.00  0.00    -0.377 OA
ATOM     22  H   UNL     1      32.467 -20.588 -20.877  0.00  0.00    +0.211 HD
ENDBRANCH  20  21
BRANCH  20  23
ATOM     23  C   UNL     1      34.359 -21.751 -19.734  0.00  0.00    -0.006 C 
BRANCH  23  24
ATOM     24  C   UNL     1      35.062 -22.097 -18.430  0.00  0.00    -0.040 C 
ATOM     25  C   UNL     1      36.351 -22.733 -16.040  0.00  0.00    -0.023 C 
ATOM     26  C   UNL     1      34.390 -22.826 -17.448  0.00  0.00    -0.007 C 
ATOM     27  C   UNL     1      36.377 -21.686 -18.216  0.00  0.00    -0.007 C 
ATOM     28  C   UNL     1      35.036 -23.145 -16.253  0.00  0.00    -0.005 C 
ATOM     29  C   UNL     1      37.022 -22.004 -17.020  0.00  0.00    -0.005 C 
BRANCH  25  30
ATOM     30  C   UNL     1      37.040 -23.075 -14.761  0.00  0.00    +0.022 C 
ATOM     31  C   UNL     1      36.050 -23.334 -13.609  0.00  0.00    +0.005 C 
ATOM     32  C   UNL     1      37.995 -24.274 -14.908  0.00  0.00    +0.005 C 
ENDBRANCH  25  30
ENDBRANCH  23  24
BRANCH  23  33
ATOM     33  N   UNL     1      33.065 -22.437 -19.856  0.00  0.00    +0.386 N 
ATOM     34  H   UNL     1      32.325 -21.747 -19.988  0.00  0.00    -0.089 HD
ATOM     35  H   UNL     1      32.882 -22.973 -19.007  0.00  0.00    -0.089 HD
ATOM     36  H   UNL     1      33.088 -23.067 -20.657  0.00  0.00    -0.089 HD
ENDBRANCH  23  33
ENDBRANCH  20  23
ENDBRANCH   3  20
TORSDOF 13
ENDMDL
MODEL 5
REMARK VINA RESULT:      -9.1      3.741     10.829
REMARK  Name = 6914648
REMARK  13 active torsions:
REMARK  status: ('A' for Active; 'I' for Inactive)
REMARK    1  A    between atoms: N_2  and  C_5
REMARK    2  A    between atoms: C_3  and  C_20
REMARK    3  A    between atoms: C_5  and  C_9
REMARK    4  A    between atoms: N_8  and  C_11
REMARK    5  A    between atoms: C_11  and  C_13
REMARK    6  A    between atoms: C_11  and  C_16
REMARK    7  A    between atoms: C_13  and  O_14
REMARK    8  A    between atoms: C_16  and  C_17
REMARK    9  A    between atoms: C_20  and  O_21
REMARK   10  A    between atoms: C_20  and  C_23
REMARK   11  A    between atoms: C_23  and  C_24
REMARK   12  A    between atoms: C_23  and  N_33
REMARK   13  A    between atoms: C_25  and  C_30
REMARK                            x       y       z     vdW  Elec       q    Type
REMARK                         _______ _______ _______ _____ _____    ______ ____
ROOT
ATOM      1  O   UNL     1      35.028 -19.335 -22.554  0.00  0.00    -0.273 OA
ATOM      2  N   UNL     1      34.787 -19.727 -20.279  0.00  0.00    -0.296 N 
ATOM      3  C   UNL     1      34.784 -18.934 -21.419  0.00  0.00    +0.248 C 
ATOM      4  H   UNL     1      34.578 -19.307 -19.413  0.00  0.00    +0.150 HD
ENDROOT
BRANCH   2   5
ATOM      5  C   UNL     1      35.084 -21.135 -20.308  0.00  0.00    +0.149 C 
ATOM      6  C   UNL     1      36.479 -21.417 -19.773  0.00  0.00    +0.031 C 
BRANCH   5   9
ATOM      7  O   UNL     1      32.828 -21.825 -19.750  0.00  0.00    -0.273 OA
ATOM      8  N   UNL     1      34.573 -22.501 -18.377  0.00  0.00    -0.295 N 
ATOM      9  C   UNL     1      34.027 -21.855 -19.480  0.00  0.00    +0.241 C 
ATOM     10  H   UNL     1      35.548 -22.468 -18.247  0.00  0.00    +0.150 HD
BRANCH   8  11
ATOM     11  C   UNL     1      33.773 -23.218 -17.419  0.00  0.00    +0.171 C 
BRANCH  11  13
ATOM     12  O   UNL     1      35.040 -22.492 -15.471  0.00  0.00    -0.248 OA
ATOM     13  C   UNL     1      34.640 -23.400 -16.188  0.00  0.00    +0.335 C 
BRANCH  13  14
ATOM     14  O   UNL     1      34.940 -24.726 -16.041  0.00  0.00    -0.443 OA
ATOM     15  C   UNL     1      35.810 -25.042 -14.949  0.00  0.00    +0.256 C 
ENDBRANCH  13  14
ENDBRANCH  11  13
BRANCH  11  16
ATOM     16  C   UNL     1      32.489 -22.469 -17.050  0.00  0.00    +0.031 C 
BRANCH  16  17
ATOM     17  C   UNL     1      31.513 -23.262 -16.157  0.00  0.00    +0.002 C 
ATOM     18  C   UNL     1      30.056 -23.088 -16.587  0.00  0.00    +0.000 C 
ATOM     19  C   UNL     1      31.676 -22.824 -14.698  0.00  0.00    +0.000 C 
ENDBRANCH  16  17
ENDBRANCH  11  16
ENDBRANCH   8  11
ENDBRANCH   5   9
ENDBRANCH   2   5
BRANCH   3  20
ATOM     20  C   UNL     1      34.418 -17.479 -21.128  0.00  0.00    +0.170 C 
BRANCH  20  21
ATOM     21  O   UNL     1      35.438 -16.900 -20.329  0.00  0.00    -0.377 OA
ATOM     22  H   UNL     1      35.750 -17.552 -19.681  0.00  0.00    +0.211 HD
ENDBRANCH  20  21
BRANCH  20  23
ATOM     23  C   UNL     1      34.146 -16.651 -22.407  0.00  0.00    -0.006 C 
BRANCH  23  24
ATOM     24  C   UNL     1      33.414 -15.343 -22.147  0.00  0.00    -0.040 C 
ATOM     25  C   UNL     1      32.072 -12.945 -21.671  0.00  0.00    -0.023 C 
ATOM     26  C   UNL     1      33.017 -15.012 -20.851  0.00  0.00    -0.007 C 
ATOM     27  C   UNL     1      33.139 -14.476 -23.205  0.00  0.00    -0.007 C 
ATOM     28  C   UNL     1      32.347 -13.812 -20.614  0.00  0.00    -0.005 C 
ATOM     29  C   UNL     1      32.468 -13.276 -22.966  0.00  0.00    -0.005 C 
BRANCH  25  30
ATOM     30  C   UNL     1      31.355 -11.661 -21.415  0.00  0.00    +0.022 C 
ATOM     31  C   UNL     1      31.443 -11.222 -19.941  0.00  0.00    +0.005 C 
ATOM     32  C   UNL     1      31.841 -10.522 -22.329  0.00  0.00    +0.005 C 
ENDBRANCH  25  30
ENDBRANCH  23  24
BRANCH  23  33
ATOM     33  N   UNL     1      35.402 -16.438 -23.140  0.00  0.00    +0.386 N 
ATOM     34  H   UNL     1      35.699 -17.316 -23.568  0.00  0.00    -0.089 HD
ATOM     35  H   UNL     1      36.122 -16.114 -22.494  0.00  0.00    -0.089 HD
ATOM     36  H   UNL     1      35.257 -15.738 -23.867  0.00  0.00    -0.089 HD
ENDBRANCH  23  33
ENDBRANCH  20  23
ENDBRANCH   3  20
TORSDOF 13
ENDMDL
MODEL 6
REMARK VINA RESULT:      -9.1      2.165      3.887
REMARK  Name = 6914648
REMARK  13 active torsions:
REMARK  status: ('A' for Active; 'I' for Inactive)
REMARK    1  A    between atoms: N_2  and  C_5
REMARK    2  A    between atoms: C_3  and  C_20
REMARK    3  A    between atoms: C_5  and  C_9
REMARK    4  A    between atoms: N_8  and  C_11
REMARK    5  A    between atoms: C_11  and  C_13
REMARK    6  A    between atoms: C_11  and  C_16
REMARK    7  A    between atoms: C_13  and  O_14
REMARK    8  A    between atoms: C_16  and  C_17
REMARK    9  A    between atoms: C_20  and  O_21
REMARK   10  A    between atoms: C_20  and  C_23
REMARK   11  A    between atoms: C_23  and  C_24
REMARK   12  A    between atoms: C_23  and  N_33
REMARK   13  A    between atoms: C_25  and  C_30
REMARK                            x       y       z     vdW  Elec       q    Type
REMARK                         _______ _______ _______ _____ _____    ______ ____
ROOT
ATOM      1  O   UNL     1      34.530 -13.636 -22.188  0.00  0.00    -0.273 OA
ATOM      2  N   UNL     1      33.837 -12.586 -24.138  0.00  0.00    -0.296 N 
ATOM      3  C   UNL     1      34.042 -13.685 -23.314  0.00  0.00    +0.248 C 
ATOM      4  H   UNL     1      33.438 -12.732 -25.027  0.00  0.00    +0.150 HD
ENDROOT
BRANCH   2   5
ATOM      5  C   UNL     1      34.182 -11.244 -23.750  0.00  0.00    +0.149 C 
ATOM      6  C   UNL     1      34.723 -10.450 -24.929  0.00  0.00    +0.031 C 
BRANCH   5   9
ATOM      7  O   UNL     1      31.848 -11.155 -23.102  0.00  0.00    -0.273 OA
ATOM      8  N   UNL     1      33.163  -9.268 -22.796  0.00  0.00    -0.295 N 
ATOM      9  C   UNL     1      32.934 -10.585 -23.176  0.00  0.00    +0.241 C 
ATOM     10  H   UNL     1      34.071  -8.900 -22.893  0.00  0.00    +0.150 HD
BRANCH   8  11
ATOM     11  C   UNL     1      32.129  -8.419 -22.262  0.00  0.00    +0.171 C 
BRANCH  11  13
ATOM     12  O   UNL     1      32.954  -7.813 -20.054  0.00  0.00    -0.248 OA
ATOM     13  C   UNL     1      32.234  -8.514 -20.753  0.00  0.00    +0.335 C 
BRANCH  13  14
ATOM     14  O   UNL     1      31.439  -9.534 -20.309  0.00  0.00    -0.443 OA
ATOM     15  C   UNL     1      31.963 -10.292 -19.215  0.00  0.00    +0.256 C 
ENDBRANCH  13  14
ENDBRANCH  11  13
BRANCH  11  16
ATOM     16  C   UNL     1      32.278  -6.962 -22.708  0.00  0.00    +0.031 C 
BRANCH  16  17
ATOM     17  C   UNL     1      30.954  -6.257 -23.065  0.00  0.00    +0.002 C 
ATOM     18  C   UNL     1      31.061  -5.431 -24.348  0.00  0.00    +0.000 C 
ATOM     19  C   UNL     1      30.519  -5.356 -21.906  0.00  0.00    +0.000 C 
ENDBRANCH  16  17
ENDBRANCH  11  16
ENDBRANCH   8  11
ENDBRANCH   5   9
ENDBRANCH   2   5
BRANCH   3  20
ATOM     20  C   UNL     1      33.574 -14.995 -23.945  0.00  0.00    +0.170 C 
BRANCH  20  21
ATOM     21  O   UNL     1      32.866 -14.702 -25.140  0.00  0.00    -0.377 OA
ATOM     22  H   UNL     1      31.999 -14.325 -24.918  0.00  0.00    +0.211 HD
ENDBRANCH  20  21
BRANCH  20  23
ATOM     23  C   UNL     1      34.724 -16.002 -24.187  0.00  0.00    -0.006 C 
BRANCH  23  24
ATOM     24  C   UNL     1      34.674 -17.221 -23.279  0.00  0.00    -0.040 C 
ATOM     25  C   UNL     1      34.581 -19.458 -21.615  0.00  0.00    -0.023 C 
ATOM     26  C   UNL     1      34.420 -17.066 -21.916  0.00  0.00    -0.007 C 
ATOM     27  C   UNL     1      34.882 -18.495 -23.810  0.00  0.00    -0.007 C 
ATOM     28  C   UNL     1      34.373 -18.185 -21.084  0.00  0.00    -0.005 C 
ATOM     29  C   UNL     1      34.836 -19.613 -22.977  0.00  0.00    -0.005 C 
BRANCH  25  30
ATOM     30  C   UNL     1      34.530 -20.653 -20.724  0.00  0.00    +0.022 C 
ATOM     31  C   UNL     1      35.798 -20.799 -19.860  0.00  0.00    +0.005 C 
ATOM     32  C   UNL     1      33.281 -20.665 -19.823  0.00  0.00    +0.005 C 
ENDBRANCH  25  30
ENDBRANCH  23  24
BRANCH  23  33
ATOM     33  N   UNL     1      34.766 -16.379 -25.607  0.00  0.00    +0.386 N 
ATOM     34  H   UNL     1      33.834 -16.662 -25.911  0.00  0.00    -0.089 HD
ATOM     35  H   UNL     1      35.416 -17.155 -25.734  0.00  0.00    -0.089 HD
ATOM     36  H   UNL     1      35.076 -15.581 -26.162  0.00  0.00    -0.089 HD
ENDBRANCH  23  33
ENDBRANCH  20  23
ENDBRANCH   3  20
TORSDOF 13
ENDMDL
MODEL 7
REMARK VINA RESULT:      -9.1      3.225      5.597
REMARK  Name = 6914648
REMARK  13 active torsions:
REMARK  status: ('A' for Active; 'I' for Inactive)
REMARK    1  A    between atoms: N_2  and  C_5
REMARK    2  A    between atoms: C_3  and  C_20
REMARK    3  A    between atoms: C_5  and  C_9
REMARK    4  A    between atoms: N_8  and  C_11
REMARK    5  A    between atoms: C_11  and  C_13
REMARK    6  A    between atoms: C_11  and  C_16
REMARK    7  A    between atoms: C_13  and  O_14
REMARK    8  A    between atoms: C_16  and  C_17
REMARK    9  A    between atoms: C_20  and  O_21
REMARK   10  A    between atoms: C_20  and  C_23
REMARK   11  A    between atoms: C_23  and  C_24
REMARK   12  A    between atoms: C_23  and  N_33
REMARK   13  A    between atoms: C_25  and  C_30
REMARK                            x       y       z     vdW  Elec       q    Type
REMARK                         _______ _______ _______ _____ _____    ______ ____
ROOT
ATOM      1  O   UNL     1      36.058 -20.520 -20.008  0.00  0.00    -0.273 OA
ATOM      2  N   UNL     1      34.379 -19.708 -21.390  0.00  0.00    -0.296 N 
ATOM      3  C   UNL     1      34.872 -20.446 -20.322  0.00  0.00    +0.248 C 
ATOM      4  H   UNL     1      33.409 -19.715 -21.559  0.00  0.00    +0.150 HD
ENDROOT
BRANCH   2   5
ATOM      5  C   UNL     1      35.223 -18.934 -22.261  0.00  0.00    +0.149 C 
ATOM      6  C   UNL     1      34.719 -18.969 -23.695  0.00  0.00    +0.031 C 
BRANCH   5   9
ATOM      7  O   UNL     1      35.499 -17.231 -20.558  0.00  0.00    -0.273 OA
ATOM      8  N   UNL     1      34.955 -16.573 -22.716  0.00  0.00    -0.295 N 
ATOM      9  C   UNL     1      35.261 -17.506 -21.732  0.00  0.00    +0.241 C 
ATOM     10  H   UNL     1      34.780 -16.892 -23.630  0.00  0.00    +0.150 HD
BRANCH   8  11
ATOM     11  C   UNL     1      34.885 -15.158 -22.454  0.00  0.00    +0.171 C 
BRANCH  11  13
ATOM     12  O   UNL     1      33.928 -13.350 -23.773  0.00  0.00    -0.248 OA
ATOM     13  C   UNL     1      34.100 -14.549 -23.599  0.00  0.00    +0.335 C 
BRANCH  13  14
ATOM     14  O   UNL     1      33.580 -15.551 -24.371  0.00  0.00    -0.443 OA
ATOM     15  C   UNL     1      33.354 -15.216 -25.744  0.00  0.00    +0.256 C 
ENDBRANCH  13  14
ENDBRANCH  11  13
BRANCH  11  16
ATOM     16  C   UNL     1      34.200 -14.842 -21.122  0.00  0.00    +0.031 C 
BRANCH  16  17
ATOM     17  C   UNL     1      32.665 -14.720 -21.199  0.00  0.00    +0.002 C 
ATOM     18  C   UNL     1      32.150 -13.423 -20.571  0.00  0.00    +0.000 C 
ATOM     19  C   UNL     1      32.015 -15.921 -20.506  0.00  0.00    +0.000 C 
ENDBRANCH  16  17
ENDBRANCH  11  16
ENDBRANCH   8  11
ENDBRANCH   5   9
ENDBRANCH   2   5
BRANCH   3  20
ATOM     20  C   UNL     1      33.774 -21.162 -19.539  0.00  0.00    +0.170 C 
BRANCH  20  21
ATOM     21  O   UNL     1      32.623 -21.278 -20.362  0.00  0.00    -0.377 OA
ATOM     22  H   UNL     1      31.936 -21.773 -19.888  0.00  0.00    +0.211 HD
ENDBRANCH  20  21
BRANCH  20  23
ATOM     23  C   UNL     1      34.221 -22.532 -18.974  0.00  0.00    -0.006 C 
BRANCH  23  24
ATOM     24  C   UNL     1      33.645 -22.848 -17.601  0.00  0.00    -0.040 C 
ATOM     25  C   UNL     1      32.590 -23.426 -15.085  0.00  0.00    -0.023 C 
ATOM     26  C   UNL     1      34.500 -23.126 -16.534  0.00  0.00    -0.007 C 
ATOM     27  C   UNL     1      32.264 -22.860 -17.410  0.00  0.00    -0.007 C 
ATOM     28  C   UNL     1      33.972 -23.414 -15.276  0.00  0.00    -0.005 C 
ATOM     29  C   UNL     1      31.736 -23.149 -16.151  0.00  0.00    -0.005 C 
BRANCH  25  30
ATOM     30  C   UNL     1      32.027 -23.735 -13.738  0.00  0.00    +0.022 C 
ATOM     31  C   UNL     1      30.796 -22.871 -13.403  0.00  0.00    +0.005 C 
ATOM     32  C   UNL     1      31.680 -25.226 -13.572  0.00  0.00    +0.005 C 
ENDBRANCH  25  30
ENDBRANCH  23  24
BRANCH  23  33
ATOM     33  N   UNL     1      33.926 -23.593 -19.947  0.00  0.00    +0.386 N 
ATOM     34  H   UNL     1      33.374 -23.206 -20.714  0.00  0.00    -0.089 HD
ATOM     35  H   UNL     1      33.399 -24.337 -19.490  0.00  0.00    -0.089 HD
ATOM     36  H   UNL     1      34.799 -23.971 -20.314  0.00  0.00    -0.089 HD
ENDBRANCH  23  33
ENDBRANCH  20  23
ENDBRANCH   3  20
TORSDOF 13
ENDMDL
MODEL 8
REMARK VINA RESULT:      -9.0      2.157      3.087
REMARK  Name = 6914648
REMARK  13 active torsions:
REMARK  status: ('A' for Active; 'I' for Inactive)
REMARK    1  A    between atoms: N_2  and  C_5
REMARK    2  A    between atoms: C_3  and  C_20
REMARK    3  A    between atoms: C_5  and  C_9
REMARK    4  A    between atoms: N_8  and  C_11
REMARK    5  A    between atoms: C_11  and  C_13
REMARK    6  A    between atoms: C_11  and  C_16
REMARK    7  A    between atoms: C_13  and  O_14
REMARK    8  A    between atoms: C_16  and  C_17
REMARK    9  A    between atoms: C_20  and  O_21
REMARK   10  A    between atoms: C_20  and  C_23
REMARK   11  A    between atoms: C_23  and  C_24
REMARK   12  A    between atoms: C_23  and  N_33
REMARK   13  A    between atoms: C_25  and  C_30
REMARK                            x       y       z     vdW  Elec       q    Type
REMARK                         _______ _______ _______ _____ _____    ______ ____
ROOT
ATOM      1  O   UNL     1      32.437 -15.139 -22.043  0.00  0.00    -0.273 OA
ATOM      2  N   UNL     1      33.721 -13.287 -22.599  0.00  0.00    -0.296 N 
ATOM      3  C   UNL     1      33.529 -14.582 -22.138  0.00  0.00    +0.248 C 
ATOM      4  H   UNL     1      34.639 -12.932 -22.636  0.00  0.00    +0.150 HD
ENDROOT
BRANCH   2   5
ATOM      5  C   UNL     1      32.638 -12.440 -23.025  0.00  0.00    +0.149 C 
ATOM      6  C   UNL     1      31.627 -12.231 -21.908  0.00  0.00    +0.031 C 
BRANCH   5   9
ATOM      7  O   UNL     1      34.230 -11.031 -24.190  0.00  0.00    -0.273 OA
ATOM      8  N   UNL     1      32.537 -10.023 -22.963  0.00  0.00    -0.295 N 
ATOM      9  C   UNL     1      33.230 -11.112 -23.480  0.00  0.00    +0.241 C 
ATOM     10  H   UNL     1      31.745 -10.192 -22.403  0.00  0.00    +0.150 HD
BRANCH   8  11
ATOM     11  C   UNL     1      32.927  -8.660 -23.215  0.00  0.00    +0.171 C 
BRANCH  11  13
ATOM     12  O   UNL     1      30.557  -8.380 -23.693  0.00  0.00    -0.248 OA
ATOM     13  C   UNL     1      31.704  -7.961 -23.775  0.00  0.00    +0.335 C 
BRANCH  13  14
ATOM     14  O   UNL     1      32.094  -6.823 -24.425  0.00  0.00    -0.443 OA
ATOM     15  C   UNL     1      31.389  -5.633 -24.060  0.00  0.00    +0.256 C 
ENDBRANCH  13  14
ENDBRANCH  11  13
BRANCH  11  16
ATOM     16  C   UNL     1      33.406  -7.944 -21.949  0.00  0.00    +0.031 C 
BRANCH  16  17
ATOM     17  C   UNL     1      32.321  -7.741 -20.872  0.00  0.00    +0.002 C 
ATOM     18  C   UNL     1      32.474  -6.410 -20.134  0.00  0.00    +0.000 C 
ATOM     19  C   UNL     1      32.368  -8.896 -19.868  0.00  0.00    +0.000 C 
ENDBRANCH  16  17
ENDBRANCH  11  16
ENDBRANCH   8  11
ENDBRANCH   5   9
ENDBRANCH   2   5
BRANCH   3  20
ATOM     20  C   UNL     1      34.836 -15.280 -21.767  0.00  0.00    +0.170 C 
BRANCH  20  21
ATOM     21  O   UNL     1      34.805 -15.610 -20.387  0.00  0.00    -0.377 OA
ATOM     22  H   UNL     1      34.309 -16.435 -20.263  0.00  0.00    +0.211 HD
ENDBRANCH  20  21
BRANCH  20  23
ATOM     23  C   UNL     1      35.141 -16.514 -22.650  0.00  0.00    -0.006 C 
BRANCH  23  24
ATOM     24  C   UNL     1      35.114 -17.833 -21.892  0.00  0.00    -0.040 C 
ATOM     25  C   UNL     1      35.066 -20.251 -20.503  0.00  0.00    -0.023 C 
ATOM     26  C   UNL     1      36.309 -18.424 -21.479  0.00  0.00    -0.007 C 
ATOM     27  C   UNL     1      33.896 -18.451 -21.612  0.00  0.00    -0.007 C 
ATOM     28  C   UNL     1      36.284 -19.632 -20.784  0.00  0.00    -0.005 C 
ATOM     29  C   UNL     1      33.872 -19.661 -20.916  0.00  0.00    -0.005 C 
BRANCH  25  30
ATOM     30  C   UNL     1      35.041 -21.544 -19.759  0.00  0.00    +0.022 C 
ATOM     31  C   UNL     1      36.164 -21.640 -18.708  0.00  0.00    +0.005 C 
ATOM     32  C   UNL     1      33.679 -21.815 -19.094  0.00  0.00    +0.005 C 
ENDBRANCH  25  30
ENDBRANCH  23  24
BRANCH  23  33
ATOM     33  N   UNL     1      34.239 -16.532 -23.810  0.00  0.00    +0.386 N 
ATOM     34  H   UNL     1      34.750 -16.235 -24.642  0.00  0.00    -0.089 HD
ATOM     35  H   UNL     1      33.458 -15.896 -23.645  0.00  0.00    -0.089 HD
ATOM     36  H   UNL     1      33.883 -17.477 -23.949  0.00  0.00    -0.089 HD
ENDBRANCH  23  33
ENDBRANCH  20  23
ENDBRANCH   3  20
TORSDOF 13
ENDMDL
MODEL 9
REMARK VINA RESULT:      -8.9      4.853     11.456
REMARK  Name = 6914648
REMARK  13 active torsions:
REMARK  status: ('A' for Active; 'I' for Inactive)
REMARK    1  A    between atoms: N_2  and  C_5
REMARK    2  A    between atoms: C_3  and  C_20
REMARK    3  A    between atoms: C_5  and  C_9
REMARK    4  A    between atoms: N_8  and  C_11
REMARK    5  A    between atoms: C_11  and  C_13
REMARK    6  A    between atoms: C_11  and  C_16
REMARK    7  A    between atoms: C_13  and  O_14
REMARK    8  A    between atoms: C_16  and  C_17
REMARK    9  A    between atoms: C_20  and  O_21
REMARK   10  A    between atoms: C_20  and  C_23
REMARK   11  A    between atoms: C_23  and  C_24
REMARK   12  A    between atoms: C_23  and  N_33
REMARK   13  A    between atoms: C_25  and  C_30
REMARK                            x       y       z     vdW  Elec       q    Type
REMARK                         _______ _______ _______ _____ _____    ______ ____
ROOT
ATOM      1  O   UNL     1      36.171 -21.874 -20.193  0.00  0.00    -0.273 OA
ATOM      2  N   UNL     1      34.139 -21.681 -19.087  0.00  0.00    -0.296 N 
ATOM      3  C   UNL     1      35.071 -21.342 -20.059  0.00  0.00    +0.248 C 
ATOM      4  H   UNL     1      33.284 -21.193 -19.064  0.00  0.00    +0.150 HD
ENDROOT
BRANCH   2   5
ATOM      5  C   UNL     1      34.368 -22.715 -18.113  0.00  0.00    +0.149 C 
ATOM      6  C   UNL     1      35.426 -22.299 -17.102  0.00  0.00    +0.031 C 
BRANCH   5   9
ATOM      7  O   UNL     1      31.952 -22.732 -17.915  0.00  0.00    -0.273 OA
ATOM      8  N   UNL     1      33.220 -23.589 -16.170  0.00  0.00    -0.295 N 
ATOM      9  C   UNL     1      33.043 -23.012 -17.422  0.00  0.00    +0.241 C 
ATOM     10  H   UNL     1      34.137 -23.776 -15.863  0.00  0.00    +0.150 HD
BRANCH   8  11
ATOM     11  C   UNL     1      32.120 -23.925 -15.303  0.00  0.00    +0.171 C 
BRANCH  11  13
ATOM     12  O   UNL     1      32.173 -25.008 -13.124  0.00  0.00    -0.248 OA
ATOM     13  C   UNL     1      32.729 -24.324 -13.973  0.00  0.00    +0.335 C 
BRANCH  13  14
ATOM     14  O   UNL     1      33.969 -23.759 -13.858  0.00  0.00    -0.443 OA
ATOM     15  C   UNL     1      34.778 -24.262 -12.790  0.00  0.00    +0.256 C 
ENDBRANCH  13  14
ENDBRANCH  11  13
BRANCH  11  16
ATOM     16  C   UNL     1      31.151 -22.756 -15.106  0.00  0.00    +0.031 C 
BRANCH  16  17
ATOM     17  C   UNL     1      29.659 -23.145 -15.120  0.00  0.00    +0.002 C 
ATOM     18  C   UNL     1      29.451 -24.652 -15.274  0.00  0.00    +0.000 C 
ATOM     19  C   UNL     1      28.944 -22.407 -16.256  0.00  0.00    +0.000 C 
ENDBRANCH  16  17
ENDBRANCH  11  16
ENDBRANCH   8  11
ENDBRANCH   5   9
ENDBRANCH   2   5
BRANCH   3  20
ATOM     20  C   UNL     1      34.583 -20.230 -20.986  0.00  0.00    +0.170 C 
BRANCH  20  21
ATOM     21  O   UNL     1      33.486 -19.571 -20.373  0.00  0.00    -0.377 OA
ATOM     22  H   UNL     1      32.692 -20.125 -20.450  0.00  0.00    +0.211 HD
ENDBRANCH  20  21
BRANCH  20  23
ATOM     23  C   UNL     1      35.701 -19.239 -21.390  0.00  0.00    -0.006 C 
BRANCH  23  24
ATOM     24  C   UNL     1      35.182 -17.945 -22.000  0.00  0.00    -0.040 C 
ATOM     25  C   UNL     1      34.232 -15.573 -23.119  0.00  0.00    -0.023 C 
ATOM     26  C   UNL     1      34.975 -17.858 -23.378  0.00  0.00    -0.007 C 
ATOM     27  C   UNL     1      34.915 -16.847 -21.183  0.00  0.00    -0.007 C 
ATOM     28  C   UNL     1      34.499 -16.672 -23.936  0.00  0.00    -0.005 C 
ATOM     29  C   UNL     1      34.440 -15.660 -21.743  0.00  0.00    -0.005 C 
BRANCH  25  30
ATOM     30  C   UNL     1      33.722 -14.305 -23.718  0.00  0.00    +0.022 C 
ATOM     31  C   UNL     1      33.175 -14.506 -25.145  0.00  0.00    +0.005 C 
ATOM     32  C   UNL     1      32.656 -13.625 -22.841  0.00  0.00    +0.005 C 
ENDBRANCH  25  30
ENDBRANCH  23  24
BRANCH  23  33
ATOM     33  N   UNL     1      36.583 -18.987 -20.243  0.00  0.00    +0.386 N 
ATOM     34  H   UNL     1      36.451 -19.720 -19.545  0.00  0.00    -0.089 HD
ATOM     35  H   UNL     1      36.356 -18.081 -19.831  0.00  0.00    -0.089 HD
ATOM     36  H   UNL     1      37.555 -18.985 -20.554  0.00  0.00    -0.089 HD
ENDBRANCH  23  33
ENDBRANCH  20  23
ENDBRANCH   3  20
TORSDOF 13
ENDMDL
