MODEL 1
REMARK VINA RESULT:      -5.9      0.000      0.000
REMARK  Name = 70
REMARK  4 active torsions:
REMARK  status: ('A' for Active; 'I' for Inactive)
REMARK    1  A    between atoms: C_2  and  C_4
REMARK    2  A    between atoms: C_2  and  C_7
REMARK    3  A    between atoms: C_4  and  O_5
REMARK    4  A    between atoms: C_7  and  C_8
REMARK                            x       y       z     vdW  Elec       q    Type
REMARK                         _______ _______ _______ _____ _____    ______ ____
ROOT
ATOM      1  O   UNL     1      27.777 -23.341 -17.919  0.00  0.00    -0.284 OA
ATOM      2  C   UNL     1      27.633 -22.569 -16.982  0.00  0.00    +0.248 C 
ENDROOT
BRANCH   2   4
ATOM      3  O   UNL     1      26.384 -20.720 -17.811  0.00  0.00    -0.242 OA
ATOM      4  C   UNL     1      26.447 -21.647 -17.030  0.00  0.00    +0.373 C 
BRANCH   4   5
ATOM      5  O   UNL     1      25.569 -21.982 -16.076  0.00  0.00    -0.475 OA
ATOM      6  H   UNL     1      25.567 -21.524 -15.259  0.00  0.00    +0.295 HD
ENDBRANCH   4   5
ENDBRANCH   2   4
BRANCH   2   7
ATOM      7  C   UNL     1      28.551 -22.437 -15.787  0.00  0.00    +0.076 C 
BRANCH   7   8
ATOM      8  C   UNL     1      29.657 -23.502 -15.757  0.00  0.00    +0.008 C 
ATOM      9  C   UNL     1      29.191 -24.774 -15.045  0.00  0.00    +0.000 C 
ATOM     10  C   UNL     1      30.901 -22.946 -15.061  0.00  0.00    +0.000 C 
ENDBRANCH   7   8
ENDBRANCH   2   7
TORSDOF 4
ENDMDL
MODEL 2
REMARK VINA RESULT:      -5.6      0.932      1.853
REMARK  Name = 70
REMARK  4 active torsions:
REMARK  status: ('A' for Active; 'I' for Inactive)
REMARK    1  A    between atoms: C_2  and  C_4
REMARK    2  A    between atoms: C_2  and  C_7
REMARK    3  A    between atoms: C_4  and  O_5
REMARK    4  A    between atoms: C_7  and  C_8
REMARK                            x       y       z     vdW  Elec       q    Type
REMARK                         _______ _______ _______ _____ _____    ______ ____
ROOT
ATOM      1  O   UNL     1      27.757 -24.250 -17.492  0.00  0.00    -0.284 OA
ATOM      2  C   UNL     1      28.139 -23.258 -16.890  0.00  0.00    +0.248 C 
ENDROOT
BRANCH   2   4
ATOM      3  O   UNL     1      26.400 -22.352 -15.540  0.00  0.00    -0.242 OA
ATOM      4  C   UNL     1      27.100 -22.235 -16.525  0.00  0.00    +0.373 C 
BRANCH   4   5
ATOM      5  O   UNL     1      27.056 -21.275 -17.457  0.00  0.00    -0.475 OA
ATOM      6  H   UNL     1      26.284 -20.753 -17.556  0.00  0.00    +0.295 HD
ENDBRANCH   4   5
ENDBRANCH   2   4
BRANCH   2   7
ATOM      7  C   UNL     1      29.566 -22.948 -16.495  0.00  0.00    +0.076 C 
BRANCH   7   8
ATOM      8  C   UNL     1      29.850 -23.214 -15.009  0.00  0.00    +0.008 C 
ATOM      9  C   UNL     1      31.267 -22.781 -14.623  0.00  0.00    +0.000 C 
ATOM     10  C   UNL     1      29.662 -24.700 -14.698  0.00  0.00    +0.000 C 
ENDBRANCH   7   8
ENDBRANCH   2   7
TORSDOF 4
ENDMDL
MODEL 3
REMARK VINA RESULT:      -5.4     10.188     11.890
REMARK  Name = 70
REMARK  4 active torsions:
REMARK  status: ('A' for Active; 'I' for Inactive)
REMARK    1  A    between atoms: C_2  and  C_4
REMARK    2  A    between atoms: C_2  and  C_7
REMARK    3  A    between atoms: C_4  and  O_5
REMARK    4  A    between atoms: C_7  and  C_8
REMARK                            x       y       z     vdW  Elec       q    Type
REMARK                         _______ _______ _______ _____ _____    ______ ____
ROOT
ATOM      1  O   UNL     1      38.471 -26.944 -14.757  0.00  0.00    -0.284 OA
ATOM      2  C   UNL     1      39.003 -25.992 -14.206  0.00  0.00    +0.248 C 
ENDROOT
BRANCH   2   4
ATOM      3  O   UNL     1      40.945 -24.616 -14.286  0.00  0.00    -0.242 OA
ATOM      4  C   UNL     1      40.246 -25.438 -14.844  0.00  0.00    +0.373 C 
BRANCH   4   5
ATOM      5  O   UNL     1      40.390 -25.940 -16.077  0.00  0.00    -0.475 OA
ATOM      6  H   UNL     1      39.679 -26.393 -16.484  0.00  0.00    +0.295 HD
ENDBRANCH   4   5
ENDBRANCH   2   4
BRANCH   2   7
ATOM      7  C   UNL     1      38.543 -25.330 -12.926  0.00  0.00    +0.076 C 
BRANCH   7   8
ATOM      8  C   UNL     1      37.568 -24.167 -13.168  0.00  0.00    +0.008 C 
ATOM      9  C   UNL     1      37.582 -23.173 -12.004  0.00  0.00    +0.000 C 
ATOM     10  C   UNL     1      36.151 -24.706 -13.369  0.00  0.00    +0.000 C 
ENDBRANCH   7   8
ENDBRANCH   2   7
TORSDOF 4
ENDMDL
MODEL 4
REMARK VINA RESULT:      -5.4      7.269      8.376
REMARK  Name = 70
REMARK  4 active torsions:
REMARK  status: ('A' for Active; 'I' for Inactive)
REMARK    1  A    between atoms: C_2  and  C_4
REMARK    2  A    between atoms: C_2  and  C_7
REMARK    3  A    between atoms: C_4  and  O_5
REMARK    4  A    between atoms: C_7  and  C_8
REMARK                            x       y       z     vdW  Elec       q    Type
REMARK                         _______ _______ _______ _____ _____    ______ ____
ROOT
ATOM      1  O   UNL     1      32.480 -20.351 -19.988  0.00  0.00    -0.284 OA
ATOM      2  C   UNL     1      33.620 -20.792 -19.972  0.00  0.00    +0.248 C 
ENDROOT
BRANCH   2   4
ATOM      3  O   UNL     1      34.902 -22.672 -19.271  0.00  0.00    -0.242 OA
ATOM      4  C   UNL     1      33.848 -22.071 -19.216  0.00  0.00    +0.373 C 
BRANCH   4   5
ATOM      5  O   UNL     1      32.732 -22.426 -18.568  0.00  0.00    -0.475 OA
ATOM      6  H   UNL     1      32.100 -22.975 -18.989  0.00  0.00    +0.295 HD
ENDBRANCH   4   5
ENDBRANCH   2   4
BRANCH   2   7
ATOM      7  C   UNL     1      34.831 -20.161 -20.622  0.00  0.00    +0.076 C 
BRANCH   7   8
ATOM      8  C   UNL     1      34.475 -18.972 -21.527  0.00  0.00    +0.008 C 
ATOM      9  C   UNL     1      34.758 -19.285 -22.999  0.00  0.00    +0.000 C 
ATOM     10  C   UNL     1      35.266 -17.734 -21.101  0.00  0.00    +0.000 C 
ENDBRANCH   7   8
ENDBRANCH   2   7
TORSDOF 4
ENDMDL
MODEL 5
REMARK VINA RESULT:      -5.3      9.567     10.569
REMARK  Name = 70
REMARK  4 active torsions:
REMARK  status: ('A' for Active; 'I' for Inactive)
REMARK    1  A    between atoms: C_2  and  C_4
REMARK    2  A    between atoms: C_2  and  C_7
REMARK    3  A    between atoms: C_4  and  O_5
REMARK    4  A    between atoms: C_7  and  C_8
REMARK                            x       y       z     vdW  Elec       q    Type
REMARK                         _______ _______ _______ _____ _____    ______ ____
ROOT
ATOM      1  O   UNL     1      37.573 -22.784 -11.213  0.00  0.00    -0.284 OA
ATOM      2  C   UNL     1      36.955 -23.702 -11.732  0.00  0.00    +0.248 C 
ENDROOT
BRANCH   2   4
ATOM      3  O   UNL     1      35.858 -24.320  -9.711  0.00  0.00    -0.242 OA
ATOM      4  C   UNL     1      35.851 -24.327 -10.926  0.00  0.00    +0.373 C 
BRANCH   4   5
ATOM      5  O   UNL     1      34.958 -24.902 -11.741  0.00  0.00    -0.475 OA
ATOM      6  H   UNL     1      34.091 -24.554 -11.806  0.00  0.00    +0.295 HD
ENDBRANCH   4   5
ENDBRANCH   2   4
BRANCH   2   7
ATOM      7  C   UNL     1      37.209 -24.286 -13.104  0.00  0.00    +0.076 C 
BRANCH   7   8
ATOM      8  C   UNL     1      38.046 -25.573 -13.063  0.00  0.00    +0.008 C 
ATOM      9  C   UNL     1      39.438 -25.356 -13.663  0.00  0.00    +0.000 C 
ATOM     10  C   UNL     1      37.326 -26.690 -13.821  0.00  0.00    +0.000 C 
ENDBRANCH   7   8
ENDBRANCH   2   7
TORSDOF 4
ENDMDL
MODEL 6
REMARK VINA RESULT:      -5.3      9.971     10.541
REMARK  Name = 70
REMARK  4 active torsions:
REMARK  status: ('A' for Active; 'I' for Inactive)
REMARK    1  A    between atoms: C_2  and  C_4
REMARK    2  A    between atoms: C_2  and  C_7
REMARK    3  A    between atoms: C_4  and  O_5
REMARK    4  A    between atoms: C_7  and  C_8
REMARK                            x       y       z     vdW  Elec       q    Type
REMARK                         _______ _______ _______ _____ _____    ______ ____
ROOT
ATOM      1  O   UNL     1      34.902 -19.510 -24.352  0.00  0.00    -0.284 OA
ATOM      2  C   UNL     1      34.825 -18.476 -23.704  0.00  0.00    +0.248 C 
ENDROOT
BRANCH   2   4
ATOM      3  O   UNL     1      34.593 -17.051 -25.598  0.00  0.00    -0.242 OA
ATOM      4  C   UNL     1      34.983 -17.184 -24.456  0.00  0.00    +0.373 C 
BRANCH   4   5
ATOM      5  O   UNL     1      35.641 -16.294 -23.702  0.00  0.00    -0.475 OA
ATOM      6  H   UNL     1      36.061 -16.569 -22.911  0.00  0.00    +0.295 HD
ENDBRANCH   4   5
ENDBRANCH   2   4
BRANCH   2   7
ATOM      7  C   UNL     1      34.606 -18.372 -22.211  0.00  0.00    +0.076 C 
BRANCH   7   8
ATOM      8  C   UNL     1      34.380 -19.736 -21.541  0.00  0.00    +0.008 C 
ATOM      9  C   UNL     1      33.085 -19.751 -20.726  0.00  0.00    +0.000 C 
ATOM     10  C   UNL     1      35.565 -20.076 -20.634  0.00  0.00    +0.000 C 
ENDBRANCH   7   8
ENDBRANCH   2   7
TORSDOF 4
ENDMDL
MODEL 7
REMARK VINA RESULT:      -5.2      9.810     10.532
REMARK  Name = 70
REMARK  4 active torsions:
REMARK  status: ('A' for Active; 'I' for Inactive)
REMARK    1  A    between atoms: C_2  and  C_4
REMARK    2  A    between atoms: C_2  and  C_7
REMARK    3  A    between atoms: C_4  and  O_5
REMARK    4  A    between atoms: C_7  and  C_8
REMARK                            x       y       z     vdW  Elec       q    Type
REMARK                         _______ _______ _______ _____ _____    ______ ____
ROOT
ATOM      1  O   UNL     1      34.888 -15.539 -20.270  0.00  0.00    -0.284 OA
ATOM      2  C   UNL     1      34.923 -16.314 -21.214  0.00  0.00    +0.248 C 
ENDROOT
BRANCH   2   4
ATOM      3  O   UNL     1      33.395 -15.371 -22.777  0.00  0.00    -0.242 OA
ATOM      4  C   UNL     1      34.518 -15.776 -22.558  0.00  0.00    +0.373 C 
BRANCH   4   5
ATOM      5  O   UNL     1      35.539 -15.878 -23.418  0.00  0.00    -0.475 OA
ATOM      6  H   UNL     1      35.699 -15.195 -24.039  0.00  0.00    +0.295 HD
ENDBRANCH   4   5
ENDBRANCH   2   4
BRANCH   2   7
ATOM      7  C   UNL     1      35.314 -17.774 -21.156  0.00  0.00    +0.076 C 
BRANCH   7   8
ATOM      8  C   UNL     1      34.258 -18.704 -21.772  0.00  0.00    +0.008 C 
ATOM      9  C   UNL     1      33.833 -19.798 -20.789  0.00  0.00    +0.000 C 
ATOM     10  C   UNL     1      34.805 -19.343 -23.050  0.00  0.00    +0.000 C 
ENDBRANCH   7   8
ENDBRANCH   2   7
TORSDOF 4
ENDMDL
MODEL 8
REMARK VINA RESULT:      -5.2      9.428     10.144
REMARK  Name = 70
REMARK  4 active torsions:
REMARK  status: ('A' for Active; 'I' for Inactive)
REMARK    1  A    between atoms: C_2  and  C_4
REMARK    2  A    between atoms: C_2  and  C_7
REMARK    3  A    between atoms: C_4  and  O_5
REMARK    4  A    between atoms: C_7  and  C_8
REMARK                            x       y       z     vdW  Elec       q    Type
REMARK                         _______ _______ _______ _____ _____    ______ ____
ROOT
ATOM      1  O   UNL     1      35.179 -17.082 -21.308  0.00  0.00    -0.284 OA
ATOM      2  C   UNL     1      35.015 -17.882 -22.218  0.00  0.00    +0.248 C 
ENDROOT
BRANCH   2   4
ATOM      3  O   UNL     1      34.640 -17.977 -24.567  0.00  0.00    -0.242 OA
ATOM      4  C   UNL     1      35.062 -17.344 -23.620  0.00  0.00    +0.373 C 
BRANCH   4   5
ATOM      5  O   UNL     1      35.669 -16.150 -23.632  0.00  0.00    -0.475 OA
ATOM      6  H   UNL     1      35.524 -15.558 -24.344  0.00  0.00    +0.295 HD
ENDBRANCH   4   5
ENDBRANCH   2   4
BRANCH   2   7
ATOM      7  C   UNL     1      34.745 -19.363 -22.066  0.00  0.00    +0.076 C 
BRANCH   7   8
ATOM      8  C   UNL     1      34.348 -19.758 -20.636  0.00  0.00    +0.008 C 
ATOM      9  C   UNL     1      35.207 -20.913 -20.115  0.00  0.00    +0.000 C 
ATOM     10  C   UNL     1      32.871 -20.152 -20.592  0.00  0.00    +0.000 C 
ENDBRANCH   7   8
ENDBRANCH   2   7
TORSDOF 4
ENDMDL
MODEL 9
REMARK VINA RESULT:      -5.1      7.705      8.831
REMARK  Name = 70
REMARK  4 active torsions:
REMARK  status: ('A' for Active; 'I' for Inactive)
REMARK    1  A    between atoms: C_2  and  C_4
REMARK    2  A    between atoms: C_2  and  C_7
REMARK    3  A    between atoms: C_4  and  O_5
REMARK    4  A    between atoms: C_7  and  C_8
REMARK                            x       y       z     vdW  Elec       q    Type
REMARK                         _______ _______ _______ _____ _____    ______ ____
ROOT
ATOM      1  O   UNL     1      35.908 -20.712 -19.496  0.00  0.00    -0.284 OA
ATOM      2  C   UNL     1      34.764 -20.806 -19.914  0.00  0.00    +0.248 C 
ENDROOT
BRANCH   2   4
ATOM      3  O   UNL     1      34.353 -23.071 -19.306  0.00  0.00    -0.242 OA
ATOM      4  C   UNL     1      33.929 -21.935 -19.379  0.00  0.00    +0.373 C 
BRANCH   4   5
ATOM      5  O   UNL     1      32.702 -21.493 -19.076  0.00  0.00    -0.475 OA
ATOM      6  H   UNL     1      32.302 -20.825 -19.598  0.00  0.00    +0.295 HD
ENDBRANCH   4   5
ENDBRANCH   2   4
BRANCH   2   7
ATOM      7  C   UNL     1      34.112 -19.905 -20.940  0.00  0.00    +0.076 C 
BRANCH   7   8
ATOM      8  C   UNL     1      35.125 -19.065 -21.732  0.00  0.00    +0.008 C 
ATOM      9  C   UNL     1      35.151 -17.614 -21.245  0.00  0.00    +0.000 C 
ATOM     10  C   UNL     1      34.784 -19.103 -23.223  0.00  0.00    +0.000 C 
ENDBRANCH   7   8
ENDBRANCH   2   7
TORSDOF 4
ENDMDL
