MODEL 1
REMARK VINA RESULT:      -8.5      0.000      0.000
REMARK  Name = 4497
REMARK  10 active torsions:
REMARK  status: ('A' for Active; 'I' for Inactive)
REMARK    1  A    between atoms: C_2  and  C_10
REMARK    2  A    between atoms: C_3  and  C_20
REMARK    3  A    between atoms: C_4  and  C_26
REMARK    4  A    between atoms: C_13  and  N_18
REMARK    5  A    between atoms: C_20  and  O_21
REMARK    6  A    between atoms: O_21  and  C_22
REMARK    7  A    between atoms: C_26  and  O_27
REMARK    8  A    between atoms: O_27  and  C_28
REMARK    9  A    between atoms: C_28  and  C_29
REMARK   10  A    between atoms: C_29  and  O_30
REMARK                            x       y       z     vdW  Elec       q    Type
REMARK                         _______ _______ _______ _____ _____    ______ ____
ROOT
ATOM      1  N   UNL     1      33.456 -23.500 -13.134  0.00  0.00    -0.334 N 
ATOM      2  C   UNL     1      33.755 -24.257 -15.848  0.00  0.00    +0.011 C 
ATOM      3  C   UNL     1      32.493 -23.590 -15.293  0.00  0.00    +0.071 C 
ATOM      4  C   UNL     1      34.763 -24.624 -14.755  0.00  0.00    +0.085 C 
ATOM      5  C   UNL     1      32.406 -23.223 -13.994  0.00  0.00    +0.098 C 
ATOM      6  C   UNL     1      34.591 -24.218 -13.476  0.00  0.00    +0.028 C 
ATOM      7  C   UNL     1      31.236 -22.519 -13.364  0.00  0.00    +0.026 C 
ATOM      8  C   UNL     1      35.542 -24.481 -12.341  0.00  0.00    +0.047 C 
ATOM      9  H   UNL     1      33.391 -23.162 -12.210  0.00  0.00    +0.147 HD
ENDROOT
BRANCH   2  10
ATOM     10  C   UNL     1      34.404 -23.364 -16.865  0.00  0.00    +0.002 C 
ATOM     11  C   UNL     1      35.537 -22.625 -16.523  0.00  0.00    +0.024 C 
ATOM     12  C   UNL     1      33.875 -23.271 -18.152  0.00  0.00    +0.000 C 
ATOM     13  C   UNL     1      36.140 -21.795 -17.468  0.00  0.00    +0.143 C 
ATOM     14  C   UNL     1      34.478 -22.442 -19.097  0.00  0.00    +0.002 C 
ATOM     15  C   UNL     1      35.611 -21.703 -18.755  0.00  0.00    +0.024 C 
BRANCH  13  18
ATOM     16  O   UNL     1      37.978 -21.404 -16.132  0.00  0.00    -0.126 OA
ATOM     17  O   UNL     1      37.599 -20.042 -17.810  0.00  0.00    -0.126 OA
ATOM     18  N   UNL     1      37.294 -21.044 -17.120  0.00  0.00    +0.058 N 
ENDBRANCH  13  18
ENDBRANCH   2  10
BRANCH   3  20
ATOM     19  O   UNL     1      31.237 -22.437 -16.939  0.00  0.00    -0.245 OA
ATOM     20  C   UNL     1      31.372 -23.418 -16.233  0.00  0.00    +0.339 C 
BRANCH  20  21
ATOM     21  O   UNL     1      30.575 -24.511 -16.151  0.00  0.00    -0.449 OA
BRANCH  21  22
ATOM     22  C   UNL     1      29.253 -24.262 -15.663  0.00  0.00    +0.169 C 
ATOM     23  C   UNL     1      28.279 -24.262 -16.831  0.00  0.00    +0.047 C 
ATOM     24  C   UNL     1      28.895 -25.315 -14.626  0.00  0.00    +0.047 C 
ENDBRANCH  21  22
ENDBRANCH  20  21
ENDBRANCH   3  20
BRANCH   4  26
ATOM     25  O   UNL     1      35.754 -26.566 -15.686  0.00  0.00    -0.245 OA
ATOM     26  C   UNL     1      35.893 -25.478 -15.159  0.00  0.00    +0.342 C 
BRANCH  26  27
ATOM     27  O   UNL     1      37.046 -24.840 -14.841  0.00  0.00    -0.443 OA
BRANCH  27  28
ATOM     28  C   UNL     1      38.165 -25.698 -14.594  0.00  0.00    +0.241 C 
BRANCH  28  29
ATOM     29  C   UNL     1      39.004 -25.106 -13.478  0.00  0.00    +0.190 C 
BRANCH  29  30
ATOM     30  O   UNL     1      40.345 -24.963 -13.930  0.00  0.00    -0.347 OA
ATOM     31  C   UNL     1      40.585 -25.736 -15.098  0.00  0.00    +0.174 C 
ENDBRANCH  29  30
ENDBRANCH  28  29
ENDBRANCH  27  28
ENDBRANCH  26  27
ENDBRANCH   4  26
TORSDOF 10
ENDMDL
MODEL 2
REMARK VINA RESULT:      -8.3     13.409     16.422
REMARK  Name = 4497
REMARK  10 active torsions:
REMARK  status: ('A' for Active; 'I' for Inactive)
REMARK    1  A    between atoms: C_2  and  C_10
REMARK    2  A    between atoms: C_3  and  C_20
REMARK    3  A    between atoms: C_4  and  C_26
REMARK    4  A    between atoms: C_13  and  N_18
REMARK    5  A    between atoms: C_20  and  O_21
REMARK    6  A    between atoms: O_21  and  C_22
REMARK    7  A    between atoms: C_26  and  O_27
REMARK    8  A    between atoms: O_27  and  C_28
REMARK    9  A    between atoms: C_28  and  C_29
REMARK   10  A    between atoms: C_29  and  O_30
REMARK                            x       y       z     vdW  Elec       q    Type
REMARK                         _______ _______ _______ _____ _____    ______ ____
ROOT
ATOM      1  N   UNL     1      32.139  -7.999 -20.362  0.00  0.00    -0.334 N 
ATOM      2  C   UNL     1      31.740  -9.298 -22.849  0.00  0.00    +0.011 C 
ATOM      3  C   UNL     1      31.822  -7.776 -22.697  0.00  0.00    +0.071 C 
ATOM      4  C   UNL     1      31.726 -10.030 -21.504  0.00  0.00    +0.085 C 
ATOM      5  C   UNL     1      32.040  -7.202 -21.492  0.00  0.00    +0.098 C 
ATOM      6  C   UNL     1      31.947  -9.371 -20.344  0.00  0.00    +0.028 C 
ATOM      7  C   UNL     1      32.187  -5.726 -21.243  0.00  0.00    +0.026 C 
ATOM      8  C   UNL     1      32.003 -10.001 -18.979  0.00  0.00    +0.047 C 
ATOM      9  H   UNL     1      32.363  -7.557 -19.510  0.00  0.00    +0.147 HD
ENDROOT
BRANCH   2  10
ATOM     10  C   UNL     1      32.881  -9.792 -23.690  0.00  0.00    +0.002 C 
ATOM     11  C   UNL     1      32.741 -10.962 -24.438  0.00  0.00    +0.024 C 
ATOM     12  C   UNL     1      34.083  -9.084 -23.724  0.00  0.00    +0.000 C 
ATOM     13  C   UNL     1      33.802 -11.421 -25.219  0.00  0.00    +0.143 C 
ATOM     14  C   UNL     1      35.142  -9.544 -24.505  0.00  0.00    +0.002 C 
ATOM     15  C   UNL     1      35.002 -10.713 -25.253  0.00  0.00    +0.024 C 
BRANCH  13  18
ATOM     16  O   UNL     1      33.313 -13.667 -25.400  0.00  0.00    -0.126 OA
ATOM     17  O   UNL     1      33.878 -12.573 -27.216  0.00  0.00    -0.126 OA
ATOM     18  N   UNL     1      33.658 -12.611 -25.982  0.00  0.00    +0.058 N 
ENDBRANCH  13  18
ENDBRANCH   2  10
BRANCH   3  20
ATOM     19  O   UNL     1      30.609  -7.079 -24.610  0.00  0.00    -0.245 OA
ATOM     20  C   UNL     1      31.604  -6.980 -23.916  0.00  0.00    +0.339 C 
BRANCH  20  21
ATOM     21  O   UNL     1      32.673  -6.166 -24.092  0.00  0.00    -0.449 OA
BRANCH  21  22
ATOM     22  C   UNL     1      32.885  -5.727 -25.438  0.00  0.00    +0.169 C 
ATOM     23  C   UNL     1      32.419  -4.285 -25.573  0.00  0.00    +0.047 C 
ATOM     24  C   UNL     1      34.356  -5.883 -25.790  0.00  0.00    +0.047 C 
ENDBRANCH  21  22
ENDBRANCH  20  21
ENDBRANCH   3  20
BRANCH   4  26
ATOM     25  O   UNL     1      30.283 -11.902 -21.679  0.00  0.00    -0.245 OA
ATOM     26  C   UNL     1      31.411 -11.468 -21.539  0.00  0.00    +0.342 C 
BRANCH  26  27
ATOM     27  O   UNL     1      32.565 -12.162 -21.393  0.00  0.00    -0.443 OA
BRANCH  27  28
ATOM     28  C   UNL     1      32.513 -13.524 -21.830  0.00  0.00    +0.241 C 
BRANCH  28  29
ATOM     29  C   UNL     1      32.973 -14.425 -20.700  0.00  0.00    +0.190 C 
BRANCH  29  30
ATOM     30  O   UNL     1      34.376 -14.635 -20.815  0.00  0.00    -0.347 OA
ATOM     31  C   UNL     1      34.689 -16.018 -20.890  0.00  0.00    +0.174 C 
ENDBRANCH  29  30
ENDBRANCH  28  29
ENDBRANCH  27  28
ENDBRANCH  26  27
ENDBRANCH   4  26
TORSDOF 10
ENDMDL
MODEL 3
REMARK VINA RESULT:      -8.3      2.585      6.043
REMARK  Name = 4497
REMARK  10 active torsions:
REMARK  status: ('A' for Active; 'I' for Inactive)
REMARK    1  A    between atoms: C_2  and  C_10
REMARK    2  A    between atoms: C_3  and  C_20
REMARK    3  A    between atoms: C_4  and  C_26
REMARK    4  A    between atoms: C_13  and  N_18
REMARK    5  A    between atoms: C_20  and  O_21
REMARK    6  A    between atoms: O_21  and  C_22
REMARK    7  A    between atoms: C_26  and  O_27
REMARK    8  A    between atoms: O_27  and  C_28
REMARK    9  A    between atoms: C_28  and  C_29
REMARK   10  A    between atoms: C_29  and  O_30
REMARK                            x       y       z     vdW  Elec       q    Type
REMARK                         _______ _______ _______ _____ _____    ______ ____
ROOT
ATOM      1  N   UNL     1      32.890 -23.535 -15.780  0.00  0.00    -0.334 N 
ATOM      2  C   UNL     1      35.575 -23.465 -14.876  0.00  0.00    +0.011 C 
ATOM      3  C   UNL     1      34.389 -23.814 -13.971  0.00  0.00    +0.071 C 
ATOM      4  C   UNL     1      35.142 -22.995 -16.268  0.00  0.00    +0.085 C 
ATOM      5  C   UNL     1      33.127 -23.860 -14.454  0.00  0.00    +0.098 C 
ATOM      6  C   UNL     1      33.851 -23.071 -16.664  0.00  0.00    +0.028 C 
ATOM      7  C   UNL     1      31.904 -24.240 -13.665  0.00  0.00    +0.026 C 
ATOM      8  C   UNL     1      33.331 -22.684 -18.022  0.00  0.00    +0.047 C 
ATOM      9  H   UNL     1      31.971 -23.641 -16.119  0.00  0.00    +0.147 HD
ENDROOT
BRANCH   2  10
ATOM     10  C   UNL     1      36.494 -24.646 -14.996  0.00  0.00    +0.002 C 
ATOM     11  C   UNL     1      37.863 -24.490 -14.772  0.00  0.00    +0.024 C 
ATOM     12  C   UNL     1      35.982 -25.899 -15.333  0.00  0.00    +0.000 C 
ATOM     13  C   UNL     1      38.717 -25.587 -14.884  0.00  0.00    +0.143 C 
ATOM     14  C   UNL     1      36.837 -26.995 -15.445  0.00  0.00    +0.002 C 
ATOM     15  C   UNL     1      38.205 -26.839 -15.220  0.00  0.00    +0.024 C 
BRANCH  13  18
ATOM     16  O   UNL     1      40.491 -24.629 -13.765  0.00  0.00    -0.126 OA
ATOM     17  O   UNL     1      40.920 -26.092 -15.344  0.00  0.00    -0.126 OA
ATOM     18  N   UNL     1      40.110 -25.428 -14.654  0.00  0.00    +0.058 N 
ENDBRANCH  13  18
ENDBRANCH   2  10
BRANCH   3  20
ATOM     19  O   UNL     1      34.211 -24.958 -11.903  0.00  0.00    -0.245 OA
ATOM     20  C   UNL     1      34.693 -24.047 -12.549  0.00  0.00    +0.339 C 
BRANCH  20  21
ATOM     21  O   UNL     1      35.565 -23.094 -12.137  0.00  0.00    -0.449 OA
BRANCH  21  22
ATOM     22  C   UNL     1      36.662 -23.575 -11.354  0.00  0.00    +0.169 C 
ATOM     23  C   UNL     1      36.850 -25.062 -11.615  0.00  0.00    +0.047 C 
ATOM     24  C   UNL     1      37.910 -22.777 -11.698  0.00  0.00    +0.047 C 
ENDBRANCH  21  22
ENDBRANCH  20  21
ENDBRANCH   3  20
BRANCH   4  26
ATOM     25  O   UNL     1      37.268 -22.040 -16.700  0.00  0.00    -0.245 OA
ATOM     26  C   UNL     1      36.190 -22.414 -17.123  0.00  0.00    +0.342 C 
BRANCH  26  27
ATOM     27  O   UNL     1      35.733 -22.384 -18.399  0.00  0.00    -0.443 OA
BRANCH  27  28
ATOM     28  C   UNL     1      36.536 -21.630 -19.313  0.00  0.00    +0.241 C 
BRANCH  28  29
ATOM     29  C   UNL     1      35.636 -20.727 -20.134  0.00  0.00    +0.190 C 
BRANCH  29  30
ATOM     30  O   UNL     1      36.208 -19.426 -20.188  0.00  0.00    -0.347 OA
ATOM     31  C   UNL     1      35.672 -18.667 -21.263  0.00  0.00    +0.174 C 
ENDBRANCH  29  30
ENDBRANCH  28  29
ENDBRANCH  27  28
ENDBRANCH  26  27
ENDBRANCH   4  26
TORSDOF 10
ENDMDL
MODEL 4
REMARK VINA RESULT:      -8.0      2.332      6.904
REMARK  Name = 4497
REMARK  10 active torsions:
REMARK  status: ('A' for Active; 'I' for Inactive)
REMARK    1  A    between atoms: C_2  and  C_10
REMARK    2  A    between atoms: C_3  and  C_20
REMARK    3  A    between atoms: C_4  and  C_26
REMARK    4  A    between atoms: C_13  and  N_18
REMARK    5  A    between atoms: C_20  and  O_21
REMARK    6  A    between atoms: O_21  and  C_22
REMARK    7  A    between atoms: C_26  and  O_27
REMARK    8  A    between atoms: O_27  and  C_28
REMARK    9  A    between atoms: C_28  and  C_29
REMARK   10  A    between atoms: C_29  and  O_30
REMARK                            x       y       z     vdW  Elec       q    Type
REMARK                         _______ _______ _______ _____ _____    ______ ____
ROOT
ATOM      1  N   UNL     1      36.854 -22.050 -16.915  0.00  0.00    -0.334 N 
ATOM      2  C   UNL     1      34.587 -23.745 -16.771  0.00  0.00    +0.011 C 
ATOM      3  C   UNL     1      35.770 -23.835 -15.802  0.00  0.00    +0.071 C 
ATOM      4  C   UNL     1      34.834 -22.763 -17.921  0.00  0.00    +0.085 C 
ATOM      5  C   UNL     1      36.819 -22.987 -15.895  0.00  0.00    +0.098 C 
ATOM      6  C   UNL     1      35.919 -21.956 -17.933  0.00  0.00    +0.028 C 
ATOM      7  C   UNL     1      38.002 -22.959 -14.965  0.00  0.00    +0.026 C 
ATOM      8  C   UNL     1      36.228 -20.927 -18.986  0.00  0.00    +0.047 C 
ATOM      9  H   UNL     1      37.598 -21.404 -16.917  0.00  0.00    +0.147 HD
ENDROOT
BRANCH   2  10
ATOM     10  C   UNL     1      33.341 -23.359 -16.027  0.00  0.00    +0.002 C 
ATOM     11  C   UNL     1      32.094 -23.499 -16.636  0.00  0.00    +0.024 C 
ATOM     12  C   UNL     1      33.430 -22.862 -14.727  0.00  0.00    +0.000 C 
ATOM     13  C   UNL     1      30.936 -23.140 -15.945  0.00  0.00    +0.143 C 
ATOM     14  C   UNL     1      32.273 -22.504 -14.036  0.00  0.00    +0.002 C 
ATOM     15  C   UNL     1      31.025 -22.643 -14.645  0.00  0.00    +0.024 C 
BRANCH  13  18
ATOM     16  O   UNL     1      29.058 -24.375 -16.458  0.00  0.00    -0.126 OA
ATOM     17  O   UNL     1      29.186 -22.314 -17.200  0.00  0.00    -0.126 OA
ATOM     18  N   UNL     1      29.666 -23.283 -16.565  0.00  0.00    +0.058 N 
ENDBRANCH  13  18
ENDBRANCH   2  10
BRANCH   3  20
ATOM     19  O   UNL     1      35.568 -26.089 -15.098  0.00  0.00    -0.245 OA
ATOM     20  C   UNL     1      35.723 -24.919 -14.806  0.00  0.00    +0.339 C 
BRANCH  20  21
ATOM     21  O   UNL     1      35.877 -24.374 -13.575  0.00  0.00    -0.449 OA
BRANCH  21  22
ATOM     22  C   UNL     1      36.193 -25.305 -12.535  0.00  0.00    +0.169 C 
ATOM     23  C   UNL     1      37.694 -25.553 -12.524  0.00  0.00    +0.047 C 
ATOM     24  C   UNL     1      35.698 -24.758 -11.205  0.00  0.00    +0.047 C 
ENDBRANCH  21  22
ENDBRANCH  20  21
ENDBRANCH   3  20
BRANCH   4  26
ATOM     25  O   UNL     1      33.742 -23.721 -19.793  0.00  0.00    -0.245 OA
ATOM     26  C   UNL     1      33.862 -22.785 -19.026  0.00  0.00    +0.342 C 
BRANCH  26  27
ATOM     27  O   UNL     1      33.172 -21.618 -19.012  0.00  0.00    -0.443 OA
BRANCH  27  28
ATOM     28  C   UNL     1      32.721 -21.164 -20.292  0.00  0.00    +0.241 C 
BRANCH  28  29
ATOM     29  C   UNL     1      33.207 -19.744 -20.513  0.00  0.00    +0.190 C 
BRANCH  29  30
ATOM     30  O   UNL     1      34.131 -19.732 -21.594  0.00  0.00    -0.347 OA
ATOM     31  C   UNL     1      34.861 -18.514 -21.641  0.00  0.00    +0.174 C 
ENDBRANCH  29  30
ENDBRANCH  28  29
ENDBRANCH  27  28
ENDBRANCH  26  27
ENDBRANCH   4  26
TORSDOF 10
ENDMDL
MODEL 5
REMARK VINA RESULT:      -6.6     10.764     14.373
REMARK  Name = 4497
REMARK  10 active torsions:
REMARK  status: ('A' for Active; 'I' for Inactive)
REMARK    1  A    between atoms: C_2  and  C_10
REMARK    2  A    between atoms: C_3  and  C_20
REMARK    3  A    between atoms: C_4  and  C_26
REMARK    4  A    between atoms: C_13  and  N_18
REMARK    5  A    between atoms: C_20  and  O_21
REMARK    6  A    between atoms: O_21  and  C_22
REMARK    7  A    between atoms: C_26  and  O_27
REMARK    8  A    between atoms: O_27  and  C_28
REMARK    9  A    between atoms: C_28  and  C_29
REMARK   10  A    between atoms: C_29  and  O_30
REMARK                            x       y       z     vdW  Elec       q    Type
REMARK                         _______ _______ _______ _____ _____    ______ ____
ROOT
ATOM      1  N   UNL     1      31.550 -12.960 -21.159  0.00  0.00    -0.334 N 
ATOM      2  C   UNL     1      33.678 -12.793 -23.022  0.00  0.00    +0.011 C 
ATOM      3  C   UNL     1      33.496 -13.966 -22.054  0.00  0.00    +0.071 C 
ATOM      4  C   UNL     1      32.694 -11.649 -22.762  0.00  0.00    +0.085 C 
ATOM      5  C   UNL     1      32.449 -14.014 -21.199  0.00  0.00    +0.098 C 
ATOM      6  C   UNL     1      31.677 -11.784 -21.880  0.00  0.00    +0.028 C 
ATOM      7  C   UNL     1      32.151 -15.140 -20.248  0.00  0.00    +0.026 C 
ATOM      8  C   UNL     1      30.631 -10.744 -21.588  0.00  0.00    +0.047 C 
ATOM      9  H   UNL     1      30.762 -13.054 -20.574  0.00  0.00    +0.147 HD
ENDROOT
BRANCH   2  10
ATOM     10  C   UNL     1      33.545 -13.271 -24.439  0.00  0.00    +0.002 C 
ATOM     11  C   UNL     1      33.294 -14.618 -24.701  0.00  0.00    +0.024 C 
ATOM     12  C   UNL     1      33.673 -12.369 -25.495  0.00  0.00    +0.000 C 
ATOM     13  C   UNL     1      33.171 -15.062 -26.018  0.00  0.00    +0.143 C 
ATOM     14  C   UNL     1      33.550 -12.812 -26.811  0.00  0.00    +0.002 C 
ATOM     15  C   UNL     1      33.298 -14.160 -27.073  0.00  0.00    +0.024 C 
BRANCH  13  18
ATOM     16  O   UNL     1      33.742 -17.292 -25.896  0.00  0.00    -0.126 OA
ATOM     17  O   UNL     1      31.866 -16.749 -26.896  0.00  0.00    -0.126 OA
ATOM     18  N   UNL     1      32.914 -16.433 -26.284  0.00  0.00    +0.058 N 
ENDBRANCH  13  18
ENDBRANCH   2  10
BRANCH   3  20
ATOM     19  O   UNL     1      35.704 -14.784 -21.789  0.00  0.00    -0.245 OA
ATOM     20  C   UNL     1      34.541 -15.003 -22.072  0.00  0.00    +0.339 C 
BRANCH  20  21
ATOM     21  O   UNL     1      33.974 -16.175 -22.447  0.00  0.00    -0.449 OA
BRANCH  21  22
ATOM     22  C   UNL     1      34.694 -17.348 -22.057  0.00  0.00    +0.169 C 
ATOM     23  C   UNL     1      33.769 -18.266 -21.271  0.00  0.00    +0.047 C 
ATOM     24  C   UNL     1      35.249 -18.030 -23.298  0.00  0.00    +0.047 C 
ENDBRANCH  21  22
ENDBRANCH  20  21
ENDBRANCH   3  20
BRANCH   4  26
ATOM     25  O   UNL     1      32.096  -9.810 -24.133  0.00  0.00    -0.245 OA
ATOM     26  C   UNL     1      32.944 -10.387 -23.479  0.00  0.00    +0.342 C 
BRANCH  26  27
ATOM     27  O   UNL     1      34.234 -10.026 -23.270  0.00  0.00    -0.443 OA
BRANCH  27  28
ATOM     28  C   UNL     1      34.722  -8.994 -24.134  0.00  0.00    +0.241 C 
BRANCH  28  29
ATOM     29  C   UNL     1      34.785  -7.691 -23.362  0.00  0.00    +0.190 C 
BRANCH  29  30
ATOM     30  O   UNL     1      33.664  -6.888 -23.712  0.00  0.00    -0.347 OA
ATOM     31  C   UNL     1      32.775  -6.730 -22.615  0.00  0.00    +0.174 C 
ENDBRANCH  29  30
ENDBRANCH  28  29
ENDBRANCH  27  28
ENDBRANCH  26  27
ENDBRANCH   4  26
TORSDOF 10
ENDMDL
MODEL 6
REMARK VINA RESULT:      -6.6     10.362     14.147
REMARK  Name = 4497
REMARK  10 active torsions:
REMARK  status: ('A' for Active; 'I' for Inactive)
REMARK    1  A    between atoms: C_2  and  C_10
REMARK    2  A    between atoms: C_3  and  C_20
REMARK    3  A    between atoms: C_4  and  C_26
REMARK    4  A    between atoms: C_13  and  N_18
REMARK    5  A    between atoms: C_20  and  O_21
REMARK    6  A    between atoms: O_21  and  C_22
REMARK    7  A    between atoms: C_26  and  O_27
REMARK    8  A    between atoms: O_27  and  C_28
REMARK    9  A    between atoms: C_28  and  C_29
REMARK   10  A    between atoms: C_29  and  O_30
REMARK                            x       y       z     vdW  Elec       q    Type
REMARK                         _______ _______ _______ _____ _____    ______ ____
ROOT
ATOM      1  N   UNL     1      33.814 -10.719 -24.545  0.00  0.00    -0.334 N 
ATOM      2  C   UNL     1      32.492 -12.972 -23.447  0.00  0.00    +0.011 C 
ATOM      3  C   UNL     1      33.246 -13.004 -24.780  0.00  0.00    +0.071 C 
ATOM      4  C   UNL     1      32.384 -11.561 -22.859  0.00  0.00    +0.085 C 
ATOM      5  C   UNL     1      33.884 -11.909 -25.251  0.00  0.00    +0.098 C 
ATOM      6  C   UNL     1      33.055 -10.521 -23.404  0.00  0.00    +0.028 C 
ATOM      7  C   UNL     1      34.692 -11.850 -26.519  0.00  0.00    +0.026 C 
ATOM      8  C   UNL     1      33.056  -9.112 -22.877  0.00  0.00    +0.047 C 
ATOM      9  H   UNL     1      34.343  -9.958 -24.880  0.00  0.00    +0.147 HD
ENDROOT
BRANCH   2  10
ATOM     10  C   UNL     1      33.153 -13.889 -22.459  0.00  0.00    +0.002 C 
ATOM     11  C   UNL     1      32.520 -15.072 -22.074  0.00  0.00    +0.024 C 
ATOM     12  C   UNL     1      34.399 -13.561 -21.926  0.00  0.00    +0.000 C 
ATOM     13  C   UNL     1      33.135 -15.925 -21.157  0.00  0.00    +0.143 C 
ATOM     14  C   UNL     1      35.013 -14.413 -21.009  0.00  0.00    +0.002 C 
ATOM     15  C   UNL     1      34.380 -15.596 -20.624  0.00  0.00    +0.024 C 
BRANCH  13  18
ATOM     16  O   UNL     1      31.264 -17.105 -20.507  0.00  0.00    -0.126 OA
ATOM     17  O   UNL     1      33.166 -18.184 -20.693  0.00  0.00    -0.126 OA
ATOM     18  N   UNL     1      32.491 -17.129 -20.766  0.00  0.00    +0.058 N 
ENDBRANCH  13  18
ENDBRANCH   2  10
BRANCH   3  20
ATOM     19  O   UNL     1      32.258 -14.587 -26.241  0.00  0.00    -0.245 OA
ATOM     20  C   UNL     1      33.195 -14.268 -25.533  0.00  0.00    +0.339 C 
BRANCH  20  21
ATOM     21  O   UNL     1      34.336 -14.957 -25.289  0.00  0.00    -0.449 OA
BRANCH  21  22
ATOM     22  C   UNL     1      34.151 -16.243 -24.689  0.00  0.00    +0.169 C 
ATOM     23  C   UNL     1      33.851 -17.264 -25.776  0.00  0.00    +0.047 C 
ATOM     24  C   UNL     1      35.395 -16.609 -23.894  0.00  0.00    +0.047 C 
ENDBRANCH  21  22
ENDBRANCH  20  21
ENDBRANCH   3  20
BRANCH   4  26
ATOM     25  O   UNL     1      30.270 -11.306 -21.819  0.00  0.00    -0.245 OA
ATOM     26  C   UNL     1      31.478 -11.393 -21.710  0.00  0.00    +0.342 C 
BRANCH  26  27
ATOM     27  O   UNL     1      32.224 -11.359 -20.579  0.00  0.00    -0.443 OA
BRANCH  27  28
ATOM     28  C   UNL     1      31.485 -11.150 -19.371  0.00  0.00    +0.241 C 
BRANCH  28  29
ATOM     29  C   UNL     1      31.285  -9.661 -19.165  0.00  0.00    +0.190 C 
BRANCH  29  30
ATOM     30  O   UNL     1      32.510  -8.987 -19.428  0.00  0.00    -0.347 OA
ATOM     31  C   UNL     1      32.286  -7.657 -19.874  0.00  0.00    +0.174 C 
ENDBRANCH  29  30
ENDBRANCH  28  29
ENDBRANCH  27  28
ENDBRANCH  26  27
ENDBRANCH   4  26
TORSDOF 10
ENDMDL
MODEL 7
REMARK VINA RESULT:      -6.5     10.812     14.203
REMARK  Name = 4497
REMARK  10 active torsions:
REMARK  status: ('A' for Active; 'I' for Inactive)
REMARK    1  A    between atoms: C_2  and  C_10
REMARK    2  A    between atoms: C_3  and  C_20
REMARK    3  A    between atoms: C_4  and  C_26
REMARK    4  A    between atoms: C_13  and  N_18
REMARK    5  A    between atoms: C_20  and  O_21
REMARK    6  A    between atoms: O_21  and  C_22
REMARK    7  A    between atoms: C_26  and  O_27
REMARK    8  A    between atoms: O_27  and  C_28
REMARK    9  A    between atoms: C_28  and  C_29
REMARK   10  A    between atoms: C_29  and  O_30
REMARK                            x       y       z     vdW  Elec       q    Type
REMARK                         _______ _______ _______ _____ _____    ______ ____
ROOT
ATOM      1  N   UNL     1      33.566 -13.687 -25.647  0.00  0.00    -0.334 N 
ATOM      2  C   UNL     1      33.764 -12.594 -23.040  0.00  0.00    +0.011 C 
ATOM      3  C   UNL     1      33.988 -11.776 -24.316  0.00  0.00    +0.071 C 
ATOM      4  C   UNL     1      33.591 -14.091 -23.316  0.00  0.00    +0.085 C 
ATOM      5  C   UNL     1      33.857 -12.336 -25.540  0.00  0.00    +0.098 C 
ATOM      6  C   UNL     1      33.476 -14.563 -24.578  0.00  0.00    +0.028 C 
ATOM      7  C   UNL     1      34.004 -11.612 -26.850  0.00  0.00    +0.026 C 
ATOM      8  C   UNL     1      33.254 -16.003 -24.953  0.00  0.00    +0.047 C 
ATOM      9  H   UNL     1      33.412 -14.050 -26.550  0.00  0.00    +0.147 HD
ENDROOT
BRANCH   2  10
ATOM     10  C   UNL     1      32.571 -12.069 -22.295  0.00  0.00    +0.002 C 
ATOM     11  C   UNL     1      32.718 -11.579 -20.997  0.00  0.00    +0.024 C 
ATOM     12  C   UNL     1      31.314 -12.071 -22.900  0.00  0.00    +0.000 C 
ATOM     13  C   UNL     1      31.610 -11.091 -20.305  0.00  0.00    +0.143 C 
ATOM     14  C   UNL     1      30.206 -11.583 -22.208  0.00  0.00    +0.002 C 
ATOM     15  C   UNL     1      30.353 -11.093 -20.911  0.00  0.00    +0.024 C 
BRANCH  13  18
ATOM     16  O   UNL     1      31.204 -11.198 -18.038  0.00  0.00    -0.126 OA
ATOM     17  O   UNL     1      32.447  -9.558 -18.800  0.00  0.00    -0.126 OA
ATOM     18  N   UNL     1      31.760 -10.591 -18.985  0.00  0.00    +0.058 N 
ENDBRANCH  13  18
ENDBRANCH   2  10
BRANCH   3  20
ATOM     19  O   UNL     1      35.560 -10.020 -24.072  0.00  0.00    -0.245 OA
ATOM     20  C   UNL     1      34.398 -10.374 -24.135  0.00  0.00    +0.339 C 
BRANCH  20  21
ATOM     21  O   UNL     1      33.281  -9.609 -24.058  0.00  0.00    -0.449 OA
BRANCH  21  22
ATOM     22  C   UNL     1      33.381  -8.478 -23.187  0.00  0.00    +0.169 C 
ATOM     23  C   UNL     1      33.879  -7.278 -23.980  0.00  0.00    +0.047 C 
ATOM     24  C   UNL     1      32.024  -8.214 -22.552  0.00  0.00    +0.047 C 
ENDBRANCH  21  22
ENDBRANCH  20  21
ENDBRANCH   3  20
BRANCH   4  26
ATOM     25  O   UNL     1      32.610 -15.296 -21.526  0.00  0.00    -0.245 OA
ATOM     26  C   UNL     1      33.610 -14.984 -22.145  0.00  0.00    +0.342 C 
BRANCH  26  27
ATOM     27  O   UNL     1      34.891 -15.361 -21.916  0.00  0.00    -0.443 OA
BRANCH  27  28
ATOM     28  C   UNL     1      35.048 -16.675 -21.369  0.00  0.00    +0.241 C 
BRANCH  28  29
ATOM     29  C   UNL     1      35.431 -17.631 -22.482  0.00  0.00    +0.190 C 
BRANCH  29  30
ATOM     30  O   UNL     1      34.519 -18.722 -22.492  0.00  0.00    -0.347 OA
ATOM     31  C   UNL     1      34.104 -19.065 -21.177  0.00  0.00    +0.174 C 
ENDBRANCH  29  30
ENDBRANCH  28  29
ENDBRANCH  27  28
ENDBRANCH  26  27
ENDBRANCH   4  26
TORSDOF 10
ENDMDL
MODEL 8
REMARK VINA RESULT:      -6.4     12.018     14.927
REMARK  Name = 4497
REMARK  10 active torsions:
REMARK  status: ('A' for Active; 'I' for Inactive)
REMARK    1  A    between atoms: C_2  and  C_10
REMARK    2  A    between atoms: C_3  and  C_20
REMARK    3  A    between atoms: C_4  and  C_26
REMARK    4  A    between atoms: C_13  and  N_18
REMARK    5  A    between atoms: C_20  and  O_21
REMARK    6  A    between atoms: O_21  and  C_22
REMARK    7  A    between atoms: C_26  and  O_27
REMARK    8  A    between atoms: O_27  and  C_28
REMARK    9  A    between atoms: C_28  and  C_29
REMARK   10  A    between atoms: C_29  and  O_30
REMARK                            x       y       z     vdW  Elec       q    Type
REMARK                         _______ _______ _______ _____ _____    ______ ____
ROOT
ATOM      1  N   UNL     1      32.273 -12.058 -20.314  0.00  0.00    -0.334 N 
ATOM      2  C   UNL     1      32.119 -11.497 -23.087  0.00  0.00    +0.011 C 
ATOM      3  C   UNL     1      31.681 -10.509 -22.002  0.00  0.00    +0.071 C 
ATOM      4  C   UNL     1      32.485 -12.874 -22.525  0.00  0.00    +0.085 C 
ATOM      5  C   UNL     1      31.798 -10.812 -20.689  0.00  0.00    +0.098 C 
ATOM      6  C   UNL     1      32.571 -13.087 -21.192  0.00  0.00    +0.028 C 
ATOM      7  C   UNL     1      31.447  -9.895 -19.549  0.00  0.00    +0.026 C 
ATOM      8  C   UNL     1      32.969 -14.383 -20.540  0.00  0.00    +0.047 C 
ATOM      9  H   UNL     1      32.408 -12.225 -19.352  0.00  0.00    +0.147 HD
ENDROOT
BRANCH   2  10
ATOM     10  C   UNL     1      33.277 -10.934 -23.859  0.00  0.00    +0.002 C 
ATOM     11  C   UNL     1      33.633 -11.491 -25.088  0.00  0.00    +0.024 C 
ATOM     12  C   UNL     1      33.998  -9.856 -23.349  0.00  0.00    +0.000 C 
ATOM     13  C   UNL     1      34.709 -10.968 -25.805  0.00  0.00    +0.143 C 
ATOM     14  C   UNL     1      35.074  -9.333 -24.065  0.00  0.00    +0.002 C 
ATOM     15  C   UNL     1      35.429  -9.889 -25.295  0.00  0.00    +0.024 C 
BRANCH  13  18
ATOM     16  O   UNL     1      35.980 -10.991 -27.729  0.00  0.00    -0.126 OA
ATOM     17  O   UNL     1      34.472 -12.561 -27.456  0.00  0.00    -0.126 OA
ATOM     18  N   UNL     1      35.070 -11.533 -27.057  0.00  0.00    +0.058 N 
ENDBRANCH  13  18
ENDBRANCH   2  10
BRANCH   3  20
ATOM     19  O   UNL     1      30.147  -9.189 -23.235  0.00  0.00    -0.245 OA
ATOM     20  C   UNL     1      31.088  -9.244 -22.465  0.00  0.00    +0.339 C 
BRANCH  20  21
ATOM     21  O   UNL     1      31.765  -8.219 -21.892  0.00  0.00    -0.449 OA
BRANCH  21  22
ATOM     22  C   UNL     1      31.455  -6.922 -22.412  0.00  0.00    +0.169 C 
ATOM     23  C   UNL     1      31.502  -5.905 -21.282  0.00  0.00    +0.047 C 
ATOM     24  C   UNL     1      32.436  -6.581 -23.524  0.00  0.00    +0.047 C 
ENDBRANCH  21  22
ENDBRANCH  20  21
ENDBRANCH   3  20
BRANCH   4  26
ATOM     25  O   UNL     1      31.842 -14.289 -24.315  0.00  0.00    -0.245 OA
ATOM     26  C   UNL     1      32.686 -13.955 -23.505  0.00  0.00    +0.342 C 
BRANCH  26  27
ATOM     27  O   UNL     1      33.929 -14.467 -23.328  0.00  0.00    -0.443 OA
BRANCH  27  28
ATOM     28  C   UNL     1      34.222 -15.630 -24.108  0.00  0.00    +0.241 C 
BRANCH  28  29
ATOM     29  C   UNL     1      35.020 -16.604 -23.263  0.00  0.00    +0.190 C 
BRANCH  29  30
ATOM     30  O   UNL     1      34.657 -17.933 -23.618  0.00  0.00    -0.347 OA
ATOM     31  C   UNL     1      34.424 -18.053 -25.014  0.00  0.00    +0.174 C 
ENDBRANCH  29  30
ENDBRANCH  28  29
ENDBRANCH  27  28
ENDBRANCH  26  27
ENDBRANCH   4  26
TORSDOF 10
ENDMDL
MODEL 9
REMARK VINA RESULT:      -6.4     11.590     14.517
REMARK  Name = 4497
REMARK  10 active torsions:
REMARK  status: ('A' for Active; 'I' for Inactive)
REMARK    1  A    between atoms: C_2  and  C_10
REMARK    2  A    between atoms: C_3  and  C_20
REMARK    3  A    between atoms: C_4  and  C_26
REMARK    4  A    between atoms: C_13  and  N_18
REMARK    5  A    between atoms: C_20  and  O_21
REMARK    6  A    between atoms: O_21  and  C_22
REMARK    7  A    between atoms: C_26  and  O_27
REMARK    8  A    between atoms: O_27  and  C_28
REMARK    9  A    between atoms: C_28  and  C_29
REMARK   10  A    between atoms: C_29  and  O_30
REMARK                            x       y       z     vdW  Elec       q    Type
REMARK                         _______ _______ _______ _____ _____    ______ ____
ROOT
ATOM      1  N   UNL     1      32.813 -13.499 -20.943  0.00  0.00    -0.334 N 
ATOM      2  C   UNL     1      32.386 -12.280 -23.466  0.00  0.00    +0.011 C 
ATOM      3  C   UNL     1      31.947 -11.650 -22.140  0.00  0.00    +0.071 C 
ATOM      4  C   UNL     1      32.923 -13.705 -23.298  0.00  0.00    +0.085 C 
ATOM      5  C   UNL     1      32.196 -12.258 -20.958  0.00  0.00    +0.098 C 
ATOM      6  C   UNL     1      33.134 -14.235 -22.072  0.00  0.00    +0.028 C 
ATOM      7  C   UNL     1      31.853 -11.703 -19.603  0.00  0.00    +0.026 C 
ATOM      8  C   UNL     1      33.702 -15.601 -21.799  0.00  0.00    +0.047 C 
ATOM      9  H   UNL     1      33.040 -13.886 -20.066  0.00  0.00    +0.147 HD
ENDROOT
BRANCH   2  10
ATOM     10  C   UNL     1      33.421 -11.417 -24.127  0.00  0.00    +0.002 C 
ATOM     11  C   UNL     1      33.623 -10.108 -23.687  0.00  0.00    +0.024 C 
ATOM     12  C   UNL     1      34.181 -11.922 -25.181  0.00  0.00    +0.000 C 
ATOM     13  C   UNL     1      34.585  -9.306 -24.302  0.00  0.00    +0.143 C 
ATOM     14  C   UNL     1      35.143 -11.121 -25.796  0.00  0.00    +0.002 C 
ATOM     15  C   UNL     1      35.345  -9.812 -25.356  0.00  0.00    +0.024 C 
BRANCH  13  18
ATOM     16  O   UNL     1      34.928  -7.762 -22.625  0.00  0.00    -0.126 OA
ATOM     17  O   UNL     1      34.832  -7.048 -24.697  0.00  0.00    -0.126 OA
ATOM     18  N   UNL     1      34.791  -7.975 -23.853  0.00  0.00    +0.058 N 
ENDBRANCH  13  18
ENDBRANCH   2  10
BRANCH   3  20
ATOM     19  O   UNL     1      30.015 -10.322 -22.483  0.00  0.00    -0.245 OA
ATOM     20  C   UNL     1      31.203 -10.383 -22.229  0.00  0.00    +0.339 C 
BRANCH  20  21
ATOM     21  O   UNL     1      32.063  -9.365 -21.983  0.00  0.00    -0.449 OA
BRANCH  21  22
ATOM     22  C   UNL     1      31.463  -8.181 -21.447  0.00  0.00    +0.169 C 
ATOM     23  C   UNL     1      32.254  -7.727 -20.229  0.00  0.00    +0.047 C 
ATOM     24  C   UNL     1      31.417  -7.110 -22.526  0.00  0.00    +0.047 C 
ENDBRANCH  21  22
ENDBRANCH  20  21
ENDBRANCH   3  20
BRANCH   4  26
ATOM     25  O   UNL     1      32.404 -14.421 -25.497  0.00  0.00    -0.245 OA
ATOM     26  C   UNL     1      33.144 -14.476 -24.533  0.00  0.00    +0.342 C 
BRANCH  26  27
ATOM     27  O   UNL     1      34.272 -15.211 -24.381  0.00  0.00    -0.443 OA
BRANCH  27  28
ATOM     28  C   UNL     1      34.539 -16.138 -25.438  0.00  0.00    +0.241 C 
BRANCH  28  29
ATOM     29  C   UNL     1      34.242 -17.543 -24.951  0.00  0.00    +0.190 C 
BRANCH  29  30
ATOM     30  O   UNL     1      35.260 -17.945 -24.042  0.00  0.00    -0.347 OA
ATOM     31  C   UNL     1      34.879 -19.104 -23.314  0.00  0.00    +0.174 C 
ENDBRANCH  29  30
ENDBRANCH  28  29
ENDBRANCH  27  28
ENDBRANCH  26  27
ENDBRANCH   4  26
TORSDOF 10
ENDMDL
