MODEL 1
REMARK VINA RESULT:     -10.9      0.000      0.000
REMARK  Name = 5289162
REMARK  6 active torsions:
REMARK  status: ('A' for Active; 'I' for Inactive)
REMARK    1  A    between atoms: C_1  and  N_8
REMARK    2  A    between atoms: C_2  and  C_20
REMARK    3  A    between atoms: C_5  and  O_23
REMARK    4  A    between atoms: C_9  and  C_13
REMARK    5  A    between atoms: C_20  and  O_21
REMARK    6  A    between atoms: O_23  and  C_26
REMARK                            x       y       z     vdW  Elec       q    Type
REMARK                         _______ _______ _______ _____ _____    ______ ____
ROOT
ATOM      1  C   UNL     1      35.941 -21.067 -19.385  0.00  0.00    +0.057 C 
ATOM      2  C   UNL     1      34.687 -20.917 -19.953  0.00  0.00    +0.092 C 
ATOM      3  C   UNL     1      37.031 -20.346 -19.842  0.00  0.00    +0.018 C 
ATOM      4  C   UNL     1      34.519 -20.021 -21.009  0.00  0.00    +0.046 C 
ATOM      5  C   UNL     1      35.607 -19.287 -21.482  0.00  0.00    +0.160 C 
ATOM      6  C   UNL     1      36.864 -19.450 -20.897  0.00  0.00    +0.040 C 
ENDROOT
BRANCH   1   8
ATOM      7  O   UNL     1      37.326 -20.682 -16.754  0.00  0.00    -0.270 OA
ATOM      8  N   UNL     1      36.134 -21.971 -18.311  0.00  0.00    -0.280 N 
ATOM      9  C   UNL     1      36.792 -21.748 -17.094  0.00  0.00    +0.250 C 
ATOM     10  H   UNL     1      35.759 -22.872 -18.436  0.00  0.00    +0.155 HD
BRANCH   9  13
ATOM     11 CL   UNL     1      34.129 -23.017 -16.219  0.00  0.00    -0.082 Cl
ATOM     12 CL   UNL     1      37.202 -26.412 -13.393  0.00  0.00    -0.082 Cl
ATOM     13  C   UNL     1      36.854 -22.889 -16.190  0.00  0.00    +0.064 C 
ATOM     14  C   UNL     1      35.704 -23.535 -15.735  0.00  0.00    +0.063 C 
ATOM     15  C   UNL     1      38.112 -23.333 -15.781  0.00  0.00    +0.006 C 
ATOM     16  C   UNL     1      35.812 -24.625 -14.870  0.00  0.00    +0.023 C 
ATOM     17  C   UNL     1      38.219 -24.423 -14.917  0.00  0.00    +0.012 C 
ATOM     18  C   UNL     1      37.070 -25.069 -14.462  0.00  0.00    +0.059 C 
ENDBRANCH   9  13
ENDBRANCH   1   8
BRANCH   2  20
ATOM     19  O   UNL     1      32.480 -21.172 -19.066  0.00  0.00    -0.245 OA
ATOM     20  C   UNL     1      33.530 -21.668 -19.485  0.00  0.00    +0.339 C 
BRANCH  20  21
ATOM     21  O   UNL     1      33.720 -23.013 -19.558  0.00  0.00    -0.477 OA
ATOM     22  H   UNL     1      33.720 -23.528 -18.775  0.00  0.00    +0.295 HD
ENDBRANCH  20  21
ENDBRANCH   2  20
BRANCH   5  23
ATOM     23  O   UNL     1      35.443 -18.412 -22.511  0.00  0.00    -0.392 OA
BRANCH  23  26
ATOM     24  N   UNL     1      34.852 -16.296 -23.242  0.00  0.00    -0.162 NA
ATOM     25  N   UNL     1      34.962 -16.827 -20.893  0.00  0.00    -0.185 NA
ATOM     26  C   UNL     1      35.068 -17.116 -22.201  0.00  0.00    +0.196 C 
ATOM     27  C   UNL     1      34.489 -15.042 -22.904  0.00  0.00    +0.110 C 
ATOM     28  C   UNL     1      34.595 -15.556 -20.628  0.00  0.00    +0.167 C 
ATOM     29  C   UNL     1      34.343 -14.610 -21.601  0.00  0.00    +0.022 C 
ENDBRANCH  23  26
ENDBRANCH   5  23
TORSDOF 6
ENDMDL
MODEL 2
REMARK VINA RESULT:     -10.9      5.237     10.531
REMARK  Name = 5289162
REMARK  6 active torsions:
REMARK  status: ('A' for Active; 'I' for Inactive)
REMARK    1  A    between atoms: C_1  and  N_8
REMARK    2  A    between atoms: C_2  and  C_20
REMARK    3  A    between atoms: C_5  and  O_23
REMARK    4  A    between atoms: C_9  and  C_13
REMARK    5  A    between atoms: C_20  and  O_21
REMARK    6  A    between atoms: O_23  and  C_26
REMARK                            x       y       z     vdW  Elec       q    Type
REMARK                         _______ _______ _______ _____ _____    ______ ____
ROOT
ATOM      1  C   UNL     1      34.494 -15.544 -22.521  0.00  0.00    +0.057 C 
ATOM      2  C   UNL     1      34.509 -16.419 -23.594  0.00  0.00    +0.092 C 
ATOM      3  C   UNL     1      34.842 -15.960 -21.246  0.00  0.00    +0.018 C 
ATOM      4  C   UNL     1      34.881 -17.748 -23.388  0.00  0.00    +0.046 C 
ATOM      5  C   UNL     1      35.233 -18.182 -22.110  0.00  0.00    +0.160 C 
ATOM      6  C   UNL     1      35.214 -17.288 -21.039  0.00  0.00    +0.040 C 
ENDROOT
BRANCH   1   8
ATOM      7  O   UNL     1      31.895 -14.158 -21.963  0.00  0.00    -0.270 OA
ATOM      8  N   UNL     1      34.120 -14.190 -22.708  0.00  0.00    -0.280 N 
ATOM      9  C   UNL     1      32.888 -13.583 -22.433  0.00  0.00    +0.250 C 
ATOM     10  H   UNL     1      34.815 -13.601 -23.081  0.00  0.00    +0.155 HD
BRANCH   9  13
ATOM     11 CL   UNL     1      31.162 -11.813 -20.603  0.00  0.00    -0.082 Cl
ATOM     12 CL   UNL     1      32.595  -7.804 -23.893  0.00  0.00    -0.082 Cl
ATOM     13  C   UNL     1      32.794 -12.166 -22.760  0.00  0.00    +0.064 C 
ATOM     14  C   UNL     1      32.037 -11.280 -21.994  0.00  0.00    +0.063 C 
ATOM     15  C   UNL     1      33.490 -11.703 -23.877  0.00  0.00    +0.006 C 
ATOM     16  C   UNL     1      31.976  -9.930 -22.344  0.00  0.00    +0.023 C 
ATOM     17  C   UNL     1      33.428 -10.354 -24.227  0.00  0.00    +0.012 C 
ATOM     18  C   UNL     1      32.673  -9.468 -23.461  0.00  0.00    +0.059 C 
ENDBRANCH   9  13
ENDBRANCH   1   8
BRANCH   2  20
ATOM     19  O   UNL     1      33.295 -15.147 -25.217  0.00  0.00    -0.245 OA
ATOM     20  C   UNL     1      34.146 -15.998 -24.941  0.00  0.00    +0.339 C 
BRANCH  20  21
ATOM     21  O   UNL     1      34.858 -16.651 -25.898  0.00  0.00    -0.477 OA
ATOM     22  H   UNL     1      35.567 -17.212 -25.652  0.00  0.00    +0.295 HD
ENDBRANCH  20  21
ENDBRANCH   2  20
BRANCH   5  23
ATOM     23  O   UNL     1      35.598 -19.477 -21.908  0.00  0.00    -0.392 OA
BRANCH  23  26
ATOM     24  N   UNL     1      33.558 -20.014 -20.951  0.00  0.00    -0.162 NA
ATOM     25  N   UNL     1      35.607 -21.029 -20.190  0.00  0.00    -0.185 NA
ATOM     26  C   UNL     1      34.886 -20.209 -20.971  0.00  0.00    +0.196 C 
ATOM     27  C   UNL     1      32.897 -20.741 -20.027  0.00  0.00    +0.110 C 
ATOM     28  C   UNL     1      34.883 -21.726 -19.289  0.00  0.00    +0.167 C 
ATOM     29  C   UNL     1      33.513 -21.622 -19.161  0.00  0.00    +0.022 C 
ENDBRANCH  23  26
ENDBRANCH   5  23
TORSDOF 6
ENDMDL
MODEL 3
REMARK VINA RESULT:     -10.8      5.585     10.784
REMARK  Name = 5289162
REMARK  6 active torsions:
REMARK  status: ('A' for Active; 'I' for Inactive)
REMARK    1  A    between atoms: C_1  and  N_8
REMARK    2  A    between atoms: C_2  and  C_20
REMARK    3  A    between atoms: C_5  and  O_23
REMARK    4  A    between atoms: C_9  and  C_13
REMARK    5  A    between atoms: C_20  and  O_21
REMARK    6  A    between atoms: O_23  and  C_26
REMARK                            x       y       z     vdW  Elec       q    Type
REMARK                         _______ _______ _______ _____ _____    ______ ____
ROOT
ATOM      1  C   UNL     1      34.577 -15.293 -23.169  0.00  0.00    +0.057 C 
ATOM      2  C   UNL     1      34.462 -15.902 -21.931  0.00  0.00    +0.092 C 
ATOM      3  C   UNL     1      34.807 -16.031 -24.318  0.00  0.00    +0.018 C 
ATOM      4  C   UNL     1      34.582 -17.289 -21.838  0.00  0.00    +0.046 C 
ATOM      5  C   UNL     1      34.814 -18.047 -22.986  0.00  0.00    +0.160 C 
ATOM      6  C   UNL     1      34.927 -17.417 -24.227  0.00  0.00    +0.040 C 
ENDROOT
BRANCH   1   8
ATOM      7  O   UNL     1      32.672 -13.637 -24.788  0.00  0.00    -0.270 OA
ATOM      8  N   UNL     1      34.458 -13.885 -23.286  0.00  0.00    -0.280 N 
ATOM      9  C   UNL     1      33.549 -13.151 -24.058  0.00  0.00    +0.250 C 
ATOM     10  H   UNL     1      35.097 -13.356 -22.757  0.00  0.00    +0.155 HD
BRANCH   9  13
ATOM     11 CL   UNL     1      31.660 -11.620 -22.175  0.00  0.00    -0.082 Cl
ATOM     12 CL   UNL     1      34.244  -7.226 -23.898  0.00  0.00    -0.082 Cl
ATOM     13  C   UNL     1      33.691 -11.702 -23.994  0.00  0.00    +0.064 C 
ATOM     14  C   UNL     1      32.883 -10.917 -23.172  0.00  0.00    +0.063 C 
ATOM     15  C   UNL     1      34.670 -11.103 -24.787  0.00  0.00    +0.006 C 
ATOM     16  C   UNL     1      33.055  -9.532 -23.142  0.00  0.00    +0.023 C 
ATOM     17  C   UNL     1      34.841  -9.719 -24.757  0.00  0.00    +0.012 C 
ATOM     18  C   UNL     1      34.034  -8.934 -23.934  0.00  0.00    +0.059 C 
ENDBRANCH   9  13
ENDBRANCH   1   8
BRANCH   2  20
ATOM     19  O   UNL     1      33.440 -14.191 -20.609  0.00  0.00    -0.245 OA
ATOM     20  C   UNL     1      34.220 -15.140 -20.713  0.00  0.00    +0.339 C 
BRANCH  20  21
ATOM     21  O   UNL     1      34.960 -15.591 -19.664  0.00  0.00    -0.477 OA
ATOM     22  H   UNL     1      34.582 -15.630 -18.807  0.00  0.00    +0.295 HD
ENDBRANCH  20  21
ENDBRANCH   2  20
BRANCH   5  23
ATOM     23  O   UNL     1      34.930 -19.400 -22.897  0.00  0.00    -0.392 OA
BRANCH  23  26
ATOM     24  N   UNL     1      33.279 -19.983 -21.382  0.00  0.00    -0.162 NA
ATOM     25  N   UNL     1      35.593 -20.526 -20.986  0.00  0.00    -0.185 NA
ATOM     26  C   UNL     1      34.584 -19.998 -21.697  0.00  0.00    +0.196 C 
ATOM     27  C   UNL     1      32.977 -20.574 -20.207  0.00  0.00    +0.110 C 
ATOM     28  C   UNL     1      35.221 -21.101 -19.823  0.00  0.00    +0.167 C 
ATOM     29  C   UNL     1      33.915 -21.155 -19.378  0.00  0.00    +0.022 C 
ENDBRANCH  23  26
ENDBRANCH   5  23
TORSDOF 6
ENDMDL
MODEL 4
REMARK VINA RESULT:     -10.5      3.747      9.039
REMARK  Name = 5289162
REMARK  6 active torsions:
REMARK  status: ('A' for Active; 'I' for Inactive)
REMARK    1  A    between atoms: C_1  and  N_8
REMARK    2  A    between atoms: C_2  and  C_20
REMARK    3  A    between atoms: C_5  and  O_23
REMARK    4  A    between atoms: C_9  and  C_13
REMARK    5  A    between atoms: C_20  and  O_21
REMARK    6  A    between atoms: O_23  and  C_26
REMARK                            x       y       z     vdW  Elec       q    Type
REMARK                         _______ _______ _______ _____ _____    ______ ____
ROOT
ATOM      1  C   UNL     1      34.230 -19.085 -21.036  0.00  0.00    +0.057 C 
ATOM      2  C   UNL     1      35.475 -19.690 -20.997  0.00  0.00    +0.092 C 
ATOM      3  C   UNL     1      33.117 -19.688 -20.476  0.00  0.00    +0.018 C 
ATOM      4  C   UNL     1      35.611 -20.935 -20.381  0.00  0.00    +0.046 C 
ATOM      5  C   UNL     1      34.499 -21.555 -19.812  0.00  0.00    +0.160 C 
ATOM      6  C   UNL     1      33.252 -20.932 -19.859  0.00  0.00    +0.040 C 
ENDROOT
BRANCH   1   8
ATOM      7  O   UNL     1      35.010 -16.349 -20.090  0.00  0.00    -0.270 OA
ATOM      8  N   UNL     1      34.070 -17.821 -21.658  0.00  0.00    -0.280 N 
ATOM      9  C   UNL     1      34.451 -16.562 -21.176  0.00  0.00    +0.250 C 
ATOM     10  H   UNL     1      33.635 -17.829 -22.540  0.00  0.00    +0.155 HD
BRANCH   9  13
ATOM     11 CL   UNL     1      32.502 -14.452 -20.076  0.00  0.00    -0.082 Cl
ATOM     12 CL   UNL     1      33.216 -11.989 -24.806  0.00  0.00    -0.082 Cl
ATOM     13  C   UNL     1      34.126 -15.431 -22.036  0.00  0.00    +0.064 C 
ATOM     14  C   UNL     1      33.254 -14.421 -21.631  0.00  0.00    +0.063 C 
ATOM     15  C   UNL     1      34.718 -15.377 -23.299  0.00  0.00    +0.006 C 
ATOM     16  C   UNL     1      32.973 -13.356 -22.488  0.00  0.00    +0.023 C 
ATOM     17  C   UNL     1      34.437 -14.312 -24.154  0.00  0.00    +0.012 C 
ATOM     18  C   UNL     1      33.565 -13.302 -23.749  0.00  0.00    +0.059 C 
ENDBRANCH   9  13
ENDBRANCH   1   8
BRANCH   2  20
ATOM     19  O   UNL     1      37.770 -19.015 -21.053  0.00  0.00    -0.245 OA
ATOM     20  C   UNL     1      36.657 -19.070 -21.583  0.00  0.00    +0.339 C 
BRANCH  20  21
ATOM     21  O   UNL     1      36.409 -18.540 -22.811  0.00  0.00    -0.477 OA
ATOM     22  H   UNL     1      36.114 -17.654 -22.887  0.00  0.00    +0.295 HD
ENDBRANCH  20  21
ENDBRANCH   2  20
BRANCH   5  23
ATOM     23  O   UNL     1      34.631 -22.768 -19.209  0.00  0.00    -0.392 OA
BRANCH  23  26
ATOM     24  N   UNL     1      36.004 -22.405 -17.380  0.00  0.00    -0.162 NA
ATOM     25  N   UNL     1      33.742 -23.193 -17.113  0.00  0.00    -0.185 NA
ATOM     26  C   UNL     1      34.801 -22.790 -17.835  0.00  0.00    +0.196 C 
ATOM     27  C   UNL     1      36.135 -22.438 -16.038  0.00  0.00    +0.110 C 
ATOM     28  C   UNL     1      33.942 -23.202 -15.779  0.00  0.00    +0.167 C 
ATOM     29  C   UNL     1      35.129 -22.832 -15.179  0.00  0.00    +0.022 C 
ENDBRANCH  23  26
ENDBRANCH   5  23
TORSDOF 6
ENDMDL
MODEL 5
REMARK VINA RESULT:     -10.5      1.914      2.586
REMARK  Name = 5289162
REMARK  6 active torsions:
REMARK  status: ('A' for Active; 'I' for Inactive)
REMARK    1  A    between atoms: C_1  and  N_8
REMARK    2  A    between atoms: C_2  and  C_20
REMARK    3  A    between atoms: C_5  and  O_23
REMARK    4  A    between atoms: C_9  and  C_13
REMARK    5  A    between atoms: C_20  and  O_21
REMARK    6  A    between atoms: O_23  and  C_26
REMARK                            x       y       z     vdW  Elec       q    Type
REMARK                         _______ _______ _______ _____ _____    ______ ____
ROOT
ATOM      1  C   UNL     1      35.496 -19.779 -20.670  0.00  0.00    +0.057 C 
ATOM      2  C   UNL     1      34.262 -19.647 -21.285  0.00  0.00    +0.092 C 
ATOM      3  C   UNL     1      36.650 -19.282 -21.253  0.00  0.00    +0.018 C 
ATOM      4  C   UNL     1      34.179 -18.998 -22.518  0.00  0.00    +0.046 C 
ATOM      5  C   UNL     1      35.332 -18.492 -23.118  0.00  0.00    +0.160 C 
ATOM      6  C   UNL     1      36.568 -18.633 -22.485  0.00  0.00    +0.040 C 
ENDROOT
BRANCH   1   8
ATOM      7  O   UNL     1      35.612 -22.703 -20.017  0.00  0.00    -0.270 OA
ATOM      8  N   UNL     1      35.603 -20.434 -19.418  0.00  0.00    -0.280 N 
ATOM      9  C   UNL     1      35.653 -21.809 -19.158  0.00  0.00    +0.250 C 
ATOM     10  H   UNL     1      35.647 -19.847 -18.629  0.00  0.00    +0.155 HD
BRANCH   9  13
ATOM     11 CL   UNL     1      33.148 -23.037 -17.863  0.00  0.00    -0.082 Cl
ATOM     12 CL   UNL     1      36.142 -23.301 -13.400  0.00  0.00    -0.082 Cl
ATOM     13  C   UNL     1      35.737 -22.185 -17.753  0.00  0.00    +0.064 C 
ATOM     14  C   UNL     1      34.657 -22.749 -17.074  0.00  0.00    +0.063 C 
ATOM     15  C   UNL     1      36.943 -21.967 -17.086  0.00  0.00    +0.006 C 
ATOM     16  C   UNL     1      34.782 -23.095 -15.727  0.00  0.00    +0.023 C 
ATOM     17  C   UNL     1      37.068 -22.313 -15.740  0.00  0.00    +0.012 C 
ATOM     18  C   UNL     1      35.988 -22.877 -15.062  0.00  0.00    +0.059 C 
ENDBRANCH   9  13
ENDBRANCH   1   8
BRANCH   2  20
ATOM     19  O   UNL     1      32.783 -21.359 -20.508  0.00  0.00    -0.245 OA
ATOM     20  C   UNL     1      33.039 -20.165 -20.686  0.00  0.00    +0.339 C 
BRANCH  20  21
ATOM     21  O   UNL     1      32.178 -19.175 -20.327  0.00  0.00    -0.477 OA
ATOM     22  H   UNL     1      32.176 -18.854 -19.446  0.00  0.00    +0.295 HD
ENDBRANCH  20  21
ENDBRANCH   2  20
BRANCH   5  23
ATOM     23  O   UNL     1      35.252 -17.858 -24.319  0.00  0.00    -0.392 OA
BRANCH  23  26
ATOM     24  N   UNL     1      34.869 -15.815 -23.298  0.00  0.00    -0.162 NA
ATOM     25  N   UNL     1      33.895 -16.351 -25.437  0.00  0.00    -0.185 NA
ATOM     26  C   UNL     1      34.643 -16.615 -24.353  0.00  0.00    +0.196 C 
ATOM     27  C   UNL     1      34.260 -14.613 -23.363  0.00  0.00    +0.110 C 
ATOM     28  C   UNL     1      33.316 -15.132 -25.436  0.00  0.00    +0.167 C 
ATOM     29  C   UNL     1      33.465 -14.213 -24.418  0.00  0.00    +0.022 C 
ENDBRANCH  23  26
ENDBRANCH   5  23
TORSDOF 6
ENDMDL
MODEL 6
REMARK VINA RESULT:     -10.4      4.010      6.892
REMARK  Name = 5289162
REMARK  6 active torsions:
REMARK  status: ('A' for Active; 'I' for Inactive)
REMARK    1  A    between atoms: C_1  and  N_8
REMARK    2  A    between atoms: C_2  and  C_20
REMARK    3  A    between atoms: C_5  and  O_23
REMARK    4  A    between atoms: C_9  and  C_13
REMARK    5  A    between atoms: C_20  and  O_21
REMARK    6  A    between atoms: O_23  and  C_26
REMARK                            x       y       z     vdW  Elec       q    Type
REMARK                         _______ _______ _______ _____ _____    ______ ____
ROOT
ATOM      1  C   UNL     1      33.955 -15.964 -23.008  0.00  0.00    +0.057 C 
ATOM      2  C   UNL     1      33.852 -14.709 -22.430  0.00  0.00    +0.092 C 
ATOM      3  C   UNL     1      33.896 -16.133 -24.381  0.00  0.00    +0.018 C 
ATOM      4  C   UNL     1      33.684 -13.592 -23.249  0.00  0.00    +0.046 C 
ATOM      5  C   UNL     1      33.622 -13.746 -24.634  0.00  0.00    +0.160 C 
ATOM      6  C   UNL     1      33.729 -15.017 -25.200  0.00  0.00    +0.040 C 
ENDROOT
BRANCH   1   8
ATOM      7  O   UNL     1      35.198 -18.618 -23.641  0.00  0.00    -0.270 OA
ATOM      8  N   UNL     1      34.126 -17.112 -22.195  0.00  0.00    -0.280 N 
ATOM      9  C   UNL     1      34.714 -18.337 -22.534  0.00  0.00    +0.250 C 
ATOM     10  H   UNL     1      33.786 -17.040 -21.274  0.00  0.00    +0.155 HD
BRANCH   9  13
ATOM     11 CL   UNL     1      37.435 -19.126 -21.336  0.00  0.00    -0.082 Cl
ATOM     12 CL   UNL     1      34.585 -22.486 -18.247  0.00  0.00    -0.082 Cl
ATOM     13  C   UNL     1      34.720 -19.348 -21.485  0.00  0.00    +0.064 C 
ATOM     14  C   UNL     1      35.901 -19.775 -20.877  0.00  0.00    +0.063 C 
ATOM     15  C   UNL     1      33.497 -19.891 -21.090  0.00  0.00    +0.006 C 
ATOM     16  C   UNL     1      35.859 -20.745 -19.875  0.00  0.00    +0.023 C 
ATOM     17  C   UNL     1      33.456 -20.861 -20.089  0.00  0.00    +0.012 C 
ATOM     18  C   UNL     1      34.636 -21.288 -19.481  0.00  0.00    +0.059 C 
ENDBRANCH   9  13
ENDBRANCH   1   8
BRANCH   2  20
ATOM     19  O   UNL     1      34.830 -14.889 -20.255  0.00  0.00    -0.245 OA
ATOM     20  C   UNL     1      33.911 -14.514 -20.987  0.00  0.00    +0.339 C 
BRANCH  20  21
ATOM     21  O   UNL     1      32.822 -13.855 -20.508  0.00  0.00    -0.477 OA
ATOM     22  H   UNL     1      32.726 -13.719 -19.586  0.00  0.00    +0.295 HD
ENDBRANCH  20  21
ENDBRANCH   2  20
BRANCH   5  23
ATOM     23  O   UNL     1      33.460 -12.656 -25.433  0.00  0.00    -0.392 OA
BRANCH  23  26
ATOM     24  N   UNL     1      34.988 -10.915 -25.421  0.00  0.00    -0.162 NA
ATOM     25  N   UNL     1      33.034 -10.881 -24.009  0.00  0.00    -0.185 NA
ATOM     26  C   UNL     1      33.846 -11.425 -24.930  0.00  0.00    +0.196 C 
ATOM     27  C   UNL     1      35.333  -9.716 -24.909  0.00  0.00    +0.110 C 
ATOM     28  C   UNL     1      33.440  -9.682 -23.541  0.00  0.00    +0.167 C 
ATOM     29  C   UNL     1      34.591  -9.045 -23.958  0.00  0.00    +0.022 C 
ENDBRANCH  23  26
ENDBRANCH   5  23
TORSDOF 6
ENDMDL
MODEL 7
REMARK VINA RESULT:     -10.3      6.085     11.534
REMARK  Name = 5289162
REMARK  6 active torsions:
REMARK  status: ('A' for Active; 'I' for Inactive)
REMARK    1  A    between atoms: C_1  and  N_8
REMARK    2  A    between atoms: C_2  and  C_20
REMARK    3  A    between atoms: C_5  and  O_23
REMARK    4  A    between atoms: C_9  and  C_13
REMARK    5  A    between atoms: C_20  and  O_21
REMARK    6  A    between atoms: O_23  and  C_26
REMARK                            x       y       z     vdW  Elec       q    Type
REMARK                         _______ _______ _______ _____ _____    ______ ____
ROOT
ATOM      1  C   UNL     1      33.873 -13.855 -23.334  0.00  0.00    +0.057 C 
ATOM      2  C   UNL     1      33.671 -14.470 -24.558  0.00  0.00    +0.092 C 
ATOM      3  C   UNL     1      34.406 -14.547 -22.259  0.00  0.00    +0.018 C 
ATOM      4  C   UNL     1      34.010 -15.815 -24.712  0.00  0.00    +0.046 C 
ATOM      5  C   UNL     1      34.548 -16.525 -23.638  0.00  0.00    +0.160 C 
ATOM      6  C   UNL     1      34.746 -15.890 -22.411  0.00  0.00    +0.040 C 
ENDROOT
BRANCH   1   8
ATOM      7  O   UNL     1      31.478 -12.606 -22.035  0.00  0.00    -0.270 OA
ATOM      8  N   UNL     1      33.535 -12.490 -23.156  0.00  0.00    -0.280 N 
ATOM      9  C   UNL     1      32.400 -11.949 -22.541  0.00  0.00    +0.250 C 
ATOM     10  H   UNL     1      34.182 -11.839 -23.512  0.00  0.00    +0.155 HD
BRANCH   9  13
ATOM     11 CL   UNL     1      31.643 -10.581 -19.892  0.00  0.00    -0.082 Cl
ATOM     12 CL   UNL     1      32.097  -5.990 -22.663  0.00  0.00    -0.082 Cl
ATOM     13  C   UNL     1      32.316 -10.494 -22.534  0.00  0.00    +0.064 C 
ATOM     14  C   UNL     1      31.981  -9.779 -21.385  0.00  0.00    +0.063 C 
ATOM     15  C   UNL     1      32.584  -9.817 -23.724  0.00  0.00    +0.006 C 
ATOM     16  C   UNL     1      31.914  -8.386 -21.424  0.00  0.00    +0.023 C 
ATOM     17  C   UNL     1      32.517  -8.424 -23.763  0.00  0.00    +0.012 C 
ATOM     18  C   UNL     1      32.183  -7.709 -22.614  0.00  0.00    +0.059 C 
ENDBRANCH   9  13
ENDBRANCH   1   8
BRANCH   2  20
ATOM     19  O   UNL     1      33.408 -12.610 -26.039  0.00  0.00    -0.245 OA
ATOM     20  C   UNL     1      33.111 -13.758 -25.699  0.00  0.00    +0.339 C 
BRANCH  20  21
ATOM     21  O   UNL     1      32.200 -14.504 -26.380  0.00  0.00    -0.477 OA
ATOM     22  H   UNL     1      32.276 -14.602 -27.309  0.00  0.00    +0.295 HD
ENDBRANCH  20  21
ENDBRANCH   2  20
BRANCH   5  23
ATOM     23  O   UNL     1      34.881 -17.836 -23.787  0.00  0.00    -0.392 OA
BRANCH  23  26
ATOM     24  N   UNL     1      36.405 -18.508 -22.179  0.00  0.00    -0.162 NA
ATOM     25  N   UNL     1      34.115 -19.255 -22.126  0.00  0.00    -0.185 NA
ATOM     26  C   UNL     1      35.147 -18.568 -22.642  0.00  0.00    +0.196 C 
ATOM     27  C   UNL     1      36.629 -19.232 -21.063  0.00  0.00    +0.110 C 
ATOM     28  C   UNL     1      34.409 -19.957 -21.011  0.00  0.00    +0.167 C 
ATOM     29  C   UNL     1      35.660 -19.983 -20.430  0.00  0.00    +0.022 C 
ENDBRANCH  23  26
ENDBRANCH   5  23
TORSDOF 6
ENDMDL
MODEL 8
REMARK VINA RESULT:     -10.3      2.284      3.632
REMARK  Name = 5289162
REMARK  6 active torsions:
REMARK  status: ('A' for Active; 'I' for Inactive)
REMARK    1  A    between atoms: C_1  and  N_8
REMARK    2  A    between atoms: C_2  and  C_20
REMARK    3  A    between atoms: C_5  and  O_23
REMARK    4  A    between atoms: C_9  and  C_13
REMARK    5  A    between atoms: C_20  and  O_21
REMARK    6  A    between atoms: O_23  and  C_26
REMARK                            x       y       z     vdW  Elec       q    Type
REMARK                         _______ _______ _______ _____ _____    ______ ____
ROOT
ATOM      1  C   UNL     1      34.173 -20.538 -20.083  0.00  0.00    +0.057 C 
ATOM      2  C   UNL     1      35.523 -20.403 -20.359  0.00  0.00    +0.092 C 
ATOM      3  C   UNL     1      33.207 -20.024 -20.932  0.00  0.00    +0.018 C 
ATOM      4  C   UNL     1      35.919 -19.734 -21.518  0.00  0.00    +0.046 C 
ATOM      5  C   UNL     1      34.959 -19.210 -22.383  0.00  0.00    +0.160 C 
ATOM      6  C   UNL     1      33.603 -19.356 -22.090  0.00  0.00    +0.040 C 
ENDROOT
BRANCH   1   8
ATOM      7  O   UNL     1      34.011 -23.473 -19.490  0.00  0.00    -0.270 OA
ATOM      8  N   UNL     1      33.749 -21.214 -18.911  0.00  0.00    -0.280 N 
ATOM      9  C   UNL     1      33.688 -22.593 -18.678  0.00  0.00    +0.250 C 
ATOM     10  H   UNL     1      33.458 -20.640 -18.167  0.00  0.00    +0.155 HD
BRANCH   9  13
ATOM     11 CL   UNL     1      35.740 -23.093 -16.441  0.00  0.00    -0.082 Cl
ATOM     12 CL   UNL     1      31.455 -24.219 -13.388  0.00  0.00    -0.082 Cl
ATOM     13  C   UNL     1      33.178 -22.992 -17.372  0.00  0.00    +0.064 C 
ATOM     14  C   UNL     1      34.026 -23.243 -16.293  0.00  0.00    +0.063 C 
ATOM     15  C   UNL     1      31.797 -23.121 -17.219  0.00  0.00    +0.006 C 
ATOM     16  C   UNL     1      33.492 -23.622 -15.060  0.00  0.00    +0.023 C 
ATOM     17  C   UNL     1      31.265 -23.500 -15.987  0.00  0.00    +0.012 C 
ATOM     18  C   UNL     1      32.112 -23.750 -14.908  0.00  0.00    +0.059 C 
ENDBRANCH   9  13
ENDBRANCH   1   8
BRANCH   2  20
ATOM     19  O   UNL     1      36.807 -20.518 -18.344  0.00  0.00    -0.245 OA
ATOM     20  C   UNL     1      36.552 -20.937 -19.476  0.00  0.00    +0.339 C 
BRANCH  20  21
ATOM     21  O   UNL     1      37.226 -21.977 -20.036  0.00  0.00    -0.477 OA
ATOM     22  H   UNL     1      38.003 -21.817 -20.534  0.00  0.00    +0.295 HD
ENDBRANCH  20  21
ENDBRANCH   2  20
BRANCH   5  23
ATOM     23  O   UNL     1      35.345 -18.559 -23.514  0.00  0.00    -0.392 OA
BRANCH  23  26
ATOM     24  N   UNL     1      35.057 -16.405 -22.715  0.00  0.00    -0.162 NA
ATOM     25  N   UNL     1      34.253 -17.052 -24.892  0.00  0.00    -0.185 NA
ATOM     26  C   UNL     1      34.862 -17.277 -23.717  0.00  0.00    +0.196 C 
ATOM     27  C   UNL     1      34.575 -15.166 -22.944  0.00  0.00    +0.110 C 
ATOM     28  C   UNL     1      33.795 -15.793 -25.056  0.00  0.00    +0.167 C 
ATOM     29  C   UNL     1      33.928 -14.799 -24.108  0.00  0.00    +0.022 C 
ENDBRANCH  23  26
ENDBRANCH   5  23
TORSDOF 6
ENDMDL
MODEL 9
REMARK VINA RESULT:     -10.3      6.874     10.292
REMARK  Name = 5289162
REMARK  6 active torsions:
REMARK  status: ('A' for Active; 'I' for Inactive)
REMARK    1  A    between atoms: C_1  and  N_8
REMARK    2  A    between atoms: C_2  and  C_20
REMARK    3  A    between atoms: C_5  and  O_23
REMARK    4  A    between atoms: C_9  and  C_13
REMARK    5  A    between atoms: C_20  and  O_21
REMARK    6  A    between atoms: O_23  and  C_26
REMARK                            x       y       z     vdW  Elec       q    Type
REMARK                         _______ _______ _______ _____ _____    ______ ____
ROOT
ATOM      1  C   UNL     1      32.723 -12.847 -22.817  0.00  0.00    +0.057 C 
ATOM      2  C   UNL     1      33.089 -11.768 -23.605  0.00  0.00    +0.092 C 
ATOM      3  C   UNL     1      31.960 -12.679 -21.674  0.00  0.00    +0.018 C 
ATOM      4  C   UNL     1      32.681 -10.485 -23.238  0.00  0.00    +0.046 C 
ATOM      5  C   UNL     1      31.913 -10.300 -22.089  0.00  0.00    +0.160 C 
ATOM      6  C   UNL     1      31.552 -11.398 -21.307  0.00  0.00    +0.040 C 
ENDROOT
BRANCH   1   8
ATOM      7  O   UNL     1      35.081 -14.461 -21.909  0.00  0.00    -0.270 OA
ATOM      8  N   UNL     1      33.126 -14.159 -23.171  0.00  0.00    -0.280 N 
ATOM      9  C   UNL     1      34.241 -14.877 -22.721  0.00  0.00    +0.250 C 
ATOM     10  H   UNL     1      32.549 -14.625 -23.818  0.00  0.00    +0.155 HD
BRANCH   9  13
ATOM     11 CL   UNL     1      35.022 -17.155 -20.807  0.00  0.00    -0.082 Cl
ATOM     12 CL   UNL     1      34.896 -20.269 -25.193  0.00  0.00    -0.082 Cl
ATOM     13  C   UNL     1      34.410 -16.207 -23.290  0.00  0.00    +0.064 C 
ATOM     14  C   UNL     1      34.762 -17.306 -22.508  0.00  0.00    +0.063 C 
ATOM     15  C   UNL     1      34.206 -16.364 -24.662  0.00  0.00    +0.006 C 
ATOM     16  C   UNL     1      34.912 -18.563 -23.096  0.00  0.00    +0.023 C 
ATOM     17  C   UNL     1      34.356 -17.620 -25.249  0.00  0.00    +0.012 C 
ATOM     18  C   UNL     1      34.708 -18.719 -24.467  0.00  0.00    +0.059 C 
ENDBRANCH   9  13
ENDBRANCH   1   8
BRANCH   2  20
ATOM     19  O   UNL     1      33.659 -12.725 -25.722  0.00  0.00    -0.245 OA
ATOM     20  C   UNL     1      33.892 -11.927 -24.811  0.00  0.00    +0.339 C 
BRANCH  20  21
ATOM     21  O   UNL     1      34.958 -11.082 -24.839  0.00  0.00    -0.477 OA
ATOM     22  H   UNL     1      34.963 -10.318 -24.297  0.00  0.00    +0.295 HD
ENDBRANCH  20  21
ENDBRANCH   2  20
BRANCH   5  23
ATOM     23  O   UNL     1      31.514  -9.049 -21.732  0.00  0.00    -0.392 OA
BRANCH  23  26
ATOM     24  N   UNL     1      30.743  -7.824 -23.540  0.00  0.00    -0.162 NA
ATOM     25  N   UNL     1      32.871  -7.344 -22.515  0.00  0.00    -0.185 NA
ATOM     26  C   UNL     1      31.719  -8.023 -22.639  0.00  0.00    +0.196 C 
ATOM     27  C   UNL     1      30.975  -6.818 -24.408  0.00  0.00    +0.110 C 
ATOM     28  C   UNL     1      33.038  -6.352 -23.414  0.00  0.00    +0.167 C 
ATOM     29  C   UNL     1      32.116  -6.041 -24.393  0.00  0.00    +0.022 C 
ENDBRANCH  23  26
ENDBRANCH   5  23
TORSDOF 6
ENDMDL
