MODEL 1
REMARK VINA RESULT:      -9.5      0.000      0.000
REMARK  Name = 72474
REMARK  4 active torsions:
REMARK  status: ('A' for Active; 'I' for Inactive)
REMARK    1  A    between atoms: N_3  and  C_23
REMARK    2  A    between atoms: C_7  and  N_14
REMARK    3  A    between atoms: C_10  and  C_27
REMARK    4  A    between atoms: C_27  and  O_28
REMARK                            x       y       z     vdW  Elec       q    Type
REMARK                         _______ _______ _______ _____ _____    ______ ____
ROOT
ATOM      1  F   UNL     1      35.296 -20.505 -23.405  0.00  0.00    -0.203 F 
ATOM      2  O   UNL     1      34.006 -16.365 -26.050  0.00  0.00    -0.286 OA
ATOM      3  N   UNL     1      33.750 -15.289 -22.126  0.00  0.00    -0.287 N 
ATOM      4  C   UNL     1      34.146 -16.625 -22.425  0.00  0.00    +0.056 C 
ATOM      5  C   UNL     1      33.468 -14.414 -23.158  0.00  0.00    +0.075 C 
ATOM      6  C   UNL     1      34.247 -17.035 -23.772  0.00  0.00    +0.051 C 
ATOM      7  C   UNL     1      34.832 -18.868 -21.761  0.00  0.00    +0.076 C 
ATOM      8  C   UNL     1      34.447 -17.566 -21.427  0.00  0.00    +0.032 C 
ATOM      9  C   UNL     1      34.634 -18.339 -24.104  0.00  0.00    +0.011 C 
ATOM     10  C   UNL     1      33.533 -14.701 -24.464  0.00  0.00    +0.129 C 
ATOM     11  C   UNL     1      33.939 -16.072 -24.862  0.00  0.00    +0.204 C 
ATOM     12  C   UNL     1      34.926 -19.252 -23.095  0.00  0.00    +0.149 C 
ATOM     13  C   UNL     1      34.759 -18.837 -25.509  0.00  0.00    +0.034 C 
ENDROOT
BRANCH   7  14
ATOM     14  N   UNL     1      35.125 -19.785 -20.745  0.00  0.00    -0.310 N 
ATOM     15  N   UNL     1      35.718 -21.829 -18.846  0.00  0.00    +0.387 N 
ATOM     16  C   UNL     1      34.114 -20.804 -20.422  0.00  0.00    +0.069 C 
ATOM     17  C   UNL     1      34.340 -21.351 -19.005  0.00  0.00    -0.042 C 
ATOM     18  C   UNL     1      36.517 -20.169 -20.492  0.00  0.00    +0.068 C 
ATOM     19  C   UNL     1      36.665 -20.741 -19.083  0.00  0.00    -0.060 C 
ATOM     20  C   UNL     1      33.376 -22.500 -18.712  0.00  0.00    -0.022 C 
ATOM     21  H   UNL     1      35.893 -22.578 -19.516  0.00  0.00    -0.084 HD
ATOM     22  H   UNL     1      35.841 -22.175 -17.894  0.00  0.00    -0.084 HD
ENDBRANCH   7  14
BRANCH   3  23
ATOM     23  C   UNL     1      33.627 -14.809 -20.733  0.00  0.00    +0.077 C 
ATOM     24  C   UNL     1      32.705 -13.687 -20.388  0.00  0.00    +0.022 C 
ATOM     25  C   UNL     1      32.395 -15.084 -19.934  0.00  0.00    +0.022 C 
ENDBRANCH   3  23
BRANCH  10  27
ATOM     26  O   UNL     1      33.632 -12.506 -25.371  0.00  0.00    -0.245 OA
ATOM     27  C   UNL     1      33.199 -13.643 -25.421  0.00  0.00    +0.342 C 
BRANCH  27  28
ATOM     28  O   UNL     1      32.348 -14.126 -26.351  0.00  0.00    -0.477 OA
ATOM     29  H   UNL     1      32.668 -14.366 -27.198  0.00  0.00    +0.295 HD
ENDBRANCH  27  28
ENDBRANCH  10  27
TORSDOF 4
ENDMDL
MODEL 2
REMARK VINA RESULT:      -9.4      4.843      7.688
REMARK  Name = 72474
REMARK  4 active torsions:
REMARK  status: ('A' for Active; 'I' for Inactive)
REMARK    1  A    between atoms: N_3  and  C_23
REMARK    2  A    between atoms: C_7  and  N_14
REMARK    3  A    between atoms: C_10  and  C_27
REMARK    4  A    between atoms: C_27  and  O_28
REMARK                            x       y       z     vdW  Elec       q    Type
REMARK                         _______ _______ _______ _____ _____    ______ ____
ROOT
ATOM      1  F   UNL     1      35.120 -11.550 -25.820  0.00  0.00    -0.203 F 
ATOM      2  O   UNL     1      33.883  -7.128 -23.650  0.00  0.00    -0.286 OA
ATOM      3  N   UNL     1      31.841  -9.982 -21.575  0.00  0.00    -0.287 N 
ATOM      4  C   UNL     1      32.670 -10.408 -22.653  0.00  0.00    +0.056 C 
ATOM      5  C   UNL     1      31.756  -8.637 -21.272  0.00  0.00    +0.075 C 
ATOM      6  C   UNL     1      33.394  -9.450 -23.394  0.00  0.00    +0.051 C 
ATOM      7  C   UNL     1      33.628 -12.137 -24.080  0.00  0.00    +0.076 C 
ATOM      8  C   UNL     1      32.804 -11.759 -23.016  0.00  0.00    +0.032 C 
ATOM      9  C   UNL     1      34.219  -9.832 -24.460  0.00  0.00    +0.011 C 
ATOM     10  C   UNL     1      32.398  -7.650 -21.909  0.00  0.00    +0.129 C 
ATOM     11  C   UNL     1      33.284  -8.009 -23.045  0.00  0.00    +0.204 C 
ATOM     12  C   UNL     1      34.333 -11.177 -24.799  0.00  0.00    +0.149 C 
ATOM     13  C   UNL     1      35.010  -8.867 -25.285  0.00  0.00    +0.034 C 
ENDROOT
BRANCH   7  14
ATOM     14  N   UNL     1      33.742 -13.491 -24.420  0.00  0.00    -0.310 N 
ATOM     15  N   UNL     1      33.795 -16.292 -24.953  0.00  0.00    +0.387 N 
ATOM     16  C   UNL     1      34.197 -14.427 -23.382  0.00  0.00    +0.069 C 
ATOM     17  C   UNL     1      34.764 -15.702 -24.023  0.00  0.00    -0.042 C 
ATOM     18  C   UNL     1      32.863 -14.058 -25.447  0.00  0.00    +0.068 C 
ATOM     19  C   UNL     1      33.465 -15.342 -26.014  0.00  0.00    -0.060 C 
ATOM     20  C   UNL     1      35.119 -16.732 -22.952  0.00  0.00    -0.022 C 
ATOM     21  H   UNL     1      32.946 -16.535 -24.443  0.00  0.00    -0.084 HD
ATOM     22  H   UNL     1      34.203 -17.128 -25.372  0.00  0.00    -0.084 HD
ENDBRANCH   7  14
BRANCH   3  23
ATOM     23  C   UNL     1      31.062 -10.944 -20.768  0.00  0.00    +0.077 C 
ATOM     24  C   UNL     1      31.733 -11.827 -19.768  0.00  0.00    +0.022 C 
ATOM     25  C   UNL     1      30.835 -10.715 -19.310  0.00  0.00    +0.022 C 
ENDBRANCH   3  23
BRANCH  10  27
ATOM     26  O   UNL     1      32.260  -5.921 -20.284  0.00  0.00    -0.245 OA
ATOM     27  C   UNL     1      32.187  -6.276 -21.447  0.00  0.00    +0.342 C 
BRANCH  27  28
ATOM     28  O   UNL     1      31.904  -5.482 -22.501  0.00  0.00    -0.477 OA
ATOM     29  H   UNL     1      31.279  -5.759 -23.141  0.00  0.00    +0.295 HD
ENDBRANCH  27  28
ENDBRANCH  10  27
TORSDOF 4
ENDMDL
MODEL 3
REMARK VINA RESULT:      -8.8      3.829      8.018
REMARK  Name = 72474
REMARK  4 active torsions:
REMARK  status: ('A' for Active; 'I' for Inactive)
REMARK    1  A    between atoms: N_3  and  C_23
REMARK    2  A    between atoms: C_7  and  N_14
REMARK    3  A    between atoms: C_10  and  C_27
REMARK    4  A    between atoms: C_27  and  O_28
REMARK                            x       y       z     vdW  Elec       q    Type
REMARK                         _______ _______ _______ _____ _____    ______ ____
ROOT
ATOM      1  F   UNL     1      33.055 -11.038 -26.155  0.00  0.00    -0.203 F 
ATOM      2  O   UNL     1      33.906 -16.036 -26.463  0.00  0.00    -0.286 OA
ATOM      3  N   UNL     1      34.255 -15.101 -22.511  0.00  0.00    -0.287 N 
ATOM      4  C   UNL     1      33.949 -14.047 -23.419  0.00  0.00    +0.056 C 
ATOM      5  C   UNL     1      34.423 -16.386 -22.989  0.00  0.00    +0.075 C 
ATOM      6  C   UNL     1      33.819 -14.331 -24.795  0.00  0.00    +0.051 C 
ATOM      7  C   UNL     1      33.466 -11.712 -23.924  0.00  0.00    +0.076 C 
ATOM      8  C   UNL     1      33.766 -12.718 -23.002  0.00  0.00    +0.032 C 
ATOM      9  C   UNL     1      33.518 -13.321 -25.718  0.00  0.00    +0.011 C 
ATOM     10  C   UNL     1      34.321 -16.762 -24.271  0.00  0.00    +0.129 C 
ATOM     11  C   UNL     1      34.003 -15.724 -25.283  0.00  0.00    +0.204 C 
ATOM     12  C   UNL     1      33.342 -12.012 -25.278  0.00  0.00    +0.149 C 
ATOM     13  C   UNL     1      33.368 -13.555 -27.187  0.00  0.00    +0.034 C 
ENDROOT
BRANCH   7  14
ATOM     14  N   UNL     1      33.289 -10.395 -23.480  0.00  0.00    -0.310 N 
ATOM     15  N   UNL     1      32.829  -7.666 -22.793  0.00  0.00    +0.387 N 
ATOM     16  C   UNL     1      34.029  -9.329 -24.172  0.00  0.00    +0.069 C 
ATOM     17  C   UNL     1      34.149  -8.091 -23.271  0.00  0.00    -0.042 C 
ATOM     18  C   UNL     1      32.014  -9.997 -22.878  0.00  0.00    +0.068 C 
ATOM     19  C   UNL     1      32.194  -8.739 -22.030  0.00  0.00    -0.060 C 
ATOM     20  C   UNL     1      34.801  -6.935 -24.029  0.00  0.00    -0.022 C 
ATOM     21  H   UNL     1      32.242  -7.431 -23.593  0.00  0.00    -0.084 HD
ATOM     22  H   UNL     1      32.941  -6.852 -22.189  0.00  0.00    -0.084 HD
ENDBRANCH   7  14
BRANCH   3  23
ATOM     23  C   UNL     1      34.404 -14.857 -21.060  0.00  0.00    +0.077 C 
ATOM     24  C   UNL     1      33.275 -15.121 -20.120  0.00  0.00    +0.022 C 
ATOM     25  C   UNL     1      34.495 -15.995 -20.097  0.00  0.00    +0.022 C 
ENDBRANCH   3  23
BRANCH  10  27
ATOM     26  O   UNL     1      35.373 -18.885 -24.077  0.00  0.00    -0.245 OA
ATOM     27  C   UNL     1      34.530 -18.175 -24.595  0.00  0.00    +0.342 C 
BRANCH  27  28
ATOM     28  O   UNL     1      33.652 -18.555 -25.547  0.00  0.00    -0.477 OA
ATOM     29  H   UNL     1      33.599 -18.080 -26.353  0.00  0.00    +0.295 HD
ENDBRANCH  27  28
ENDBRANCH  10  27
TORSDOF 4
ENDMDL
MODEL 4
REMARK VINA RESULT:      -8.6      5.607      9.689
REMARK  Name = 72474
REMARK  4 active torsions:
REMARK  status: ('A' for Active; 'I' for Inactive)
REMARK    1  A    between atoms: N_3  and  C_23
REMARK    2  A    between atoms: C_7  and  N_14
REMARK    3  A    between atoms: C_10  and  C_27
REMARK    4  A    between atoms: C_27  and  O_28
REMARK                            x       y       z     vdW  Elec       q    Type
REMARK                         _______ _______ _______ _____ _____    ______ ____
ROOT
ATOM      1  F   UNL     1      31.259 -10.136 -20.232  0.00  0.00    -0.203 F 
ATOM      2  O   UNL     1      32.443 -14.615 -22.312  0.00  0.00    -0.286 OA
ATOM      3  N   UNL     1      33.762 -11.796 -24.945  0.00  0.00    -0.287 N 
ATOM      4  C   UNL     1      33.127 -11.346 -23.751  0.00  0.00    +0.056 C 
ATOM      5  C   UNL     1      33.908 -13.151 -25.171  0.00  0.00    +0.075 C 
ATOM      6  C   UNL     1      32.658 -12.292 -22.815  0.00  0.00    +0.051 C 
ATOM      7  C   UNL     1      32.317  -9.583 -22.275  0.00  0.00    +0.076 C 
ATOM      8  C   UNL     1      32.945  -9.985 -23.458  0.00  0.00    +0.032 C 
ATOM      9  C   UNL     1      32.029 -11.887 -21.630  0.00  0.00    +0.011 C 
ATOM     10  C   UNL     1      33.500 -14.128 -24.350  0.00  0.00    +0.129 C 
ATOM     11  C   UNL     1      32.829 -13.745 -23.082  0.00  0.00    +0.204 C 
ATOM     12  C   UNL     1      31.861 -10.532 -21.365  0.00  0.00    +0.149 C 
ATOM     13  C   UNL     1      31.509 -12.837 -20.599  0.00  0.00    +0.034 C 
ENDROOT
BRANCH   7  14
ATOM     14  N   UNL     1      32.149  -8.219 -22.009  0.00  0.00    -0.310 N 
ATOM     15  N   UNL     1      31.566  -5.483 -21.454  0.00  0.00    +0.387 N 
ATOM     16  C   UNL     1      31.418  -7.409 -22.996  0.00  0.00    +0.069 C 
ATOM     17  C   UNL     1      31.775  -5.923 -22.838  0.00  0.00    -0.042 C 
ATOM     18  C   UNL     1      32.071  -7.753 -20.622  0.00  0.00    +0.068 C 
ATOM     19  C   UNL     1      32.397  -6.263 -20.540  0.00  0.00    -0.060 C 
ATOM     20  C   UNL     1      30.923  -5.063 -23.770  0.00  0.00    -0.022 C 
ATOM     21  H   UNL     1      30.584  -5.610 -21.206  0.00  0.00    -0.084 HD
ATOM     22  H   UNL     1      31.822  -4.499 -21.377  0.00  0.00    -0.084 HD
ENDBRANCH   7  14
BRANCH   3  23
ATOM     23  C   UNL     1      34.269 -10.847 -25.959  0.00  0.00    +0.077 C 
ATOM     24  C   UNL     1      35.648 -10.285 -25.859  0.00  0.00    +0.022 C 
ATOM     25  C   UNL     1      35.311 -11.264 -26.945  0.00  0.00    +0.022 C 
ENDBRANCH   3  23
BRANCH  10  27
ATOM     26  O   UNL     1      33.555 -15.950 -25.875  0.00  0.00    -0.245 OA
ATOM     27  C   UNL     1      33.742 -15.515 -24.753  0.00  0.00    +0.342 C 
BRANCH  27  28
ATOM     28  O   UNL     1      34.195 -16.222 -23.697  0.00  0.00    -0.477 OA
ATOM     29  H   UNL     1      33.795 -17.038 -23.472  0.00  0.00    +0.295 HD
ENDBRANCH  27  28
ENDBRANCH  10  27
TORSDOF 4
ENDMDL
MODEL 5
REMARK VINA RESULT:      -8.3      3.554      6.075
REMARK  Name = 72474
REMARK  4 active torsions:
REMARK  status: ('A' for Active; 'I' for Inactive)
REMARK    1  A    between atoms: N_3  and  C_23
REMARK    2  A    between atoms: C_7  and  N_14
REMARK    3  A    between atoms: C_10  and  C_27
REMARK    4  A    between atoms: C_27  and  O_28
REMARK                            x       y       z     vdW  Elec       q    Type
REMARK                         _______ _______ _______ _____ _____    ______ ____
ROOT
ATOM      1  F   UNL     1      32.410 -14.779 -20.308  0.00  0.00    -0.203 F 
ATOM      2  O   UNL     1      31.389  -9.943 -21.477  0.00  0.00    -0.286 OA
ATOM      3  N   UNL     1      33.851 -11.293 -24.431  0.00  0.00    -0.287 N 
ATOM      4  C   UNL     1      33.499 -12.202 -23.392  0.00  0.00    +0.056 C 
ATOM      5  C   UNL     1      33.357 -10.004 -24.406  0.00  0.00    +0.075 C 
ATOM      6  C   UNL     1      32.648 -11.772 -22.352  0.00  0.00    +0.051 C 
ATOM      7  C   UNL     1      33.598 -14.388 -22.317  0.00  0.00    +0.076 C 
ATOM      8  C   UNL     1      33.966 -13.526 -23.354  0.00  0.00    +0.032 C 
ATOM      9  C   UNL     1      32.280 -12.637 -21.313  0.00  0.00    +0.011 C 
ATOM     10  C   UNL     1      32.545  -9.496 -23.469  0.00  0.00    +0.129 C 
ATOM     11  C   UNL     1      32.129 -10.378 -22.350  0.00  0.00    +0.204 C 
ATOM     12  C   UNL     1      32.757 -13.944 -21.300  0.00  0.00    +0.149 C 
ATOM     13  C   UNL     1      31.384 -12.244 -20.182  0.00  0.00    +0.034 C 
ENDROOT
BRANCH   7  14
ATOM     14  N   UNL     1      34.079 -15.703 -22.305  0.00  0.00    -0.310 N 
ATOM     15  N   UNL     1      35.265 -18.295 -22.376  0.00  0.00    +0.387 N 
ATOM     16  C   UNL     1      34.360 -16.346 -23.597  0.00  0.00    +0.069 C 
ATOM     17  C   UNL     1      34.354 -17.875 -23.446  0.00  0.00    -0.042 C 
ATOM     18  C   UNL     1      34.882 -16.172 -21.172  0.00  0.00    +0.068 C 
ATOM     19  C   UNL     1      34.866 -17.698 -21.103  0.00  0.00    -0.060 C 
ATOM     20  C   UNL     1      34.774 -18.546 -24.753  0.00  0.00    -0.022 C 
ATOM     21  H   UNL     1      36.213 -17.995 -22.606  0.00  0.00    -0.084 HD
ATOM     22  H   UNL     1      35.230 -19.311 -22.292  0.00  0.00    -0.084 HD
ENDBRANCH   7  14
BRANCH   3  23
ATOM     23  C   UNL     1      34.741 -11.692 -25.543  0.00  0.00    +0.077 C 
ATOM     24  C   UNL     1      34.289 -11.584 -26.961  0.00  0.00    +0.022 C 
ATOM     25  C   UNL     1      35.355 -10.667 -26.438  0.00  0.00    +0.022 C 
ENDBRANCH   3  23
BRANCH  10  27
ATOM     26  O   UNL     1      32.875  -7.155 -23.709  0.00  0.00    -0.245 OA
ATOM     27  C   UNL     1      32.117  -8.103 -23.606  0.00  0.00    +0.342 C 
BRANCH  27  28
ATOM     28  O   UNL     1      30.769  -8.040 -23.599  0.00  0.00    -0.477 OA
ATOM     29  H   UNL     1      30.283  -8.321 -24.349  0.00  0.00    +0.295 HD
ENDBRANCH  27  28
ENDBRANCH  10  27
TORSDOF 4
ENDMDL
MODEL 6
REMARK VINA RESULT:      -8.3      4.120      6.819
REMARK  Name = 72474
REMARK  4 active torsions:
REMARK  status: ('A' for Active; 'I' for Inactive)
REMARK    1  A    between atoms: N_3  and  C_23
REMARK    2  A    between atoms: C_7  and  N_14
REMARK    3  A    between atoms: C_10  and  C_27
REMARK    4  A    between atoms: C_27  and  O_28
REMARK                            x       y       z     vdW  Elec       q    Type
REMARK                         _______ _______ _______ _____ _____    ______ ____
ROOT
ATOM      1  F   UNL     1      31.892 -14.352 -21.762  0.00  0.00    -0.203 F 
ATOM      2  O   UNL     1      31.347  -9.303 -21.857  0.00  0.00    -0.286 OA
ATOM      3  N   UNL     1      34.459 -10.122 -24.358  0.00  0.00    -0.287 N 
ATOM      4  C   UNL     1      33.822 -11.218 -23.709  0.00  0.00    +0.056 C 
ATOM      5  C   UNL     1      34.011  -8.836 -24.124  0.00  0.00    +0.075 C 
ATOM      6  C   UNL     1      32.740 -10.975 -22.836  0.00  0.00    +0.051 C 
ATOM      7  C   UNL     1      33.574 -13.598 -23.245  0.00  0.00    +0.076 C 
ATOM      8  C   UNL     1      34.225 -12.550 -23.901  0.00  0.00    +0.032 C 
ATOM      9  C   UNL     1      32.089 -12.028 -22.180  0.00  0.00    +0.011 C 
ATOM     10  C   UNL     1      32.997  -8.497 -23.318  0.00  0.00    +0.129 C 
ATOM     11  C   UNL     1      32.277  -9.581 -22.603  0.00  0.00    +0.204 C 
ATOM     12  C   UNL     1      32.509 -13.338 -22.388  0.00  0.00    +0.149 C 
ATOM     13  C   UNL     1      30.939 -11.838 -21.243  0.00  0.00    +0.034 C 
ENDROOT
BRANCH   7  14
ATOM     14  N   UNL     1      33.999 -14.916 -23.455  0.00  0.00    -0.310 N 
ATOM     15  N   UNL     1      34.652 -17.673 -23.783  0.00  0.00    +0.387 N 
ATOM     16  C   UNL     1      34.242 -15.759 -22.274  0.00  0.00    +0.069 C 
ATOM     17  C   UNL     1      35.174 -16.926 -22.633  0.00  0.00    -0.042 C 
ATOM     18  C   UNL     1      33.589 -15.627 -24.669  0.00  0.00    +0.068 C 
ATOM     19  C   UNL     1      34.530 -16.797 -24.946  0.00  0.00    -0.060 C 
ATOM     20  C   UNL     1      35.327 -17.877 -21.447  0.00  0.00    -0.022 C 
ATOM     21  H   UNL     1      33.733 -18.050 -23.548  0.00  0.00    -0.084 HD
ATOM     22  H   UNL     1      35.296 -18.432 -24.004  0.00  0.00    -0.084 HD
ENDBRANCH   7  14
BRANCH   3  23
ATOM     23  C   UNL     1      35.597 -10.321 -25.281  0.00  0.00    +0.077 C 
ATOM     24  C   UNL     1      35.382 -10.854 -26.658  0.00  0.00    +0.022 C 
ATOM     25  C   UNL     1      35.795  -9.425 -26.459  0.00  0.00    +0.022 C 
ENDBRANCH   3  23
BRANCH  10  27
ATOM     26  O   UNL     1      32.439  -6.334 -24.131  0.00  0.00    -0.245 OA
ATOM     27  C   UNL     1      32.658  -7.078 -23.191  0.00  0.00    +0.342 C 
BRANCH  27  28
ATOM     28  O   UNL     1      32.630  -6.733 -21.887  0.00  0.00    -0.477 OA
ATOM     29  H   UNL     1      33.432  -6.624 -21.414  0.00  0.00    +0.295 HD
ENDBRANCH  27  28
ENDBRANCH  10  27
TORSDOF 4
ENDMDL
MODEL 7
REMARK VINA RESULT:      -8.2      5.269      9.858
REMARK  Name = 72474
REMARK  4 active torsions:
REMARK  status: ('A' for Active; 'I' for Inactive)
REMARK    1  A    between atoms: N_3  and  C_23
REMARK    2  A    between atoms: C_7  and  N_14
REMARK    3  A    between atoms: C_10  and  C_27
REMARK    4  A    between atoms: C_27  and  O_28
REMARK                            x       y       z     vdW  Elec       q    Type
REMARK                         _______ _______ _______ _____ _____    ______ ____
ROOT
ATOM      1  F   UNL     1      31.548  -8.829 -20.678  0.00  0.00    -0.203 F 
ATOM      2  O   UNL     1      32.030 -13.777 -19.636  0.00  0.00    -0.286 OA
ATOM      3  N   UNL     1      33.051 -13.374 -23.561  0.00  0.00    -0.287 N 
ATOM      4  C   UNL     1      32.672 -12.200 -22.849  0.00  0.00    +0.056 C 
ATOM      5  C   UNL     1      33.061 -14.593 -22.912  0.00  0.00    +0.075 C 
ATOM      6  C   UNL     1      32.312 -12.299 -21.488  0.00  0.00    +0.051 C 
ATOM      7  C   UNL     1      32.262  -9.801 -22.714  0.00  0.00    +0.076 C 
ATOM      8  C   UNL     1      32.640 -10.929 -23.447  0.00  0.00    +0.032 C 
ATOM      9  C   UNL     1      31.934 -11.166 -20.755  0.00  0.00    +0.011 C 
ATOM     10  C   UNL     1      32.738 -14.796 -21.627  0.00  0.00    +0.129 C 
ATOM     11  C   UNL     1      32.332 -13.623 -20.813  0.00  0.00    +0.204 C 
ATOM     12  C   UNL     1      31.910  -9.919 -21.373  0.00  0.00    +0.149 C 
ATOM     13  C   UNL     1      31.541 -11.203 -19.313  0.00  0.00    +0.034 C 
ENDROOT
BRANCH   7  14
ATOM     14  N   UNL     1      32.238  -8.547 -23.336  0.00  0.00    -0.310 N 
ATOM     15  N   UNL     1      32.185  -6.110 -24.817  0.00  0.00    +0.387 N 
ATOM     16  C   UNL     1      33.390  -8.167 -24.169  0.00  0.00    +0.069 C 
ATOM     17  C   UNL     1      33.459  -6.641 -24.322  0.00  0.00    -0.042 C 
ATOM     18  C   UNL     1      30.955  -7.948 -23.715  0.00  0.00    +0.068 C 
ATOM     19  C   UNL     1      31.103  -6.437 -23.891  0.00  0.00    -0.060 C 
ATOM     20  C   UNL     1      34.574  -6.248 -25.291  0.00  0.00    -0.022 C 
ATOM     21  H   UNL     1      31.982  -6.520 -25.729  0.00  0.00    -0.084 HD
ATOM     22  H   UNL     1      32.257  -5.095 -24.897  0.00  0.00    -0.084 HD
ENDBRANCH   7  14
BRANCH   3  23
ATOM     23  C   UNL     1      33.435 -13.326 -24.989  0.00  0.00    +0.077 C 
ATOM     24  C   UNL     1      33.666 -14.582 -25.762  0.00  0.00    +0.022 C 
ATOM     25  C   UNL     1      32.469 -13.725 -26.056  0.00  0.00    +0.022 C 
ENDBRANCH   3  23
BRANCH  10  27
ATOM     26  O   UNL     1      33.800 -16.868 -21.146  0.00  0.00    -0.245 OA
ATOM     27  C   UNL     1      32.808 -16.162 -21.105  0.00  0.00    +0.342 C 
BRANCH  27  28
ATOM     28  O   UNL     1      31.613 -16.507 -20.579  0.00  0.00    -0.477 OA
ATOM     29  H   UNL     1      31.123 -17.213 -20.953  0.00  0.00    +0.295 HD
ENDBRANCH  27  28
ENDBRANCH  10  27
TORSDOF 4
ENDMDL
MODEL 8
REMARK VINA RESULT:      -8.1      4.758      8.729
REMARK  Name = 72474
REMARK  4 active torsions:
REMARK  status: ('A' for Active; 'I' for Inactive)
REMARK    1  A    between atoms: N_3  and  C_23
REMARK    2  A    between atoms: C_7  and  N_14
REMARK    3  A    between atoms: C_10  and  C_27
REMARK    4  A    between atoms: C_27  and  O_28
REMARK                            x       y       z     vdW  Elec       q    Type
REMARK                         _______ _______ _______ _____ _____    ______ ____
ROOT
ATOM      1  F   UNL     1      31.819 -11.494 -20.188  0.00  0.00    -0.203 F 
ATOM      2  O   UNL     1      33.344 -16.037 -21.872  0.00  0.00    -0.286 OA
ATOM      3  N   UNL     1      33.556 -13.542 -25.089  0.00  0.00    -0.287 N 
ATOM      4  C   UNL     1      33.110 -12.995 -23.851  0.00  0.00    +0.056 C 
ATOM      5  C   UNL     1      33.897 -14.879 -25.160  0.00  0.00    +0.075 C 
ATOM      6  C   UNL     1      33.024 -13.827 -22.715  0.00  0.00    +0.051 C 
ATOM      7  C   UNL     1      32.315 -11.146 -22.476  0.00  0.00    +0.076 C 
ATOM      8  C   UNL     1      32.748 -11.645 -23.707  0.00  0.00    +0.032 C 
ATOM      9  C   UNL     1      32.590 -13.324 -21.481  0.00  0.00    +0.011 C 
ATOM     10  C   UNL     1      33.852 -15.752 -24.146  0.00  0.00    +0.129 C 
ATOM     11  C   UNL     1      33.398 -15.262 -22.819  0.00  0.00    +0.204 C 
ATOM     12  C   UNL     1      32.237 -11.983 -21.366  0.00  0.00    +0.149 C 
ATOM     13  C   UNL     1      32.475 -14.152 -20.241  0.00  0.00    +0.034 C 
ENDROOT
BRANCH   7  14
ATOM     14  N   UNL     1      31.959  -9.797 -22.361  0.00  0.00    -0.310 N 
ATOM     15  N   UNL     1      31.464  -6.993 -22.193  0.00  0.00    +0.387 N 
ATOM     16  C   UNL     1      32.614  -8.997 -21.316  0.00  0.00    +0.069 C 
ATOM     17  C   UNL     1      31.768  -7.760 -20.980  0.00  0.00    -0.042 C 
ATOM     18  C   UNL     1      31.525  -9.057 -23.550  0.00  0.00    +0.068 C 
ATOM     19  C   UNL     1      30.725  -7.820 -23.145  0.00  0.00    -0.060 C 
ATOM     20  C   UNL     1      32.504  -6.858 -19.990  0.00  0.00    -0.022 C 
ATOM     21  H   UNL     1      32.336  -6.684 -22.622  0.00  0.00    -0.084 HD
ATOM     22  H   UNL     1      30.892  -6.187 -21.940  0.00  0.00    -0.084 HD
ENDBRANCH   7  14
BRANCH   3  23
ATOM     23  C   UNL     1      33.663 -12.715 -26.310  0.00  0.00    +0.077 C 
ATOM     24  C   UNL     1      34.047 -13.325 -27.617  0.00  0.00    +0.022 C 
ATOM     25  C   UNL     1      32.649 -12.824 -27.401  0.00  0.00    +0.022 C 
ENDBRANCH   3  23
BRANCH  10  27
ATOM     26  O   UNL     1      33.967 -17.760 -25.412  0.00  0.00    -0.245 OA
ATOM     27  C   UNL     1      34.253 -17.136 -24.406  0.00  0.00    +0.342 C 
BRANCH  27  28
ATOM     28  O   UNL     1      34.979 -17.600 -23.367  0.00  0.00    -0.477 OA
ATOM     29  H   UNL     1      34.662 -18.321 -22.859  0.00  0.00    +0.295 HD
ENDBRANCH  27  28
ENDBRANCH  10  27
TORSDOF 4
ENDMDL
MODEL 9
REMARK VINA RESULT:      -8.1      6.674     10.679
REMARK  Name = 72474
REMARK  4 active torsions:
REMARK  status: ('A' for Active; 'I' for Inactive)
REMARK    1  A    between atoms: N_3  and  C_23
REMARK    2  A    between atoms: C_7  and  N_14
REMARK    3  A    between atoms: C_10  and  C_27
REMARK    4  A    between atoms: C_27  and  O_28
REMARK                            x       y       z     vdW  Elec       q    Type
REMARK                         _______ _______ _______ _____ _____    ______ ____
ROOT
ATOM      1  F   UNL     1      37.352 -21.391 -18.457  0.00  0.00    -0.203 F 
ATOM      2  O   UNL     1      37.867 -24.000 -14.130  0.00  0.00    -0.286 OA
ATOM      3  N   UNL     1      33.862 -23.898 -14.884  0.00  0.00    -0.287 N 
ATOM      4  C   UNL     1      34.730 -23.251 -15.810  0.00  0.00    +0.056 C 
ATOM      5  C   UNL     1      34.395 -24.529 -13.776  0.00  0.00    +0.075 C 
ATOM      6  C   UNL     1      36.123 -23.265 -15.584  0.00  0.00    +0.051 C 
ATOM      7  C   UNL     1      35.141 -21.968 -17.842  0.00  0.00    +0.076 C 
ATOM      8  C   UNL     1      34.257 -22.591 -16.956  0.00  0.00    +0.032 C 
ATOM      9  C   UNL     1      37.007 -22.641 -16.473  0.00  0.00    +0.011 C 
ATOM     10  C   UNL     1      35.697 -24.601 -13.469  0.00  0.00    +0.129 C 
ATOM     11  C   UNL     1      36.670 -23.953 -14.384  0.00  0.00    +0.204 C 
ATOM     12  C   UNL     1      36.512 -21.993 -17.601  0.00  0.00    +0.149 C 
ATOM     13  C   UNL     1      38.491 -22.618 -16.290  0.00  0.00    +0.034 C 
ENDROOT
BRANCH   7  14
ATOM     14  N   UNL     1      34.641 -21.316 -18.976  0.00  0.00    -0.310 N 
ATOM     15  N   UNL     1      33.725 -20.167 -21.420  0.00  0.00    +0.387 N 
ATOM     16  C   UNL     1      35.608 -20.755 -19.932  0.00  0.00    +0.069 C 
ATOM     17  C   UNL     1      34.946 -19.661 -20.783  0.00  0.00    -0.042 C 
ATOM     18  C   UNL     1      33.354 -21.729 -19.542  0.00  0.00    +0.068 C 
ATOM     19  C   UNL     1      32.770 -20.614 -20.408  0.00  0.00    -0.060 C 
ATOM     20  C   UNL     1      35.905 -19.166 -21.863  0.00  0.00    -0.022 C 
ATOM     21  H   UNL     1      33.963 -20.951 -22.027  0.00  0.00    -0.084 HD
ATOM     22  H   UNL     1      33.302 -19.417 -21.967  0.00  0.00    -0.084 HD
ENDBRANCH   7  14
BRANCH   3  23
ATOM     23  C   UNL     1      32.396 -23.911 -15.073  0.00  0.00    +0.077 C 
ATOM     24  C   UNL     1      31.492 -24.450 -14.014  0.00  0.00    +0.022 C 
ATOM     25  C   UNL     1      31.516 -22.978 -14.307  0.00  0.00    +0.022 C 
ENDBRANCH   3  23
BRANCH  10  27
ATOM     26  O   UNL     1      35.770 -24.974 -11.123  0.00  0.00    -0.245 OA
ATOM     27  C   UNL     1      36.081 -25.315 -12.250  0.00  0.00    +0.342 C 
BRANCH  27  28
ATOM     28  O   UNL     1      36.823 -26.395 -12.573  0.00  0.00    -0.477 OA
ATOM     29  H   UNL     1      37.088 -26.998 -11.906  0.00  0.00    +0.295 HD
ENDBRANCH  27  28
ENDBRANCH  10  27
TORSDOF 4
ENDMDL
