MODEL 1
REMARK VINA RESULT:     -10.0      0.000      0.000
REMARK  Name = 16105493
REMARK  3 active torsions:
REMARK  status: ('A' for Active; 'I' for Inactive)
REMARK    1  A    between atoms: N_3  and  C_14
REMARK    2  A    between atoms: C_5  and  C_13
REMARK    3  A    between atoms: C_14  and  C_17
REMARK                            x       y       z     vdW  Elec       q    Type
REMARK                         _______ _______ _______ _____ _____    ______ ____
ROOT
ATOM      1  S   UNL     1      36.737 -23.293 -14.298  0.00  0.00    -0.043 S 
ATOM      2  O   UNL     1      36.490 -27.062 -14.980  0.00  0.00    -0.213 OA
ATOM      3  N   UNL     1      35.058 -22.840 -16.309  0.00  0.00    -0.301 N 
ATOM      4  N   UNL     1      35.646 -25.093 -15.814  0.00  0.00    -0.314 NA
ATOM      5  C   UNL     1      37.186 -25.015 -13.913  0.00  0.00    +0.236 C 
ATOM      6  C   UNL     1      35.706 -23.816 -15.612  0.00  0.00    +0.221 C 
ATOM      7  C   UNL     1      36.416 -25.836 -14.944  0.00  0.00    +0.198 C 
ATOM      8  C   UNL     1      36.727 -25.368 -12.502  0.00  0.00    +0.038 C 
ATOM      9  H   UNL     1      35.196 -21.901 -16.046  0.00  0.00    +0.150 HD
ENDROOT
BRANCH   5  13
ATOM     10  F   UNL     1      39.122 -24.512 -15.153  0.00  0.00    -0.168 F 
ATOM     11  F   UNL     1      39.343 -24.788 -12.998  0.00  0.00    -0.168 F 
ATOM     12  F   UNL     1      38.965 -26.510 -14.287  0.00  0.00    -0.168 F 
ATOM     13  C   UNL     1      38.689 -25.211 -14.092  0.00  0.00    +0.420 C 
ENDBRANCH   5  13
BRANCH   3  14
ATOM     14  C   UNL     1      34.184 -23.129 -17.408  0.00  0.00    +0.096 C 
ATOM     15  C   UNL     1      32.737 -23.231 -16.930  0.00  0.00    +0.026 C 
BRANCH  14  17
ATOM     16  F   UNL     1      36.717 -22.218 -18.307  0.00  0.00    -0.204 F 
ATOM     17  C   UNL     1      34.355 -22.123 -18.525  0.00  0.00    +0.023 C 
ATOM     18  C   UNL     1      35.632 -21.720 -18.916  0.00  0.00    +0.138 C 
ATOM     19  C   UNL     1      33.232 -21.598 -19.165  0.00  0.00    -0.000 C 
ATOM     20  C   UNL     1      35.785 -20.792 -19.946  0.00  0.00    +0.029 C 
ATOM     21  C   UNL     1      33.386 -20.670 -20.195  0.00  0.00    -0.000 C 
ATOM     22  C   UNL     1      34.663 -20.266 -20.585  0.00  0.00    +0.002 C 
ENDBRANCH  14  17
ENDBRANCH   3  14
TORSDOF 3
ENDMDL
MODEL 2
REMARK VINA RESULT:      -9.5      7.036     10.419
REMARK  Name = 16105493
REMARK  3 active torsions:
REMARK  status: ('A' for Active; 'I' for Inactive)
REMARK    1  A    between atoms: N_3  and  C_14
REMARK    2  A    between atoms: C_5  and  C_13
REMARK    3  A    between atoms: C_14  and  C_17
REMARK                            x       y       z     vdW  Elec       q    Type
REMARK                         _______ _______ _______ _____ _____    ______ ____
ROOT
ATOM      1  S   UNL     1      34.632 -15.272 -20.575  0.00  0.00    -0.043 S 
ATOM      2  O   UNL     1      33.441 -15.597 -24.210  0.00  0.00    -0.213 OA
ATOM      3  N   UNL     1      35.573 -17.756 -20.683  0.00  0.00    -0.301 N 
ATOM      4  N   UNL     1      34.518 -16.864 -22.621  0.00  0.00    -0.314 NA
ATOM      5  C   UNL     1      33.827 -14.584 -22.057  0.00  0.00    +0.236 C 
ATOM      6  C   UNL     1      34.932 -16.788 -21.398  0.00  0.00    +0.221 C 
ATOM      7  C   UNL     1      33.901 -15.717 -23.077  0.00  0.00    +0.198 C 
ATOM      8  C   UNL     1      34.608 -13.370 -22.553  0.00  0.00    +0.038 C 
ATOM      9  H   UNL     1      35.833 -17.564 -19.754  0.00  0.00    +0.150 HD
ENDROOT
BRANCH   5  13
ATOM     10  F   UNL     1      32.313 -13.390 -20.709  0.00  0.00    -0.168 F 
ATOM     11  F   UNL     1      31.795 -13.667 -22.812  0.00  0.00    -0.168 F 
ATOM     12  F   UNL     1      31.695 -15.356 -21.432  0.00  0.00    -0.168 F 
ATOM     13  C   UNL     1      32.374 -14.241 -21.745  0.00  0.00    +0.420 C 
ENDBRANCH   5  13
BRANCH   3  14
ATOM     14  C   UNL     1      35.881 -19.043 -21.234  0.00  0.00    +0.096 C 
ATOM     15  C   UNL     1      37.391 -19.218 -21.379  0.00  0.00    +0.026 C 
BRANCH  14  17
ATOM     16  F   UNL     1      33.086 -19.535 -21.195  0.00  0.00    -0.204 F 
ATOM     17  C   UNL     1      35.245 -20.154 -20.426  0.00  0.00    +0.023 C 
ATOM     18  C   UNL     1      33.863 -20.339 -20.454  0.00  0.00    +0.138 C 
ATOM     19  C   UNL     1      36.045 -20.994 -19.651  0.00  0.00    -0.000 C 
ATOM     20  C   UNL     1      33.281 -21.363 -19.708  0.00  0.00    +0.029 C 
ATOM     21  C   UNL     1      35.463 -22.018 -18.905  0.00  0.00    -0.000 C 
ATOM     22  C   UNL     1      34.081 -22.202 -18.932  0.00  0.00    +0.002 C 
ENDBRANCH  14  17
ENDBRANCH   3  14
TORSDOF 3
ENDMDL
MODEL 3
REMARK VINA RESULT:      -9.3      1.311      1.889
REMARK  Name = 16105493
REMARK  3 active torsions:
REMARK  status: ('A' for Active; 'I' for Inactive)
REMARK    1  A    between atoms: N_3  and  C_14
REMARK    2  A    between atoms: C_5  and  C_13
REMARK    3  A    between atoms: C_14  and  C_17
REMARK                            x       y       z     vdW  Elec       q    Type
REMARK                         _______ _______ _______ _____ _____    ______ ____
ROOT
ATOM      1  S   UNL     1      37.489 -23.587 -14.034  0.00  0.00    -0.043 S 
ATOM      2  O   UNL     1      37.445 -27.276 -15.096  0.00  0.00    -0.213 OA
ATOM      3  N   UNL     1      35.442 -23.115 -15.662  0.00  0.00    -0.301 N 
ATOM      4  N   UNL     1      36.299 -25.332 -15.540  0.00  0.00    -0.314 NA
ATOM      5  C   UNL     1      38.146 -25.283 -13.934  0.00  0.00    +0.236 C 
ATOM      6  C   UNL     1      36.286 -24.083 -15.205  0.00  0.00    +0.221 C 
ATOM      7  C   UNL     1      37.274 -26.074 -14.907  0.00  0.00    +0.198 C 
ATOM      8  C   UNL     1      37.981 -25.820 -12.516  0.00  0.00    +0.038 C 
ATOM      9  H   UNL     1      35.544 -22.198 -15.320  0.00  0.00    +0.150 HD
ENDROOT
BRANCH   5  13
ATOM     10  F   UNL     1      39.999 -26.566 -14.610  0.00  0.00    -0.168 F 
ATOM     11  F   UNL     1      39.743 -24.598 -15.521  0.00  0.00    -0.168 F 
ATOM     12  F   UNL     1      40.386 -24.762 -13.442  0.00  0.00    -0.168 F 
ATOM     13  C   UNL     1      39.602 -25.302 -14.388  0.00  0.00    +0.420 C 
ENDBRANCH   5  13
BRANCH   3  14
ATOM     14  C   UNL     1      34.412 -23.383 -16.622  0.00  0.00    +0.096 C 
ATOM     15  C   UNL     1      33.033 -23.284 -15.972  0.00  0.00    +0.026 C 
BRANCH  14  17
ATOM     16  F   UNL     1      32.195 -22.535 -18.179  0.00  0.00    -0.204 F 
ATOM     17  C   UNL     1      34.544 -22.489 -17.836  0.00  0.00    +0.023 C 
ATOM     18  C   UNL     1      33.410 -22.110 -18.555  0.00  0.00    +0.138 C 
ATOM     19  C   UNL     1      35.804 -22.043 -18.236  0.00  0.00    -0.000 C 
ATOM     20  C   UNL     1      33.536 -21.286 -19.673  0.00  0.00    +0.029 C 
ATOM     21  C   UNL     1      35.930 -21.219 -19.354  0.00  0.00    -0.000 C 
ATOM     22  C   UNL     1      34.796 -20.842 -20.073  0.00  0.00    +0.002 C 
ENDBRANCH  14  17
ENDBRANCH   3  14
TORSDOF 3
ENDMDL
MODEL 4
REMARK VINA RESULT:      -9.3      4.163      5.108
REMARK  Name = 16105493
REMARK  3 active torsions:
REMARK  status: ('A' for Active; 'I' for Inactive)
REMARK    1  A    between atoms: N_3  and  C_14
REMARK    2  A    between atoms: C_5  and  C_13
REMARK    3  A    between atoms: C_14  and  C_17
REMARK                            x       y       z     vdW  Elec       q    Type
REMARK                         _______ _______ _______ _____ _____    ______ ____
ROOT
ATOM      1  S   UNL     1      30.694 -22.946 -16.710  0.00  0.00    -0.043 S 
ATOM      2  O   UNL     1      33.256 -24.559 -14.349  0.00  0.00    -0.213 OA
ATOM      3  N   UNL     1      32.651 -22.396 -18.424  0.00  0.00    -0.301 N 
ATOM      4  N   UNL     1      33.207 -23.514 -16.397  0.00  0.00    -0.314 NA
ATOM      5  C   UNL     1      31.114 -23.805 -15.160  0.00  0.00    +0.236 C 
ATOM      6  C   UNL     1      32.370 -22.963 -17.216  0.00  0.00    +0.221 C 
ATOM      7  C   UNL     1      32.625 -24.004 -15.246  0.00  0.00    +0.198 C 
ATOM      8  C   UNL     1      30.403 -25.153 -15.106  0.00  0.00    +0.038 C 
ATOM      9  H   UNL     1      31.913 -22.009 -18.947  0.00  0.00    +0.150 HD
ENDROOT
BRANCH   5  13
ATOM     10  F   UNL     1      30.601 -23.678 -12.867  0.00  0.00    -0.168 F 
ATOM     11  F   UNL     1      31.739 -22.033 -13.743  0.00  0.00    -0.168 F 
ATOM     12  F   UNL     1      29.617 -22.261 -14.206  0.00  0.00    -0.168 F 
ATOM     13  C   UNL     1      30.760 -22.923 -13.967  0.00  0.00    +0.420 C 
ENDBRANCH   5  13
BRANCH   3  14
ATOM     14  C   UNL     1      33.980 -22.341 -18.958  0.00  0.00    +0.096 C 
ATOM     15  C   UNL     1      34.305 -23.623 -19.721  0.00  0.00    +0.026 C 
BRANCH  14  17
ATOM     16  F   UNL     1      36.541 -21.367 -19.698  0.00  0.00    -0.204 F 
ATOM     17  C   UNL     1      34.184 -21.100 -19.799  0.00  0.00    +0.023 C 
ATOM     18  C   UNL     1      35.473 -20.679 -20.126  0.00  0.00    +0.138 C 
ATOM     19  C   UNL     1      33.080 -20.375 -20.248  0.00  0.00    -0.000 C 
ATOM     20  C   UNL     1      35.657 -19.534 -20.901  0.00  0.00    +0.029 C 
ATOM     21  C   UNL     1      33.264 -19.230 -21.023  0.00  0.00    -0.000 C 
ATOM     22  C   UNL     1      34.553 -18.809 -21.348  0.00  0.00    +0.002 C 
ENDBRANCH  14  17
ENDBRANCH   3  14
TORSDOF 3
ENDMDL
MODEL 5
REMARK VINA RESULT:      -9.1      2.628      4.123
REMARK  Name = 16105493
REMARK  3 active torsions:
REMARK  status: ('A' for Active; 'I' for Inactive)
REMARK    1  A    between atoms: N_3  and  C_14
REMARK    2  A    between atoms: C_5  and  C_13
REMARK    3  A    between atoms: C_14  and  C_17
REMARK                            x       y       z     vdW  Elec       q    Type
REMARK                         _______ _______ _______ _____ _____    ______ ____
ROOT
ATOM      1  S   UNL     1      36.259 -25.917 -15.025  0.00  0.00    -0.043 S 
ATOM      2  O   UNL     1      37.865 -22.900 -13.277  0.00  0.00    -0.213 OA
ATOM      3  N   UNL     1      34.425 -24.306 -16.077  0.00  0.00    -0.301 N 
ATOM      4  N   UNL     1      36.092 -23.353 -14.671  0.00  0.00    -0.314 NA
ATOM      5  C   UNL     1      37.539 -25.192 -13.951  0.00  0.00    +0.236 C 
ATOM      6  C   UNL     1      35.526 -24.347 -15.274  0.00  0.00    +0.221 C 
ATOM      7  C   UNL     1      37.197 -23.705 -13.922  0.00  0.00    +0.198 C 
ATOM      8  C   UNL     1      38.917 -25.409 -14.569  0.00  0.00    +0.038 C 
ATOM      9  H   UNL     1      34.098 -25.145 -16.474  0.00  0.00    +0.150 HD
ENDROOT
BRANCH   5  13
ATOM     10  F   UNL     1      36.513 -25.132 -11.835  0.00  0.00    -0.168 F 
ATOM     11  F   UNL     1      37.094 -27.083 -12.623  0.00  0.00    -0.168 F 
ATOM     12  F   UNL     1      38.622 -25.691 -11.923  0.00  0.00    -0.168 F 
ATOM     13  C   UNL     1      37.439 -25.789 -12.551  0.00  0.00    +0.420 C 
ENDBRANCH   5  13
BRANCH   3  14
ATOM     14  C   UNL     1      33.728 -23.087 -16.364  0.00  0.00    +0.096 C 
ATOM     15  C   UNL     1      33.805 -22.763 -17.855  0.00  0.00    +0.026 C 
BRANCH  14  17
ATOM     16  F   UNL     1      33.064 -23.456 -13.630  0.00  0.00    -0.204 F 
ATOM     17  C   UNL     1      32.303 -23.136 -15.856  0.00  0.00    +0.023 C 
ATOM     18  C   UNL     1      32.050 -23.320 -14.497  0.00  0.00    +0.138 C 
ATOM     19  C   UNL     1      31.241 -22.997 -16.750  0.00  0.00    -0.000 C 
ATOM     20  C   UNL     1      30.736 -23.365 -14.032  0.00  0.00    +0.029 C 
ATOM     21  C   UNL     1      29.927 -23.042 -16.285  0.00  0.00    -0.000 C 
ATOM     22  C   UNL     1      29.675 -23.227 -14.926  0.00  0.00    +0.002 C 
ENDBRANCH  14  17
ENDBRANCH   3  14
TORSDOF 3
ENDMDL
MODEL 6
REMARK VINA RESULT:      -9.0      2.310      4.148
REMARK  Name = 16105493
REMARK  3 active torsions:
REMARK  status: ('A' for Active; 'I' for Inactive)
REMARK    1  A    between atoms: N_3  and  C_14
REMARK    2  A    between atoms: C_5  and  C_13
REMARK    3  A    between atoms: C_14  and  C_17
REMARK                            x       y       z     vdW  Elec       q    Type
REMARK                         _______ _______ _______ _____ _____    ______ ____
ROOT
ATOM      1  S   UNL     1      36.639 -23.936 -13.334  0.00  0.00    -0.043 S 
ATOM      2  O   UNL     1      36.822 -26.871 -15.801  0.00  0.00    -0.213 OA
ATOM      3  N   UNL     1      34.551 -22.971 -14.668  0.00  0.00    -0.301 N 
ATOM      4  N   UNL     1      35.550 -24.989 -15.440  0.00  0.00    -0.314 NA
ATOM      5  C   UNL     1      37.404 -25.481 -13.919  0.00  0.00    +0.236 C 
ATOM      6  C   UNL     1      35.460 -23.987 -14.626  0.00  0.00    +0.221 C 
ATOM      7  C   UNL     1      36.577 -25.862 -15.143  0.00  0.00    +0.198 C 
ATOM      8  C   UNL     1      37.286 -26.557 -12.843  0.00  0.00    +0.038 C 
ATOM      9  H   UNL     1      34.598 -22.268 -13.981  0.00  0.00    +0.150 HD
ENDROOT
BRANCH   5  13
ATOM     10  F   UNL     1      39.545 -24.762 -13.260  0.00  0.00    -0.168 F 
ATOM     11  F   UNL     1      39.426 -26.361 -14.742  0.00  0.00    -0.168 F 
ATOM     12  F   UNL     1      38.909 -24.314 -15.300  0.00  0.00    -0.168 F 
ATOM     13  C   UNL     1      38.855 -25.224 -14.314  0.00  0.00    +0.420 C 
ENDBRANCH   5  13
BRANCH   3  14
ATOM     14  C   UNL     1      33.532 -22.891 -15.672  0.00  0.00    +0.096 C 
ATOM     15  C   UNL     1      34.042 -23.446 -17.000  0.00  0.00    +0.026 C 
BRANCH  14  17
ATOM     16  F   UNL     1      31.019 -22.469 -16.922  0.00  0.00    -0.204 F 
ATOM     17  C   UNL     1      32.256 -23.563 -15.216  0.00  0.00    +0.023 C 
ATOM     18  C   UNL     1      31.054 -23.309 -15.878  0.00  0.00    +0.138 C 
ATOM     19  C   UNL     1      32.281 -24.438 -14.130  0.00  0.00    -0.000 C 
ATOM     20  C   UNL     1      29.880 -23.931 -15.455  0.00  0.00    +0.029 C 
ATOM     21  C   UNL     1      31.106 -25.060 -13.707  0.00  0.00    -0.000 C 
ATOM     22  C   UNL     1      29.905 -24.805 -14.369  0.00  0.00    +0.002 C 
ENDBRANCH  14  17
ENDBRANCH   3  14
TORSDOF 3
ENDMDL
MODEL 7
REMARK VINA RESULT:      -9.0     12.127     15.550
REMARK  Name = 16105493
REMARK  3 active torsions:
REMARK  status: ('A' for Active; 'I' for Inactive)
REMARK    1  A    between atoms: N_3  and  C_14
REMARK    2  A    between atoms: C_5  and  C_13
REMARK    3  A    between atoms: C_14  and  C_17
REMARK                            x       y       z     vdW  Elec       q    Type
REMARK                         _______ _______ _______ _____ _____    ______ ____
ROOT
ATOM      1  S   UNL     1      34.593  -9.461 -24.050  0.00  0.00    -0.043 S 
ATOM      2  O   UNL     1      30.948  -8.629 -23.180  0.00  0.00    -0.213 OA
ATOM      3  N   UNL     1      33.951 -12.037 -24.188  0.00  0.00    -0.301 N 
ATOM      4  N   UNL     1      32.237 -10.474 -23.654  0.00  0.00    -0.314 NA
ATOM      5  C   UNL     1      33.285  -8.261 -23.646  0.00  0.00    +0.236 C 
ATOM      6  C   UNL     1      33.457 -10.789 -23.949  0.00  0.00    +0.221 C 
ATOM      7  C   UNL     1      32.037  -9.121 -23.468  0.00  0.00    +0.198 C 
ATOM      8  C   UNL     1      33.098  -7.288 -24.806  0.00  0.00    +0.038 C 
ATOM      9  H   UNL     1      34.906 -12.135 -24.402  0.00  0.00    +0.150 HD
ENDROOT
BRANCH   5  13
ATOM     10  F   UNL     1      34.952  -7.349 -22.258  0.00  0.00    -0.168 F 
ATOM     11  F   UNL     1      33.012  -6.348 -22.302  0.00  0.00    -0.168 F 
ATOM     12  F   UNL     1      33.224  -8.273 -21.294  0.00  0.00    -0.168 F 
ATOM     13  C   UNL     1      33.626  -7.541 -22.345  0.00  0.00    +0.420 C 
ENDBRANCH   5  13
BRANCH   3  14
ATOM     14  C   UNL     1      33.131 -13.212 -24.138  0.00  0.00    +0.096 C 
ATOM     15  C   UNL     1      33.166 -13.949 -25.475  0.00  0.00    +0.026 C 
BRANCH  14  17
ATOM     16  F   UNL     1      31.994 -12.971 -21.548  0.00  0.00    -0.204 F 
ATOM     17  C   UNL     1      33.516 -14.103 -22.977  0.00  0.00    +0.023 C 
ATOM     18  C   UNL     1      32.916 -13.928 -21.730  0.00  0.00    +0.138 C 
ATOM     19  C   UNL     1      34.475 -15.100 -23.155  0.00  0.00    -0.000 C 
ATOM     20  C   UNL     1      33.274 -14.750 -20.662  0.00  0.00    +0.029 C 
ATOM     21  C   UNL     1      34.833 -15.923 -22.087  0.00  0.00    -0.000 C 
ATOM     22  C   UNL     1      34.233 -15.747 -20.840  0.00  0.00    +0.002 C 
ENDBRANCH  14  17
ENDBRANCH   3  14
TORSDOF 3
ENDMDL
MODEL 8
REMARK VINA RESULT:      -8.7      6.765     10.377
REMARK  Name = 16105493
REMARK  3 active torsions:
REMARK  status: ('A' for Active; 'I' for Inactive)
REMARK    1  A    between atoms: N_3  and  C_14
REMARK    2  A    between atoms: C_5  and  C_13
REMARK    3  A    between atoms: C_14  and  C_17
REMARK                            x       y       z     vdW  Elec       q    Type
REMARK                         _______ _______ _______ _____ _____    ______ ____
ROOT
ATOM      1  S   UNL     1      34.639 -15.187 -20.654  0.00  0.00    -0.043 S 
ATOM      2  O   UNL     1      33.413 -15.565 -24.272  0.00  0.00    -0.213 OA
ATOM      3  N   UNL     1      35.549 -17.684 -20.724  0.00  0.00    -0.301 N 
ATOM      4  N   UNL     1      34.488 -16.815 -22.669  0.00  0.00    -0.314 NA
ATOM      5  C   UNL     1      33.830 -14.517 -22.142  0.00  0.00    +0.236 C 
ATOM      6  C   UNL     1      34.914 -16.721 -21.451  0.00  0.00    +0.221 C 
ATOM      7  C   UNL     1      33.881 -15.669 -23.141  0.00  0.00    +0.198 C 
ATOM      8  C   UNL     1      34.620 -13.322 -22.666  0.00  0.00    +0.038 C 
ATOM      9  H   UNL     1      35.820 -17.478 -19.801  0.00  0.00    +0.150 HD
ENDROOT
BRANCH   5  13
ATOM     10  F   UNL     1      32.342 -13.269 -20.813  0.00  0.00    -0.168 F 
ATOM     11  F   UNL     1      31.798 -13.603 -22.901  0.00  0.00    -0.168 F 
ATOM     12  F   UNL     1      31.697 -15.249 -21.470  0.00  0.00    -0.168 F 
ATOM     13  C   UNL     1      32.383 -14.151 -21.824  0.00  0.00    +0.420 C 
ENDBRANCH   5  13
BRANCH   3  14
ATOM     14  C   UNL     1      35.837 -18.985 -21.254  0.00  0.00    +0.096 C 
ATOM     15  C   UNL     1      37.340 -19.255 -21.225  0.00  0.00    +0.026 C 
BRANCH  14  17
ATOM     16  F   UNL     1      37.040 -21.125 -19.830  0.00  0.00    -0.204 F 
ATOM     17  C   UNL     1      35.042 -20.057 -20.541  0.00  0.00    +0.023 C 
ATOM     18  C   UNL     1      35.700 -21.081 -19.860  0.00  0.00    +0.138 C 
ATOM     19  C   UNL     1      33.648 -20.021 -20.567  0.00  0.00    -0.000 C 
ATOM     20  C   UNL     1      34.964 -22.068 -19.204  0.00  0.00    +0.029 C 
ATOM     21  C   UNL     1      32.912 -21.009 -19.912  0.00  0.00    -0.000 C 
ATOM     22  C   UNL     1      33.570 -22.033 -19.231  0.00  0.00    +0.002 C 
ENDBRANCH  14  17
ENDBRANCH   3  14
TORSDOF 3
ENDMDL
MODEL 9
REMARK VINA RESULT:      -8.6      3.918      4.822
REMARK  Name = 16105493
REMARK  3 active torsions:
REMARK  status: ('A' for Active; 'I' for Inactive)
REMARK    1  A    between atoms: N_3  and  C_14
REMARK    2  A    between atoms: C_5  and  C_13
REMARK    3  A    between atoms: C_14  and  C_17
REMARK                            x       y       z     vdW  Elec       q    Type
REMARK                         _______ _______ _______ _____ _____    ______ ____
ROOT
ATOM      1  S   UNL     1      35.601 -23.669 -14.494  0.00  0.00    -0.043 S 
ATOM      2  O   UNL     1      35.753 -25.151 -10.956  0.00  0.00    -0.213 OA
ATOM      3  N   UNL     1      32.947 -23.786 -14.407  0.00  0.00    -0.301 N 
ATOM      4  N   UNL     1      34.173 -24.544 -12.513  0.00  0.00    -0.314 NA
ATOM      5  C   UNL     1      36.543 -24.244 -13.045  0.00  0.00    +0.236 C 
ATOM      6  C   UNL     1      34.086 -24.047 -13.704  0.00  0.00    +0.221 C 
ATOM      7  C   UNL     1      35.468 -24.694 -12.060  0.00  0.00    +0.198 C 
ATOM      8  C   UNL     1      37.350 -23.089 -12.460  0.00  0.00    +0.038 C 
ATOM      9  H   UNL     1      33.026 -23.405 -15.311  0.00  0.00    +0.150 HD
ENDROOT
BRANCH   5  13
ATOM     10  F   UNL     1      36.683 -26.520 -13.628  0.00  0.00    -0.168 F 
ATOM     11  F   UNL     1      38.090 -25.144 -14.574  0.00  0.00    -0.168 F 
ATOM     12  F   UNL     1      38.326 -25.668 -12.468  0.00  0.00    -0.168 F 
ATOM     13  C   UNL     1      37.431 -25.421 -13.438  0.00  0.00    +0.420 C 
ENDBRANCH   5  13
BRANCH   3  14
ATOM     14  C   UNL     1      31.640 -24.048 -13.879  0.00  0.00    +0.096 C 
ATOM     15  C   UNL     1      31.378 -23.189 -12.644  0.00  0.00    +0.026 C 
BRANCH  14  17
ATOM     16  F   UNL     1      29.902 -26.140 -14.692  0.00  0.00    -0.204 F 
ATOM     17  C   UNL     1      30.574 -23.876 -14.940  0.00  0.00    +0.023 C 
ATOM     18  C   UNL     1      29.754 -24.949 -15.290  0.00  0.00    +0.138 C 
ATOM     19  C   UNL     1      30.413 -22.642 -15.569  0.00  0.00    -0.000 C 
ATOM     20  C   UNL     1      28.774 -24.787 -16.268  0.00  0.00    +0.029 C 
ATOM     21  C   UNL     1      29.432 -22.480 -16.548  0.00  0.00    -0.000 C 
ATOM     22  C   UNL     1      28.613 -23.553 -16.898  0.00  0.00    +0.002 C 
ENDBRANCH  14  17
ENDBRANCH   3  14
TORSDOF 3
ENDMDL
