MODEL 1
REMARK VINA RESULT:      -5.6      0.000      0.000
REMARK  Name = 79143
REMARK  0 active torsions:
REMARK  status: ('A' for Active; 'I' for Inactive)
REMARK                            x       y       z     vdW  Elec       q    Type
REMARK                         _______ _______ _______ _____ _____    ______ ____
ROOT
ATOM      1  O   UNL     1      36.913 -20.699 -20.149  0.00  0.00    -0.193 OA
ATOM      2  N   UNL     1      35.107 -19.523 -20.969  0.00  0.00    -0.203 N 
ATOM      3  N   UNL     1      34.851 -21.425 -19.539  0.00  0.00    -0.306 NA
ATOM      4  N   UNL     1      32.734 -22.166 -18.920  0.00  0.00    -0.332 N 
ATOM      5  C   UNL     1      33.740 -19.382 -21.033  0.00  0.00    +0.081 C 
ATOM      6  C   UNL     1      32.915 -20.207 -20.391  0.00  0.00    +0.065 C 
ATOM      7  C   UNL     1      35.691 -20.557 -20.216  0.00  0.00    +0.274 C 
ATOM      8  C   UNL     1      35.927 -18.569 -21.708  0.00  0.00    +0.132 C 
ATOM      9  C   UNL     1      33.551 -21.291 -19.600  0.00  0.00    +0.193 C 
ATOM     10  H   UNL     1      33.128 -22.894 -18.387  0.00  0.00    +0.145 HD
ATOM     11  H   UNL     1      31.757 -22.062 -18.967  0.00  0.00    +0.145 HD
ENDROOT
TORSDOF 0
ENDMDL
MODEL 2
REMARK VINA RESULT:      -5.5      7.900      9.022
REMARK  Name = 79143
REMARK  0 active torsions:
REMARK  status: ('A' for Active; 'I' for Inactive)
REMARK                            x       y       z     vdW  Elec       q    Type
REMARK                         _______ _______ _______ _____ _____    ______ ____
ROOT
ATOM      1  O   UNL     1      36.396 -27.048 -15.942  0.00  0.00    -0.193 OA
ATOM      2  N   UNL     1      36.571 -25.275 -14.479  0.00  0.00    -0.203 N 
ATOM      3  N   UNL     1      38.419 -26.716 -14.967  0.00  0.00    -0.306 NA
ATOM      4  N   UNL     1      40.488 -26.372 -13.962  0.00  0.00    -0.332 N 
ATOM      5  C   UNL     1      37.361 -24.546 -13.620  0.00  0.00    +0.081 C 
ATOM      6  C   UNL     1      38.640 -24.851 -13.409  0.00  0.00    +0.065 C 
ATOM      7  C   UNL     1      37.090 -26.383 -15.172  0.00  0.00    +0.274 C 
ATOM      8  C   UNL     1      35.181 -24.862 -14.643  0.00  0.00    +0.132 C 
ATOM      9  C   UNL     1      39.170 -26.023 -14.151  0.00  0.00    +0.193 C 
ATOM     10  H   UNL     1      40.866 -27.144 -14.441  0.00  0.00    +0.145 HD
ATOM     11  H   UNL     1      41.051 -25.849 -13.348  0.00  0.00    +0.145 HD
ENDROOT
TORSDOF 0
ENDMDL
MODEL 3
REMARK VINA RESULT:      -5.4      5.639      7.184
REMARK  Name = 79143
REMARK  0 active torsions:
REMARK  status: ('A' for Active; 'I' for Inactive)
REMARK                            x       y       z     vdW  Elec       q    Type
REMARK                         _______ _______ _______ _____ _____    ______ ____
ROOT
ATOM      1  O   UNL     1      34.693 -17.888 -25.566  0.00  0.00    -0.193 OA
ATOM      2  N   UNL     1      34.479 -16.279 -23.929  0.00  0.00    -0.203 N 
ATOM      3  N   UNL     1      33.553 -16.005 -26.118  0.00  0.00    -0.306 NA
ATOM      4  N   UNL     1      32.388 -14.071 -26.679  0.00  0.00    -0.332 N 
ATOM      5  C   UNL     1      33.995 -15.044 -23.564  0.00  0.00    +0.081 C 
ATOM      6  C   UNL     1      33.309 -14.278 -24.411  0.00  0.00    +0.065 C 
ATOM      7  C   UNL     1      34.265 -16.785 -25.223  0.00  0.00    +0.274 C 
ATOM      8  C   UNL     1      35.219 -17.043 -22.930  0.00  0.00    +0.132 C 
ATOM      9  C   UNL     1      33.093 -14.831 -25.773  0.00  0.00    +0.193 C 
ATOM     10  H   UNL     1      32.229 -14.412 -27.588  0.00  0.00    +0.145 HD
ATOM     11  H   UNL     1      32.042 -13.188 -26.416  0.00  0.00    +0.145 HD
ENDROOT
TORSDOF 0
ENDMDL
MODEL 4
REMARK VINA RESULT:      -5.4      1.913      2.498
REMARK  Name = 79143
REMARK  0 active torsions:
REMARK  status: ('A' for Active; 'I' for Inactive)
REMARK                            x       y       z     vdW  Elec       q    Type
REMARK                         _______ _______ _______ _____ _____    ______ ____
ROOT
ATOM      1  O   UNL     1      32.468 -19.862 -20.878  0.00  0.00    -0.193 OA
ATOM      2  N   UNL     1      34.679 -20.284 -20.380  0.00  0.00    -0.203 N 
ATOM      3  N   UNL     1      32.895 -21.612 -19.497  0.00  0.00    -0.306 NA
ATOM      4  N   UNL     1      33.339 -23.402 -18.080  0.00  0.00    -0.332 N 
ATOM      5  C   UNL     1      35.595 -21.060 -19.708  0.00  0.00    +0.081 C 
ATOM      6  C   UNL     1      35.224 -22.087 -18.945  0.00  0.00    +0.065 C 
ATOM      7  C   UNL     1      33.301 -20.548 -20.284  0.00  0.00    +0.274 C 
ATOM      8  C   UNL     1      35.184 -19.181 -21.191  0.00  0.00    +0.132 C 
ATOM      9  C   UNL     1      33.764 -22.350 -18.858  0.00  0.00    +0.193 C 
ATOM     10  H   UNL     1      32.378 -23.601 -18.005  0.00  0.00    +0.145 HD
ATOM     11  H   UNL     1      33.995 -23.957 -17.601  0.00  0.00    +0.145 HD
ENDROOT
TORSDOF 0
ENDMDL
MODEL 5
REMARK VINA RESULT:      -5.4      8.971      9.638
REMARK  Name = 79143
REMARK  0 active torsions:
REMARK  status: ('A' for Active; 'I' for Inactive)
REMARK                            x       y       z     vdW  Elec       q    Type
REMARK                         _______ _______ _______ _____ _____    ______ ____
ROOT
ATOM      1  O   UNL     1      41.593 -17.784 -17.012  0.00  0.00    -0.193 OA
ATOM      2  N   UNL     1      42.377 -15.762 -17.798  0.00  0.00    -0.203 N 
ATOM      3  N   UNL     1      41.052 -15.935 -15.812  0.00  0.00    -0.306 NA
ATOM      4  N   UNL     1      40.498 -14.036 -14.589  0.00  0.00    -0.332 N 
ATOM      5  C   UNL     1      42.450 -14.398 -17.636  0.00  0.00    +0.081 C 
ATOM      6  C   UNL     1      41.861 -13.777 -16.616  0.00  0.00    +0.065 C 
ATOM      7  C   UNL     1      41.670 -16.561 -16.882  0.00  0.00    +0.274 C 
ATOM      8  C   UNL     1      43.055 -16.350 -18.949  0.00  0.00    +0.132 C 
ATOM      9  C   UNL     1      41.120 -14.638 -15.658  0.00  0.00    +0.193 C 
ATOM     10  H   UNL     1      40.001 -14.581 -13.938  0.00  0.00    +0.145 HD
ATOM     11  H   UNL     1      40.552 -13.060 -14.475  0.00  0.00    +0.145 HD
ENDROOT
TORSDOF 0
ENDMDL
MODEL 6
REMARK VINA RESULT:      -5.4      9.591      9.880
REMARK  Name = 79143
REMARK  0 active torsions:
REMARK  status: ('A' for Active; 'I' for Inactive)
REMARK                            x       y       z     vdW  Elec       q    Type
REMARK                         _______ _______ _______ _____ _____    ______ ____
ROOT
ATOM      1  O   UNL     1      38.340 -22.799 -11.571  0.00  0.00    -0.193 OA
ATOM      2  N   UNL     1      36.925 -24.544 -12.088  0.00  0.00    -0.203 N 
ATOM      3  N   UNL     1      39.168 -24.432 -12.912  0.00  0.00    -0.306 NA
ATOM      4  N   UNL     1      40.011 -26.107 -14.288  0.00  0.00    -0.332 N 
ATOM      5  C   UNL     1      36.735 -25.734 -12.752  0.00  0.00    +0.081 C 
ATOM      6  C   UNL     1      37.697 -26.293 -13.484  0.00  0.00    +0.065 C 
ATOM      7  C   UNL     1      38.154 -23.866 -12.158  0.00  0.00    +0.274 C 
ATOM      8  C   UNL     1      35.809 -24.011 -11.313  0.00  0.00    +0.132 C 
ATOM      9  C   UNL     1      38.990 -25.562 -13.544  0.00  0.00    +0.193 C 
ATOM     10  H   UNL     1      40.878 -25.645 -14.346  0.00  0.00    +0.145 HD
ATOM     11  H   UNL     1      39.874 -26.959 -14.762  0.00  0.00    +0.145 HD
ENDROOT
TORSDOF 0
ENDMDL
MODEL 7
REMARK VINA RESULT:      -5.4      3.171      4.176
REMARK  Name = 79143
REMARK  0 active torsions:
REMARK  status: ('A' for Active; 'I' for Inactive)
REMARK                            x       y       z     vdW  Elec       q    Type
REMARK                         _______ _______ _______ _____ _____    ______ ____
ROOT
ATOM      1  O   UNL     1      34.800 -15.266 -20.605  0.00  0.00    -0.193 OA
ATOM      2  N   UNL     1      34.849 -16.329 -22.650  0.00  0.00    -0.203 N 
ATOM      3  N   UNL     1      35.289 -17.482 -20.600  0.00  0.00    -0.306 NA
ATOM      4  N   UNL     1      35.792 -19.753 -20.603  0.00  0.00    -0.332 N 
ATOM      5  C   UNL     1      35.045 -17.495 -23.354  0.00  0.00    +0.081 C 
ATOM      6  C   UNL     1      35.354 -18.640 -22.748  0.00  0.00    +0.065 C 
ATOM      7  C   UNL     1      34.970 -16.302 -21.250  0.00  0.00    +0.274 C 
ATOM      8  C   UNL     1      34.515 -15.125 -23.405  0.00  0.00    +0.132 C 
ATOM      9  C   UNL     1      35.475 -18.591 -21.268  0.00  0.00    +0.193 C 
ATOM     10  H   UNL     1      35.879 -19.751 -19.622  0.00  0.00    +0.145 HD
ATOM     11  H   UNL     1      35.931 -20.586 -21.108  0.00  0.00    +0.145 HD
ENDROOT
TORSDOF 0
ENDMDL
MODEL 8
REMARK VINA RESULT:      -5.3      5.415      6.549
REMARK  Name = 79143
REMARK  0 active torsions:
REMARK  status: ('A' for Active; 'I' for Inactive)
REMARK                            x       y       z     vdW  Elec       q    Type
REMARK                         _______ _______ _______ _____ _____    ______ ____
ROOT
ATOM      1  O   UNL     1      33.363 -15.477 -26.669  0.00  0.00    -0.193 OA
ATOM      2  N   UNL     1      33.842 -15.028 -24.459  0.00  0.00    -0.203 N 
ATOM      3  N   UNL     1      34.220 -17.179 -25.436  0.00  0.00    -0.306 NA
ATOM      4  N   UNL     1      35.096 -18.920 -24.167  0.00  0.00    -0.332 N 
ATOM      5  C   UNL     1      34.314 -15.488 -23.251  0.00  0.00    +0.081 C 
ATOM      6  C   UNL     1      34.735 -16.741 -23.091  0.00  0.00    +0.065 C 
ATOM      7  C   UNL     1      33.785 -15.872 -25.581  0.00  0.00    +0.274 C 
ATOM      8  C   UNL     1      33.401 -13.638 -24.534  0.00  0.00    +0.132 C 
ATOM      9  C   UNL     1      34.669 -17.617 -24.289  0.00  0.00    +0.193 C 
ATOM     10  H   UNL     1      35.064 -19.523 -24.944  0.00  0.00    +0.145 HD
ATOM     11  H   UNL     1      35.434 -19.247 -23.302  0.00  0.00    +0.145 HD
ENDROOT
TORSDOF 0
ENDMDL
MODEL 9
REMARK VINA RESULT:      -5.3      1.310      3.151
REMARK  Name = 79143
REMARK  0 active torsions:
REMARK  status: ('A' for Active; 'I' for Inactive)
REMARK                            x       y       z     vdW  Elec       q    Type
REMARK                         _______ _______ _______ _____ _____    ______ ____
ROOT
ATOM      1  O   UNL     1      36.251 -22.070 -18.703  0.00  0.00    -0.193 OA
ATOM      2  N   UNL     1      34.098 -21.521 -19.321  0.00  0.00    -0.203 N 
ATOM      3  N   UNL     1      36.006 -20.339 -20.150  0.00  0.00    -0.306 NA
ATOM      4  N   UNL     1      35.749 -18.563 -21.631  0.00  0.00    -0.332 N 
ATOM      5  C   UNL     1      33.268 -20.706 -20.055  0.00  0.00    +0.081 C 
ATOM      6  C   UNL     1      33.742 -19.727 -20.824  0.00  0.00    +0.065 C 
ATOM      7  C   UNL     1      35.493 -21.350 -19.355  0.00  0.00    +0.274 C 
ATOM      8  C   UNL     1      33.484 -22.565 -18.508  0.00  0.00    +0.132 C 
ATOM      9  C   UNL     1      35.218 -19.563 -20.848  0.00  0.00    +0.193 C 
ATOM     10  H   UNL     1      36.724 -18.432 -21.667  0.00  0.00    +0.145 HD
ATOM     11  H   UNL     1      35.153 -17.981 -22.156  0.00  0.00    +0.145 HD
ENDROOT
TORSDOF 0
ENDMDL
