MODEL 1
REMARK VINA RESULT:      -9.6      0.000      0.000
REMARK  Name = 24764442
REMARK  6 active torsions:
REMARK  status: ('A' for Active; 'I' for Inactive)
REMARK    1  A    between atoms: C_2  and  C_17
REMARK    2  A    between atoms: C_3  and  N_19
REMARK    3  A    between atoms: C_20  and  C_22
REMARK    4  A    between atoms: C_22  and  C_23
REMARK    5  A    between atoms: C_23  and  C_25
REMARK    6  A    between atoms: C_25  and  O_26
REMARK                            x       y       z     vdW  Elec       q    Type
REMARK                         _______ _______ _______ _____ _____    ______ ____
ROOT
ATOM      1 BR   UNL     1      37.250 -23.794 -15.164  0.00  0.00    -0.049 Br
ATOM      2  C   UNL     1      33.330 -23.136 -16.397  0.00  0.00    +0.068 C 
ATOM      3  C   UNL     1      32.576 -23.664 -15.349  0.00  0.00    +0.055 C 
ATOM      4  C   UNL     1      34.723 -23.175 -16.342  0.00  0.00    +0.012 C 
ATOM      5  C   UNL     1      33.215 -24.231 -14.245  0.00  0.00    +0.015 C 
ATOM      6  C   UNL     1      35.362 -23.740 -15.239  0.00  0.00    +0.035 C 
ATOM      7  C   UNL     1      34.609 -24.269 -14.191  0.00  0.00    +0.008 C 
ENDROOT
BRANCH   2  17
ATOM      8  O   UNL     1      31.480 -22.325 -17.484  0.00  0.00    -0.270 OA
ATOM      9  N   UNL     1      33.488 -22.232 -18.677  0.00  0.00    -0.276 N 
ATOM     10  C   UNL     1      35.692 -21.210 -19.091  0.00  0.00    +0.020 C 
ATOM     11  C   UNL     1      33.597 -20.299 -20.202  0.00  0.00    +0.020 C 
ATOM     12  C   UNL     1      35.114 -20.521 -20.339  0.00  0.00    +0.003 C 
ATOM     13  C   UNL     1      34.927 -22.505 -18.794  0.00  0.00    +0.094 C 
ATOM     14  C   UNL     1      32.886 -21.616 -19.861  0.00  0.00    +0.094 C 
ATOM     15  C   UNL     1      37.182 -21.489 -19.267  0.00  0.00    +0.002 C 
ATOM     16  C   UNL     1      33.022 -19.687 -21.475  0.00  0.00    +0.002 C 
ATOM     17  C   UNL     1      32.689 -22.533 -17.572  0.00  0.00    +0.250 C 
ENDBRANCH   2  17
BRANCH   3  19
ATOM     18  O   UNL     1      30.567 -25.812 -14.723  0.00  0.00    -0.275 OA
ATOM     19  N   UNL     1      31.178 -23.637 -15.383  0.00  0.00    -0.284 N 
ATOM     20  C   UNL     1      30.287 -24.674 -15.086  0.00  0.00    +0.227 C 
ATOM     21  H   UNL     1      30.771 -22.780 -15.647  0.00  0.00    +0.155 HD
BRANCH  20  22
ATOM     22  C   UNL     1      28.837 -24.249 -15.239  0.00  0.00    +0.097 C 
BRANCH  22  23
ATOM     23  C   UNL     1      28.378 -24.375 -16.688  0.00  0.00    +0.119 C 
BRANCH  23  25
ATOM     24  O   UNL     1      27.026 -22.883 -18.022  0.00  0.00    -0.250 OA
ATOM     25  C   UNL     1      27.976 -23.042 -17.267  0.00  0.00    +0.314 C 
BRANCH  25  26
ATOM     26  O   UNL     1      28.777 -22.029 -16.852  0.00  0.00    -0.480 OA
ATOM     27  H   UNL     1      28.434 -21.158 -16.787  0.00  0.00    +0.295 HD
ENDBRANCH  25  26
ENDBRANCH  23  25
ENDBRANCH  22  23
ENDBRANCH  20  22
ENDBRANCH   3  19
TORSDOF 6
ENDMDL
MODEL 2
REMARK VINA RESULT:      -9.3      1.530      2.073
REMARK  Name = 24764442
REMARK  6 active torsions:
REMARK  status: ('A' for Active; 'I' for Inactive)
REMARK    1  A    between atoms: C_2  and  C_17
REMARK    2  A    between atoms: C_3  and  N_19
REMARK    3  A    between atoms: C_20  and  C_22
REMARK    4  A    between atoms: C_22  and  C_23
REMARK    5  A    between atoms: C_23  and  C_25
REMARK    6  A    between atoms: C_25  and  O_26
REMARK                            x       y       z     vdW  Elec       q    Type
REMARK                         _______ _______ _______ _____ _____    ______ ____
ROOT
ATOM      1 BR   UNL     1      35.277 -24.157 -12.677  0.00  0.00    -0.049 Br
ATOM      2  C   UNL     1      32.657 -23.318 -15.800  0.00  0.00    +0.068 C 
ATOM      3  C   UNL     1      31.404 -23.535 -15.229  0.00  0.00    +0.055 C 
ATOM      4  C   UNL     1      33.812 -23.503 -15.041  0.00  0.00    +0.012 C 
ATOM      5  C   UNL     1      31.304 -23.937 -13.897  0.00  0.00    +0.015 C 
ATOM      6  C   UNL     1      33.713 -23.905 -13.708  0.00  0.00    +0.035 C 
ATOM      7  C   UNL     1      32.459 -24.123 -13.137  0.00  0.00    +0.008 C 
ENDROOT
BRANCH   2  17
ATOM      8  O   UNL     1      31.754 -22.610 -17.788  0.00  0.00    -0.270 OA
ATOM      9  N   UNL     1      34.081 -22.830 -17.744  0.00  0.00    -0.276 N 
ATOM     10  C   UNL     1      36.300 -22.012 -17.053  0.00  0.00    +0.020 C 
ATOM     11  C   UNL     1      35.216 -21.199 -19.200  0.00  0.00    +0.020 C 
ATOM     12  C   UNL     1      36.542 -21.521 -18.490  0.00  0.00    +0.003 C 
ATOM     13  C   UNL     1      35.324 -23.195 -17.051  0.00  0.00    +0.094 C 
ATOM     14  C   UNL     1      34.260 -22.398 -19.131  0.00  0.00    +0.094 C 
ATOM     15  C   UNL     1      37.617 -22.396 -16.382  0.00  0.00    +0.002 C 
ATOM     16  C   UNL     1      35.462 -20.786 -20.648  0.00  0.00    +0.002 C 
ATOM     17  C   UNL     1      32.796 -22.893 -17.199  0.00  0.00    +0.250 C 
ENDBRANCH   2  17
BRANCH   3  19
ATOM     18  O   UNL     1      28.909 -25.208 -15.373  0.00  0.00    -0.275 OA
ATOM     19  N   UNL     1      30.232 -23.355 -15.972  0.00  0.00    -0.284 N 
ATOM     20  C   UNL     1      29.098 -24.174 -16.006  0.00  0.00    +0.227 C 
ATOM     21  H   UNL     1      30.203 -22.553 -16.541  0.00  0.00    +0.155 HD
BRANCH  20  22
ATOM     22  C   UNL     1      28.028 -23.637 -16.942  0.00  0.00    +0.097 C 
BRANCH  22  23
ATOM     23  C   UNL     1      27.939 -22.117 -16.859  0.00  0.00    +0.119 C 
BRANCH  23  25
ATOM     24  O   UNL     1      25.602 -21.944 -16.268  0.00  0.00    -0.250 OA
ATOM     25  C   UNL     1      26.520 -21.630 -17.015  0.00  0.00    +0.314 C 
BRANCH  25  26
ATOM     26  O   UNL     1      26.369 -20.790 -18.070  0.00  0.00    -0.480 OA
ATOM     27  H   UNL     1      26.985 -20.809 -18.776  0.00  0.00    +0.295 HD
ENDBRANCH  25  26
ENDBRANCH  23  25
ENDBRANCH  22  23
ENDBRANCH  20  22
ENDBRANCH   3  19
TORSDOF 6
ENDMDL
MODEL 3
REMARK VINA RESULT:      -8.5      3.700      7.195
REMARK  Name = 24764442
REMARK  6 active torsions:
REMARK  status: ('A' for Active; 'I' for Inactive)
REMARK    1  A    between atoms: C_2  and  C_17
REMARK    2  A    between atoms: C_3  and  N_19
REMARK    3  A    between atoms: C_20  and  C_22
REMARK    4  A    between atoms: C_22  and  C_23
REMARK    5  A    between atoms: C_23  and  C_25
REMARK    6  A    between atoms: C_25  and  O_26
REMARK                            x       y       z     vdW  Elec       q    Type
REMARK                         _______ _______ _______ _____ _____    ______ ____
ROOT
ATOM      1 BR   UNL     1      34.299 -21.835 -19.605  0.00  0.00    -0.049 Br
ATOM      2  C   UNL     1      35.021 -23.312 -15.782  0.00  0.00    +0.068 C 
ATOM      3  C   UNL     1      36.341 -22.933 -15.541  0.00  0.00    +0.055 C 
ATOM      4  C   UNL     1      34.412 -22.986 -16.993  0.00  0.00    +0.012 C 
ATOM      5  C   UNL     1      37.053 -22.226 -16.510  0.00  0.00    +0.015 C 
ATOM      6  C   UNL     1      35.123 -22.278 -17.963  0.00  0.00    +0.035 C 
ATOM      7  C   UNL     1      36.443 -21.899 -17.721  0.00  0.00    +0.008 C 
ENDROOT
BRANCH   2  17
ATOM      8  O   UNL     1      34.871 -24.480 -13.813  0.00  0.00    -0.270 OA
ATOM      9  N   UNL     1      32.873 -24.213 -14.997  0.00  0.00    -0.276 N 
ATOM     10  C   UNL     1      30.985 -22.810 -15.729  0.00  0.00    +0.020 C 
ATOM     11  C   UNL     1      30.909 -24.058 -13.518  0.00  0.00    +0.020 C 
ATOM     12  C   UNL     1      30.086 -23.522 -14.704  0.00  0.00    +0.003 C 
ATOM     13  C   UNL     1      32.128 -23.732 -16.167  0.00  0.00    +0.094 C 
ATOM     14  C   UNL     1      32.064 -24.937 -14.015  0.00  0.00    +0.094 C 
ATOM     15  C   UNL     1      30.171 -22.345 -16.933  0.00  0.00    +0.002 C 
ATOM     16  C   UNL     1      30.020 -24.828 -12.546  0.00  0.00    +0.002 C 
ATOM     17  C   UNL     1      34.245 -24.057 -14.782  0.00  0.00    +0.250 C 
ENDBRANCH   2  17
BRANCH   3  19
ATOM     18  O   UNL     1      38.487 -24.950 -14.932  0.00  0.00    -0.275 OA
ATOM     19  N   UNL     1      36.973 -23.250 -14.333  0.00  0.00    -0.284 N 
ATOM     20  C   UNL     1      37.966 -24.208 -14.104  0.00  0.00    +0.227 C 
ATOM     21  H   UNL     1      36.681 -22.734 -13.547  0.00  0.00    +0.155 HD
BRANCH  20  22
ATOM     22  C   UNL     1      38.399 -24.253 -12.649  0.00  0.00    +0.097 C 
BRANCH  22  23
ATOM     23  C   UNL     1      37.462 -23.431 -11.771  0.00  0.00    +0.119 C 
BRANCH  23  25
ATOM     24  O   UNL     1      36.168 -24.005  -9.813  0.00  0.00    -0.250 OA
ATOM     25  C   UNL     1      36.569 -24.308 -10.930  0.00  0.00    +0.314 C 
BRANCH  25  26
ATOM     26  O   UNL     1      36.243 -25.470 -11.549  0.00  0.00    -0.480 OA
ATOM     27  H   UNL     1      36.508 -25.618 -12.436  0.00  0.00    +0.295 HD
ENDBRANCH  25  26
ENDBRANCH  23  25
ENDBRANCH  22  23
ENDBRANCH  20  22
ENDBRANCH   3  19
TORSDOF 6
ENDMDL
MODEL 4
REMARK VINA RESULT:      -8.3      2.344      4.945
REMARK  Name = 24764442
REMARK  6 active torsions:
REMARK  status: ('A' for Active; 'I' for Inactive)
REMARK    1  A    between atoms: C_2  and  C_17
REMARK    2  A    between atoms: C_3  and  N_19
REMARK    3  A    between atoms: C_20  and  C_22
REMARK    4  A    between atoms: C_22  and  C_23
REMARK    5  A    between atoms: C_23  and  C_25
REMARK    6  A    between atoms: C_25  and  O_26
REMARK                            x       y       z     vdW  Elec       q    Type
REMARK                         _______ _______ _______ _____ _____    ______ ____
ROOT
ATOM      1 BR   UNL     1      36.975 -21.287 -19.362  0.00  0.00    -0.049 Br
ATOM      2  C   UNL     1      34.374 -22.861 -16.520  0.00  0.00    +0.068 C 
ATOM      3  C   UNL     1      33.236 -23.164 -17.267  0.00  0.00    +0.055 C 
ATOM      4  C   UNL     1      35.489 -22.301 -17.144  0.00  0.00    +0.012 C 
ATOM      5  C   UNL     1      33.212 -22.909 -18.638  0.00  0.00    +0.015 C 
ATOM      6  C   UNL     1      35.466 -22.046 -18.515  0.00  0.00    +0.035 C 
ATOM      7  C   UNL     1      34.327 -22.349 -19.262  0.00  0.00    +0.008 C 
ENDROOT
BRANCH   2  17
ATOM      8  O   UNL     1      33.351 -23.196 -14.494  0.00  0.00    -0.270 OA
ATOM      9  N   UNL     1      35.688 -23.267 -14.483  0.00  0.00    -0.276 N 
ATOM     10  C   UNL     1      37.801 -24.429 -14.989  0.00  0.00    +0.020 C 
ATOM     11  C   UNL     1      36.581 -24.826 -12.797  0.00  0.00    +0.020 C 
ATOM     12  C   UNL     1      37.951 -24.760 -13.494  0.00  0.00    +0.003 C 
ATOM     13  C   UNL     1      36.980 -23.147 -15.171  0.00  0.00    +0.094 C 
ATOM     14  C   UNL     1      35.784 -23.538 -13.048  0.00  0.00    +0.094 C 
ATOM     15  C   UNL     1      39.168 -24.296 -15.655  0.00  0.00    +0.002 C 
ATOM     16  C   UNL     1      36.746 -25.079 -11.301  0.00  0.00    +0.002 C 
ATOM     17  C   UNL     1      34.432 -23.118 -15.076  0.00  0.00    +0.250 C 
ENDBRANCH   2  17
BRANCH   3  19
ATOM     18  O   UNL     1      30.438 -22.098 -16.990  0.00  0.00    -0.275 OA
ATOM     19  N   UNL     1      32.107 -23.726 -16.662  0.00  0.00    -0.284 N 
ATOM     20  C   UNL     1      30.823 -23.180 -16.556  0.00  0.00    +0.227 C 
ATOM     21  H   UNL     1      32.231 -24.617 -16.263  0.00  0.00    +0.155 HD
BRANCH  20  22
ATOM     22  C   UNL     1      29.863 -24.102 -15.824  0.00  0.00    +0.097 C 
BRANCH  22  23
ATOM     23  C   UNL     1      28.522 -23.419 -15.583  0.00  0.00    +0.119 C 
BRANCH  23  25
ATOM     24  O   UNL     1      27.513 -23.927 -17.719  0.00  0.00    -0.250 OA
ATOM     25  C   UNL     1      27.818 -23.093 -16.876  0.00  0.00    +0.314 C 
BRANCH  25  26
ATOM     26  O   UNL     1      27.543 -21.771 -17.003  0.00  0.00    -0.480 OA
ATOM     27  H   UNL     1      26.901 -21.371 -16.450  0.00  0.00    +0.295 HD
ENDBRANCH  25  26
ENDBRANCH  23  25
ENDBRANCH  22  23
ENDBRANCH  20  22
ENDBRANCH   3  19
TORSDOF 6
ENDMDL
MODEL 5
REMARK VINA RESULT:      -8.3      2.475      5.386
REMARK  Name = 24764442
REMARK  6 active torsions:
REMARK  status: ('A' for Active; 'I' for Inactive)
REMARK    1  A    between atoms: C_2  and  C_17
REMARK    2  A    between atoms: C_3  and  N_19
REMARK    3  A    between atoms: C_20  and  C_22
REMARK    4  A    between atoms: C_22  and  C_23
REMARK    5  A    between atoms: C_23  and  C_25
REMARK    6  A    between atoms: C_25  and  O_26
REMARK                            x       y       z     vdW  Elec       q    Type
REMARK                         _______ _______ _______ _____ _____    ______ ____
ROOT
ATOM      1 BR   UNL     1      36.870 -21.299 -19.389  0.00  0.00    -0.049 Br
ATOM      2  C   UNL     1      34.400 -22.819 -16.404  0.00  0.00    +0.068 C 
ATOM      3  C   UNL     1      33.244 -23.170 -17.099  0.00  0.00    +0.055 C 
ATOM      4  C   UNL     1      35.482 -22.261 -17.086  0.00  0.00    +0.012 C 
ATOM      5  C   UNL     1      33.167 -22.965 -18.477  0.00  0.00    +0.015 C 
ATOM      6  C   UNL     1      35.406 -22.055 -18.463  0.00  0.00    +0.035 C 
ATOM      7  C   UNL     1      34.249 -22.406 -19.159  0.00  0.00    +0.008 C 
ENDROOT
BRANCH   2  17
ATOM      8  O   UNL     1      33.458 -23.021 -14.322  0.00  0.00    -0.270 OA
ATOM      9  N   UNL     1      35.786 -23.216 -14.413  0.00  0.00    -0.276 N 
ATOM     10  C   UNL     1      37.810 -24.507 -14.965  0.00  0.00    +0.020 C 
ATOM     11  C   UNL     1      36.676 -24.754 -12.707  0.00  0.00    +0.020 C 
ATOM     12  C   UNL     1      38.014 -24.788 -13.467  0.00  0.00    +0.003 C 
ATOM     13  C   UNL     1      37.049 -23.191 -15.162  0.00  0.00    +0.094 C 
ATOM     14  C   UNL     1      35.936 -23.437 -12.974  0.00  0.00    +0.094 C 
ATOM     15  C   UNL     1      39.149 -24.473 -15.698  0.00  0.00    +0.002 C 
ATOM     16  C   UNL     1      36.898 -24.958 -11.211  0.00  0.00    +0.002 C 
ATOM     17  C   UNL     1      34.513 -23.023 -14.954  0.00  0.00    +0.250 C 
ENDBRANCH   2  17
BRANCH   3  19
ATOM     18  O   UNL     1      30.360 -22.319 -17.033  0.00  0.00    -0.275 OA
ATOM     19  N   UNL     1      32.147 -23.731 -16.436  0.00  0.00    -0.284 N 
ATOM     20  C   UNL     1      30.820 -23.288 -16.435  0.00  0.00    +0.227 C 
ATOM     21  H   UNL     1      32.333 -24.539 -15.905  0.00  0.00    +0.155 HD
BRANCH  20  22
ATOM     22  C   UNL     1      29.918 -24.171 -15.589  0.00  0.00    +0.097 C 
BRANCH  22  23
ATOM     23  C   UNL     1      30.718 -25.265 -14.892  0.00  0.00    +0.119 C 
BRANCH  23  25
ATOM     24  O   UNL     1      30.396 -24.233 -12.731  0.00  0.00    -0.250 OA
ATOM     25  C   UNL     1      31.116 -24.865 -13.493  0.00  0.00    +0.314 C 
BRANCH  25  26
ATOM     26  O   UNL     1      32.360 -25.293 -13.161  0.00  0.00    -0.480 OA
ATOM     27  H   UNL     1      32.538 -25.581 -12.287  0.00  0.00    +0.295 HD
ENDBRANCH  25  26
ENDBRANCH  23  25
ENDBRANCH  22  23
ENDBRANCH  20  22
ENDBRANCH   3  19
TORSDOF 6
ENDMDL
MODEL 6
REMARK VINA RESULT:      -8.2      7.335     10.880
REMARK  Name = 24764442
REMARK  6 active torsions:
REMARK  status: ('A' for Active; 'I' for Inactive)
REMARK    1  A    between atoms: C_2  and  C_17
REMARK    2  A    between atoms: C_3  and  N_19
REMARK    3  A    between atoms: C_20  and  C_22
REMARK    4  A    between atoms: C_22  and  C_23
REMARK    5  A    between atoms: C_23  and  C_25
REMARK    6  A    between atoms: C_25  and  O_26
REMARK                            x       y       z     vdW  Elec       q    Type
REMARK                         _______ _______ _______ _____ _____    ______ ____
ROOT
ATOM      1 BR   UNL     1      33.081 -13.221 -27.122  0.00  0.00    -0.049 Br
ATOM      2  C   UNL     1      33.156 -14.729 -23.243  0.00  0.00    +0.068 C 
ATOM      3  C   UNL     1      33.925 -15.885 -23.369  0.00  0.00    +0.055 C 
ATOM      4  C   UNL     1      32.903 -13.935 -24.362  0.00  0.00    +0.012 C 
ATOM      5  C   UNL     1      34.445 -16.247 -24.612  0.00  0.00    +0.015 C 
ATOM      6  C   UNL     1      33.422 -14.296 -25.605  0.00  0.00    +0.035 C 
ATOM      7  C   UNL     1      34.192 -15.452 -25.730  0.00  0.00    +0.008 C 
ENDROOT
BRANCH   2  17
ATOM      8  O   UNL     1      32.690 -15.135 -21.034  0.00  0.00    -0.270 OA
ATOM      9  N   UNL     1      32.019 -13.051 -21.852  0.00  0.00    -0.276 N 
ATOM     10  C   UNL     1      32.556 -10.760 -22.584  0.00  0.00    +0.020 C 
ATOM     11  C   UNL     1      32.115 -11.283 -20.139  0.00  0.00    +0.020 C 
ATOM     12  C   UNL     1      32.000 -10.228 -21.252  0.00  0.00    +0.003 C 
ATOM     13  C   UNL     1      31.880 -12.087 -22.951  0.00  0.00    +0.094 C 
ATOM     14  C   UNL     1      31.464 -12.603 -20.575  0.00  0.00    +0.094 C 
ATOM     15  C   UNL     1      32.372  -9.732 -23.698  0.00  0.00    +0.002 C 
ATOM     16  C   UNL     1      31.492 -10.774 -18.842  0.00  0.00    +0.002 C 
ATOM     17  C   UNL     1      32.595 -14.320 -21.949  0.00  0.00    +0.250 C 
ENDBRANCH   2  17
BRANCH   3  19
ATOM     18  O   UNL     1      34.575 -18.817 -23.210  0.00  0.00    -0.275 OA
ATOM     19  N   UNL     1      34.191 -16.697 -22.261  0.00  0.00    -0.284 N 
ATOM     20  C   UNL     1      34.483 -18.065 -22.244  0.00  0.00    +0.227 C 
ATOM     21  H   UNL     1      34.171 -16.249 -21.384  0.00  0.00    +0.155 HD
BRANCH  20  22
ATOM     22  C   UNL     1      34.713 -18.588 -20.836  0.00  0.00    +0.097 C 
BRANCH  22  23
ATOM     23  C   UNL     1      34.523 -20.099 -20.773  0.00  0.00    +0.119 C 
BRANCH  23  25
ATOM     24  O   UNL     1      32.181 -19.697 -20.337  0.00  0.00    -0.250 OA
ATOM     25  C   UNL     1      33.129 -20.471 -20.334  0.00  0.00    +0.314 C 
BRANCH  25  26
ATOM     26  O   UNL     1      33.033 -21.768 -19.946  0.00  0.00    -0.480 OA
ATOM     27  H   UNL     1      33.730 -22.366 -20.133  0.00  0.00    +0.295 HD
ENDBRANCH  25  26
ENDBRANCH  23  25
ENDBRANCH  22  23
ENDBRANCH  20  22
ENDBRANCH   3  19
TORSDOF 6
ENDMDL
MODEL 7
REMARK VINA RESULT:      -8.1     12.990     15.805
REMARK  Name = 24764442
REMARK  6 active torsions:
REMARK  status: ('A' for Active; 'I' for Inactive)
REMARK    1  A    between atoms: C_2  and  C_17
REMARK    2  A    between atoms: C_3  and  N_19
REMARK    3  A    between atoms: C_20  and  C_22
REMARK    4  A    between atoms: C_22  and  C_23
REMARK    5  A    between atoms: C_23  and  C_25
REMARK    6  A    between atoms: C_25  and  O_26
REMARK                            x       y       z     vdW  Elec       q    Type
REMARK                         _______ _______ _______ _____ _____    ______ ____
ROOT
ATOM      1 BR   UNL     1      31.584  -8.364 -19.321  0.00  0.00    -0.049 Br
ATOM      2  C   UNL     1      33.306  -9.150 -23.027  0.00  0.00    +0.068 C 
ATOM      3  C   UNL     1      32.794 -10.405 -23.354  0.00  0.00    +0.055 C 
ATOM      4  C   UNL     1      32.947  -8.541 -21.825  0.00  0.00    +0.012 C 
ATOM      5  C   UNL     1      31.920 -11.052 -22.480  0.00  0.00    +0.015 C 
ATOM      6  C   UNL     1      32.073  -9.187 -20.950  0.00  0.00    +0.035 C 
ATOM      7  C   UNL     1      31.560 -10.442 -21.277  0.00  0.00    +0.008 C 
ENDROOT
BRANCH   2  17
ATOM      8  O   UNL     1      35.170  -9.100 -24.365  0.00  0.00    -0.270 OA
ATOM      9  N   UNL     1      33.962  -7.103 -24.220  0.00  0.00    -0.276 N 
ATOM     10  C   UNL     1      32.000  -5.736 -24.811  0.00  0.00    +0.020 C 
ATOM     11  C   UNL     1      34.057  -5.785 -26.299  0.00  0.00    +0.020 C 
ATOM     12  C   UNL     1      32.878  -4.938 -25.789  0.00  0.00    +0.003 C 
ATOM     13  C   UNL     1      32.854  -6.310 -23.674  0.00  0.00    +0.094 C 
ATOM     14  C   UNL     1      34.851  -6.370 -25.123  0.00  0.00    +0.094 C 
ATOM     15  C   UNL     1      30.875  -4.865 -24.257  0.00  0.00    +0.002 C 
ATOM     16  C   UNL     1      34.963  -4.961 -27.208  0.00  0.00    +0.002 C 
ATOM     17  C   UNL     1      34.228  -8.443 -23.925  0.00  0.00    +0.250 C 
ENDBRANCH   2  17
BRANCH   3  19
ATOM     18  O   UNL     1      33.991 -13.117 -23.859  0.00  0.00    -0.275 OA
ATOM     19  N   UNL     1      33.141 -11.035 -24.554  0.00  0.00    -0.284 N 
ATOM     20  C   UNL     1      33.704 -12.303 -24.731  0.00  0.00    +0.227 C 
ATOM     21  H   UNL     1      32.966 -10.521 -25.375  0.00  0.00    +0.155 HD
BRANCH  20  22
ATOM     22  C   UNL     1      33.935 -12.631 -26.197  0.00  0.00    +0.097 C 
BRANCH  22  23
ATOM     23  C   UNL     1      32.829 -13.527 -26.740  0.00  0.00    +0.119 C 
BRANCH  23  25
ATOM     24  O   UNL     1      34.252 -15.408 -26.215  0.00  0.00    -0.250 OA
ATOM     25  C   UNL     1      33.160 -14.990 -26.575  0.00  0.00    +0.314 C 
BRANCH  25  26
ATOM     26  O   UNL     1      32.108 -15.799 -26.859  0.00  0.00    -0.480 OA
ATOM     27  H   UNL     1      31.325 -15.437 -27.225  0.00  0.00    +0.295 HD
ENDBRANCH  25  26
ENDBRANCH  23  25
ENDBRANCH  22  23
ENDBRANCH  20  22
ENDBRANCH   3  19
TORSDOF 6
ENDMDL
MODEL 8
REMARK VINA RESULT:      -7.7      4.260      7.730
REMARK  Name = 24764442
REMARK  6 active torsions:
REMARK  status: ('A' for Active; 'I' for Inactive)
REMARK    1  A    between atoms: C_2  and  C_17
REMARK    2  A    between atoms: C_3  and  N_19
REMARK    3  A    between atoms: C_20  and  C_22
REMARK    4  A    between atoms: C_22  and  C_23
REMARK    5  A    between atoms: C_23  and  C_25
REMARK    6  A    between atoms: C_25  and  O_26
REMARK                            x       y       z     vdW  Elec       q    Type
REMARK                         _______ _______ _______ _____ _____    ______ ____
ROOT
ATOM      1 BR   UNL     1      33.625 -21.332 -19.603  0.00  0.00    -0.049 Br
ATOM      2  C   UNL     1      34.868 -23.159 -16.077  0.00  0.00    +0.068 C 
ATOM      3  C   UNL     1      36.256 -23.038 -16.130  0.00  0.00    +0.055 C 
ATOM      4  C   UNL     1      34.083 -22.652 -17.112  0.00  0.00    +0.012 C 
ATOM      5  C   UNL     1      36.861 -22.407 -17.217  0.00  0.00    +0.015 C 
ATOM      6  C   UNL     1      34.687 -22.020 -18.200  0.00  0.00    +0.035 C 
ATOM      7  C   UNL     1      36.075 -21.899 -18.252  0.00  0.00    +0.008 C 
ENDROOT
BRANCH   2  17
ATOM      8  O   UNL     1      34.909 -24.082 -13.976  0.00  0.00    -0.270 OA
ATOM      9  N   UNL     1      32.831 -24.076 -15.049  0.00  0.00    -0.276 N 
ATOM     10  C   UNL     1      30.818 -22.883 -15.817  0.00  0.00    +0.020 C 
ATOM     11  C   UNL     1      30.951 -23.850 -13.473  0.00  0.00    +0.020 C 
ATOM     12  C   UNL     1      30.028 -23.513 -14.657  0.00  0.00    +0.003 C 
ATOM     13  C   UNL     1      31.990 -23.786 -16.217  0.00  0.00    +0.094 C 
ATOM     14  C   UNL     1      32.130 -24.718 -13.936  0.00  0.00    +0.094 C 
ATOM     15  C   UNL     1      29.906 -22.617 -17.012  0.00  0.00    +0.002 C 
ATOM     16  C   UNL     1      30.172 -24.544 -12.360  0.00  0.00    +0.002 C 
ATOM     17  C   UNL     1      34.200 -23.817 -14.946  0.00  0.00    +0.250 C 
ENDBRANCH   2  17
BRANCH   3  19
ATOM     18  O   UNL     1      37.227 -25.834 -15.603  0.00  0.00    -0.275 OA
ATOM     19  N   UNL     1      37.063 -23.539 -15.103  0.00  0.00    -0.284 N 
ATOM     20  C   UNL     1      37.481 -24.859 -14.901  0.00  0.00    +0.227 C 
ATOM     21  H   UNL     1      37.375 -22.881 -14.441  0.00  0.00    +0.155 HD
BRANCH  20  22
ATOM     22  C   UNL     1      38.354 -25.004 -13.666  0.00  0.00    +0.097 C 
BRANCH  22  23
ATOM     23  C   UNL     1      39.814 -24.705 -13.988  0.00  0.00    +0.119 C 
BRANCH  23  25
ATOM     24  O   UNL     1      40.566 -26.010 -15.876  0.00  0.00    -0.250 OA
ATOM     25  C   UNL     1      40.490 -25.871 -14.662  0.00  0.00    +0.314 C 
BRANCH  25  26
ATOM     26  O   UNL     1      41.022 -26.751 -13.777  0.00  0.00    -0.480 OA
ATOM     27  H   UNL     1      41.017 -26.554 -12.861  0.00  0.00    +0.295 HD
ENDBRANCH  25  26
ENDBRANCH  23  25
ENDBRANCH  22  23
ENDBRANCH  20  22
ENDBRANCH   3  19
TORSDOF 6
ENDMDL
MODEL 9
REMARK VINA RESULT:      -7.5      2.823      5.597
REMARK  Name = 24764442
REMARK  6 active torsions:
REMARK  status: ('A' for Active; 'I' for Inactive)
REMARK    1  A    between atoms: C_2  and  C_17
REMARK    2  A    between atoms: C_3  and  N_19
REMARK    3  A    between atoms: C_20  and  C_22
REMARK    4  A    between atoms: C_22  and  C_23
REMARK    5  A    between atoms: C_23  and  C_25
REMARK    6  A    between atoms: C_25  and  O_26
REMARK                            x       y       z     vdW  Elec       q    Type
REMARK                         _______ _______ _______ _____ _____    ______ ____
ROOT
ATOM      1 BR   UNL     1      36.254 -21.099 -20.147  0.00  0.00    -0.049 Br
ATOM      2  C   UNL     1      35.331 -22.720 -16.426  0.00  0.00    +0.068 C 
ATOM      3  C   UNL     1      34.094 -23.326 -16.644  0.00  0.00    +0.055 C 
ATOM      4  C   UNL     1      35.975 -22.056 -17.470  0.00  0.00    +0.012 C 
ATOM      5  C   UNL     1      33.501 -23.270 -17.905  0.00  0.00    +0.015 C 
ATOM      6  C   UNL     1      35.383 -21.999 -18.731  0.00  0.00    +0.035 C 
ATOM      7  C   UNL     1      34.145 -22.605 -18.949  0.00  0.00    +0.008 C 
ENDROOT
BRANCH   2  17
ATOM      8  O   UNL     1      35.776 -21.802 -14.371  0.00  0.00    -0.270 OA
ATOM      9  N   UNL     1      36.765 -23.877 -14.799  0.00  0.00    -0.276 N 
ATOM     10  C   UNL     1      36.601 -26.324 -15.032  0.00  0.00    +0.020 C 
ATOM     11  C   UNL     1      37.007 -25.249 -12.767  0.00  0.00    +0.020 C 
ATOM     12  C   UNL     1      37.269 -26.478 -13.655  0.00  0.00    +0.003 C 
ATOM     13  C   UNL     1      37.036 -25.011 -15.692  0.00  0.00    +0.094 C 
ATOM     14  C   UNL     1      37.418 -23.960 -13.492  0.00  0.00    +0.094 C 
ATOM     15  C   UNL     1      36.926 -27.515 -15.929  0.00  0.00    +0.002 C 
ATOM     16  C   UNL     1      37.737 -25.378 -11.434  0.00  0.00    +0.002 C 
ATOM     17  C   UNL     1      35.983 -22.762 -15.111  0.00  0.00    +0.250 C 
ENDBRANCH   2  17
BRANCH   3  19
ATOM     18  O   UNL     1      31.715 -22.506 -14.997  0.00  0.00    -0.275 OA
ATOM     19  N   UNL     1      33.430 -23.998 -15.612  0.00  0.00    -0.284 N 
ATOM     20  C   UNL     1      32.326 -23.564 -14.871  0.00  0.00    +0.227 C 
ATOM     21  H   UNL     1      33.784 -24.886 -15.379  0.00  0.00    +0.155 HD
BRANCH  20  22
ATOM     22  C   UNL     1      31.892 -24.585 -13.832  0.00  0.00    +0.097 C 
BRANCH  22  23
ATOM     23  C   UNL     1      30.417 -24.422 -13.485  0.00  0.00    +0.119 C 
BRANCH  23  25
ATOM     24  O   UNL     1      28.720 -24.324 -15.202  0.00  0.00    -0.250 OA
ATOM     25  C   UNL     1      29.522 -24.988 -14.559  0.00  0.00    +0.314 C 
BRANCH  25  26
ATOM     26  O   UNL     1      29.710 -26.319 -14.749  0.00  0.00    -0.480 OA
ATOM     27  H   UNL     1      30.578 -26.659 -14.847  0.00  0.00    +0.295 HD
ENDBRANCH  25  26
ENDBRANCH  23  25
ENDBRANCH  22  23
ENDBRANCH  20  22
ENDBRANCH   3  19
TORSDOF 6
ENDMDL
