MODEL 1
REMARK VINA RESULT:     -10.4      0.000      0.000
REMARK  Name = 73333
REMARK  7 active torsions:
REMARK  status: ('A' for Active; 'I' for Inactive)
REMARK    1  A    between atoms: C_1  and  C_2
REMARK    2  A    between atoms: C_1  and  C_17
REMARK    3  A    between atoms: C_2  and  C_3
REMARK    4  A    between atoms: C_3  and  N_5
REMARK    5  A    between atoms: N_7  and  C_15
REMARK    6  A    between atoms: C_17  and  C_19
REMARK    7  A    between atoms: C_17  and  C_26
REMARK                            x       y       z     vdW  Elec       q    Type
REMARK                         _______ _______ _______ _____ _____    ______ ____
ROOT
ATOM      1  C   UNL     1      34.254  -9.414 -23.796  0.00  0.00    +0.007 C 
ENDROOT
BRANCH   1   2
ATOM      2  C   UNL     1      34.609 -10.811 -24.327  0.00  0.00    -0.022 C 
BRANCH   2   3
ATOM      3  C   UNL     1      33.551 -11.310 -25.310  0.00  0.00    -0.077 C 
BRANCH   3   5
ATOM      4  O   UNL     1      34.217 -17.560 -25.755  0.00  0.00    -0.253 OA
ATOM      5  N   UNL     1      33.232 -12.712 -25.045  0.00  0.00    +0.389 N 
ATOM      6  N   UNL     1      33.770 -15.521 -24.744  0.00  0.00    -0.269 N 
ATOM      7  N   UNL     1      34.844 -17.270 -23.566  0.00  0.00    -0.289 N 
ATOM      8  C   UNL     1      33.980 -13.199 -23.880  0.00  0.00    -0.055 C 
ATOM      9  C   UNL     1      33.534 -13.541 -26.219  0.00  0.00    -0.055 C 
ATOM     10  C   UNL     1      33.636 -14.657 -23.563  0.00  0.00    +0.072 C 
ATOM     11  C   UNL     1      33.147 -14.994 -25.959  0.00  0.00    +0.072 C 
ATOM     12  C   UNL     1      34.277 -16.834 -24.757  0.00  0.00    +0.304 C 
ATOM     13  H   UNL     1      32.235 -12.779 -24.845  0.00  0.00    -0.080 HD
ATOM     14  H   UNL     1      34.866 -16.650 -22.801  0.00  0.00    +0.151 HD
BRANCH   7  15
ATOM     15  C   UNL     1      35.406 -18.594 -23.395  0.00  0.00    +0.091 C 
ATOM     16  C   UNL     1      34.661 -19.381 -22.337  0.00  0.00    +0.023 C 
ENDBRANCH   7  15
ENDBRANCH   3   5
ENDBRANCH   2   3
ENDBRANCH   1   2
BRANCH   1  17
ATOM     17  C   UNL     1      32.729  -9.218 -23.603  0.00  0.00    +0.044 C 
BRANCH  17  19
ATOM     18  F   UNL     1      30.860 -10.813 -18.512  0.00  0.00    -0.204 F 
ATOM     19  C   UNL     1      32.225  -9.648 -22.230  0.00  0.00    -0.018 C 
ATOM     20  C   UNL     1      31.518 -10.843 -22.089  0.00  0.00    -0.002 C 
ATOM     21  C   UNL     1      32.468  -8.847 -21.115  0.00  0.00    -0.002 C 
ATOM     22  C   UNL     1      31.058 -11.237 -20.833  0.00  0.00    +0.029 C 
ATOM     23  C   UNL     1      32.008  -9.240 -19.859  0.00  0.00    +0.029 C 
ATOM     24  C   UNL     1      31.302 -10.436 -19.718  0.00  0.00    +0.140 C 
ENDBRANCH  17  19
BRANCH  17  26
ATOM     25  F   UNL     1      30.983  -3.991 -24.872  0.00  0.00    -0.204 F 
ATOM     26  C   UNL     1      32.258  -7.808 -23.946  0.00  0.00    -0.018 C 
ATOM     27  C   UNL     1      33.183  -6.838 -24.331  0.00  0.00    -0.002 C 
ATOM     28  C   UNL     1      30.902  -7.488 -23.873  0.00  0.00    -0.002 C 
ATOM     29  C   UNL     1      32.753  -5.548 -24.644  0.00  0.00    +0.029 C 
ATOM     30  C   UNL     1      30.471  -6.199 -24.186  0.00  0.00    +0.029 C 
ATOM     31  C   UNL     1      31.397  -5.229 -24.572  0.00  0.00    +0.140 C 
ENDBRANCH  17  26
ENDBRANCH   1  17
TORSDOF 7
ENDMDL
MODEL 2
REMARK VINA RESULT:     -10.2      1.536      2.033
REMARK  Name = 73333
REMARK  7 active torsions:
REMARK  status: ('A' for Active; 'I' for Inactive)
REMARK    1  A    between atoms: C_1  and  C_2
REMARK    2  A    between atoms: C_1  and  C_17
REMARK    3  A    between atoms: C_2  and  C_3
REMARK    4  A    between atoms: C_3  and  N_5
REMARK    5  A    between atoms: N_7  and  C_15
REMARK    6  A    between atoms: C_17  and  C_19
REMARK    7  A    between atoms: C_17  and  C_26
REMARK                            x       y       z     vdW  Elec       q    Type
REMARK                         _______ _______ _______ _____ _____    ______ ____
ROOT
ATOM      1  C   UNL     1      33.905 -10.485 -23.870  0.00  0.00    +0.007 C 
ENDROOT
BRANCH   1   2
ATOM      2  C   UNL     1      33.805 -11.543 -24.980  0.00  0.00    -0.022 C 
BRANCH   2   3
ATOM      3  C   UNL     1      33.060 -12.784 -24.489  0.00  0.00    -0.077 C 
BRANCH   3   5
ATOM      4  O   UNL     1      35.147 -17.017 -20.314  0.00  0.00    -0.253 OA
ATOM      5  N   UNL     1      34.000 -13.745 -23.913  0.00  0.00    +0.389 N 
ATOM      6  N   UNL     1      34.804 -16.051 -22.394  0.00  0.00    -0.269 N 
ATOM      7  N   UNL     1      34.807 -18.401 -22.114  0.00  0.00    -0.289 N 
ATOM      8  C   UNL     1      33.734 -15.095 -24.425  0.00  0.00    -0.055 C 
ATOM      9  C   UNL     1      33.913 -13.737 -22.447  0.00  0.00    -0.055 C 
ATOM     10  C   UNL     1      34.728 -16.113 -23.860  0.00  0.00    +0.072 C 
ATOM     11  C   UNL     1      34.934 -14.699 -21.847  0.00  0.00    +0.072 C 
ATOM     12  C   UNL     1      34.930 -17.149 -21.523  0.00  0.00    +0.304 C 
ATOM     13  H   UNL     1      34.943 -13.471 -24.186  0.00  0.00    -0.080 HD
ATOM     14  H   UNL     1      34.635 -18.448 -23.083  0.00  0.00    +0.151 HD
BRANCH   7  15
ATOM     15  C   UNL     1      34.918 -19.640 -21.373  0.00  0.00    +0.091 C 
ATOM     16  C   UNL     1      33.596 -20.033 -20.747  0.00  0.00    +0.023 C 
ENDBRANCH   7  15
ENDBRANCH   3   5
ENDBRANCH   2   3
ENDBRANCH   1   2
BRANCH   1  17
ATOM     17  C   UNL     1      32.534  -9.846 -23.528  0.00  0.00    +0.044 C 
BRANCH  17  19
ATOM     18  F   UNL     1      30.855 -10.784 -18.213  0.00  0.00    -0.204 F 
ATOM     19  C   UNL     1      32.081 -10.099 -22.095  0.00  0.00    -0.018 C 
ATOM     20  C   UNL     1      31.352 -11.248 -21.786  0.00  0.00    -0.002 C 
ATOM     21  C   UNL     1      32.394  -9.181 -21.092  0.00  0.00    -0.002 C 
ATOM     22  C   UNL     1      30.939 -11.479 -20.474  0.00  0.00    +0.029 C 
ATOM     23  C   UNL     1      31.980  -9.413 -19.781  0.00  0.00    +0.029 C 
ATOM     24  C   UNL     1      31.252 -10.563 -19.472  0.00  0.00    +0.140 C 
ENDBRANCH  17  19
BRANCH  17  26
ATOM     25  F   UNL     1      32.265  -4.346 -24.813  0.00  0.00    -0.204 F 
ATOM     26  C   UNL     1      32.462  -8.362 -23.875  0.00  0.00    -0.018 C 
ATOM     27  C   UNL     1      33.634  -7.640 -24.100  0.00  0.00    -0.002 C 
ATOM     28  C   UNL     1      31.223  -7.727 -23.967  0.00  0.00    -0.002 C 
ATOM     29  C   UNL     1      33.568  -6.283 -24.417  0.00  0.00    +0.029 C 
ATOM     30  C   UNL     1      31.157  -6.370 -24.284  0.00  0.00    +0.029 C 
ATOM     31  C   UNL     1      32.329  -5.649 -24.509  0.00  0.00    +0.140 C 
ENDBRANCH  17  26
ENDBRANCH   1  17
TORSDOF 7
ENDMDL
MODEL 3
REMARK VINA RESULT:      -9.9      2.483      3.934
REMARK  Name = 73333
REMARK  7 active torsions:
REMARK  status: ('A' for Active; 'I' for Inactive)
REMARK    1  A    between atoms: C_1  and  C_2
REMARK    2  A    between atoms: C_1  and  C_17
REMARK    3  A    between atoms: C_2  and  C_3
REMARK    4  A    between atoms: C_3  and  N_5
REMARK    5  A    between atoms: N_7  and  C_15
REMARK    6  A    between atoms: C_17  and  C_19
REMARK    7  A    between atoms: C_17  and  C_26
REMARK                            x       y       z     vdW  Elec       q    Type
REMARK                         _______ _______ _______ _____ _____    ______ ____
ROOT
ATOM      1  C   UNL     1      31.080 -10.852 -22.436  0.00  0.00    +0.007 C 
ENDROOT
BRANCH   1   2
ATOM      2  C   UNL     1      30.925 -11.652 -21.133  0.00  0.00    -0.022 C 
BRANCH   2   3
ATOM      3  C   UNL     1      32.254 -12.281 -20.715  0.00  0.00    -0.077 C 
BRANCH   3   5
ATOM      4  O   UNL     1      35.324 -17.230 -23.121  0.00  0.00    -0.253 OA
ATOM      5  N   UNL     1      32.393 -13.612 -21.306  0.00  0.00    +0.389 N 
ATOM      6  N   UNL     1      33.705 -16.100 -21.905  0.00  0.00    -0.269 N 
ATOM      7  N   UNL     1      34.594 -18.161 -21.154  0.00  0.00    -0.289 N 
ATOM      8  C   UNL     1      32.565 -14.625 -20.259  0.00  0.00    -0.055 C 
ATOM      9  C   UNL     1      33.532 -13.648 -22.233  0.00  0.00    -0.055 C 
ATOM     10  C   UNL     1      32.680 -16.031 -20.853  0.00  0.00    +0.072 C 
ATOM     11  C   UNL     1      33.641 -15.020 -22.891  0.00  0.00    +0.072 C 
ATOM     12  C   UNL     1      34.595 -17.168 -22.126  0.00  0.00    +0.304 C 
ATOM     13  H   UNL     1      31.542 -13.820 -21.826  0.00  0.00    -0.080 HD
ATOM     14  H   UNL     1      33.992 -18.061 -20.381  0.00  0.00    +0.151 HD
BRANCH   7  15
ATOM     15  C   UNL     1      35.437 -19.336 -21.223  0.00  0.00    +0.091 C 
ATOM     16  C   UNL     1      34.887 -20.465 -20.377  0.00  0.00    +0.023 C 
ENDBRANCH   7  15
ENDBRANCH   3   5
ENDBRANCH   2   3
ENDBRANCH   1   2
BRANCH   1  17
ATOM     17  C   UNL     1      32.266  -9.855 -22.387  0.00  0.00    +0.044 C 
BRANCH  17  19
ATOM     18  F   UNL     1      36.039 -10.612 -26.529  0.00  0.00    -0.204 F 
ATOM     19  C   UNL     1      33.284 -10.059 -23.504  0.00  0.00    -0.018 C 
ATOM     20  C   UNL     1      33.206 -11.188 -24.321  0.00  0.00    -0.002 C 
ATOM     21  C   UNL     1      34.293  -9.118 -23.709  0.00  0.00    -0.002 C 
ATOM     22  C   UNL     1      34.137 -11.374 -25.343  0.00  0.00    +0.029 C 
ATOM     23  C   UNL     1      35.223  -9.304 -24.731  0.00  0.00    +0.029 C 
ATOM     24  C   UNL     1      35.145 -10.433 -25.548  0.00  0.00    +0.140 C 
ENDBRANCH  17  19
BRANCH  17  26
ATOM     25  F   UNL     1      30.620  -4.454 -22.089  0.00  0.00    -0.204 F 
ATOM     26  C   UNL     1      31.822  -8.398 -22.307  0.00  0.00    -0.018 C 
ATOM     27  C   UNL     1      31.107  -7.827 -23.360  0.00  0.00    -0.002 C 
ATOM     28  C   UNL     1      32.131  -7.636 -21.180  0.00  0.00    -0.002 C 
ATOM     29  C   UNL     1      30.700  -6.494 -23.286  0.00  0.00    +0.029 C 
ATOM     30  C   UNL     1      31.725  -6.303 -21.106  0.00  0.00    +0.029 C 
ATOM     31  C   UNL     1      31.009  -5.733 -22.159  0.00  0.00    +0.140 C 
ENDBRANCH  17  26
ENDBRANCH   1  17
TORSDOF 7
ENDMDL
MODEL 4
REMARK VINA RESULT:      -9.9      2.509      3.937
REMARK  Name = 73333
REMARK  7 active torsions:
REMARK  status: ('A' for Active; 'I' for Inactive)
REMARK    1  A    between atoms: C_1  and  C_2
REMARK    2  A    between atoms: C_1  and  C_17
REMARK    3  A    between atoms: C_2  and  C_3
REMARK    4  A    between atoms: C_3  and  N_5
REMARK    5  A    between atoms: N_7  and  C_15
REMARK    6  A    between atoms: C_17  and  C_19
REMARK    7  A    between atoms: C_17  and  C_26
REMARK                            x       y       z     vdW  Elec       q    Type
REMARK                         _______ _______ _______ _____ _____    ______ ____
ROOT
ATOM      1  C   UNL     1      31.423 -10.312 -22.167  0.00  0.00    +0.007 C 
ENDROOT
BRANCH   1   2
ATOM      2  C   UNL     1      31.582 -11.066 -20.838  0.00  0.00    -0.022 C 
BRANCH   2   3
ATOM      3  C   UNL     1      31.324 -12.561 -21.023  0.00  0.00    -0.077 C 
BRANCH   3   5
ATOM      4  O   UNL     1      35.371 -17.390 -21.118  0.00  0.00    -0.253 OA
ATOM      5  N   UNL     1      32.572 -13.257 -21.338  0.00  0.00    +0.389 N 
ATOM      6  N   UNL     1      34.249 -15.522 -21.909  0.00  0.00    -0.269 N 
ATOM      7  N   UNL     1      34.833 -17.308 -23.348  0.00  0.00    -0.289 N 
ATOM      8  C   UNL     1      32.464 -13.947 -22.629  0.00  0.00    -0.055 C 
ATOM      9  C   UNL     1      32.908 -14.217 -20.280  0.00  0.00    -0.055 C 
ATOM     10  C   UNL     1      33.772 -14.655 -22.996  0.00  0.00    +0.072 C 
ATOM     11  C   UNL     1      34.240 -14.900 -20.584  0.00  0.00    +0.072 C 
ATOM     12  C   UNL     1      34.850 -16.785 -22.061  0.00  0.00    +0.304 C 
ATOM     13  H   UNL     1      33.316 -12.563 -21.399  0.00  0.00    -0.080 HD
ATOM     14  H   UNL     1      34.404 -16.782 -24.063  0.00  0.00    +0.151 HD
BRANCH   7  15
ATOM     15  C   UNL     1      35.412 -18.590 -23.689  0.00  0.00    +0.091 C 
ATOM     16  C   UNL     1      34.621 -19.286 -24.777  0.00  0.00    +0.023 C 
ENDBRANCH   7  15
ENDBRANCH   3   5
ENDBRANCH   2   3
ENDBRANCH   1   2
BRANCH   1  17
ATOM     17  C   UNL     1      32.579  -9.312 -22.428  0.00  0.00    +0.044 C 
BRANCH  17  19
ATOM     18  F   UNL     1      35.982 -10.834 -26.678  0.00  0.00    -0.204 F 
ATOM     19  C   UNL     1      33.497  -9.723 -23.574  0.00  0.00    -0.018 C 
ATOM     20  C   UNL     1      33.338 -10.968 -24.184  0.00  0.00    -0.002 C 
ATOM     21  C   UNL     1      34.496  -8.854 -24.013  0.00  0.00    -0.002 C 
ATOM     22  C   UNL     1      34.177 -11.342 -25.232  0.00  0.00    +0.029 C 
ATOM     23  C   UNL     1      35.335  -9.229 -25.062  0.00  0.00    +0.029 C 
ATOM     24  C   UNL     1      35.176 -10.474 -25.671  0.00  0.00    +0.140 C 
ENDBRANCH  17  19
BRANCH  17  26
ATOM     25  F   UNL     1      30.803  -3.979 -23.045  0.00  0.00    -0.204 F 
ATOM     26  C   UNL     1      32.100  -7.873 -22.594  0.00  0.00    -0.018 C 
ATOM     27  C   UNL     1      32.379  -6.926 -21.609  0.00  0.00    -0.002 C 
ATOM     28  C   UNL     1      31.383  -7.504 -23.733  0.00  0.00    -0.002 C 
ATOM     29  C   UNL     1      31.941  -5.611 -21.761  0.00  0.00    +0.029 C 
ATOM     30  C   UNL     1      30.945  -6.188 -23.885  0.00  0.00    +0.029 C 
ATOM     31  C   UNL     1      31.224  -5.242 -22.899  0.00  0.00    +0.140 C 
ENDBRANCH  17  26
ENDBRANCH   1  17
TORSDOF 7
ENDMDL
MODEL 5
REMARK VINA RESULT:      -9.8      4.032      6.532
REMARK  Name = 73333
REMARK  7 active torsions:
REMARK  status: ('A' for Active; 'I' for Inactive)
REMARK    1  A    between atoms: C_1  and  C_2
REMARK    2  A    between atoms: C_1  and  C_17
REMARK    3  A    between atoms: C_2  and  C_3
REMARK    4  A    between atoms: C_3  and  N_5
REMARK    5  A    between atoms: N_7  and  C_15
REMARK    6  A    between atoms: C_17  and  C_19
REMARK    7  A    between atoms: C_17  and  C_26
REMARK                            x       y       z     vdW  Elec       q    Type
REMARK                         _______ _______ _______ _____ _____    ______ ____
ROOT
ATOM      1  C   UNL     1      34.229 -14.880 -21.730  0.00  0.00    +0.007 C 
ENDROOT
BRANCH   1   2
ATOM      2  C   UNL     1      34.059 -16.350 -21.319  0.00  0.00    -0.022 C 
BRANCH   2   3
ATOM      3  C   UNL     1      35.140 -17.225 -21.952  0.00  0.00    -0.077 C 
BRANCH   3   5
ATOM      4  O   UNL     1      35.234 -22.557 -18.595  0.00  0.00    -0.253 OA
ATOM      5  N   UNL     1      34.878 -18.637 -21.675  0.00  0.00    +0.389 N 
ATOM      6  N   UNL     1      34.387 -20.949 -20.035  0.00  0.00    -0.269 N 
ATOM      7  N   UNL     1      32.984 -22.107 -18.521  0.00  0.00    -0.289 N 
ATOM      8  C   UNL     1      33.588 -18.797 -20.992  0.00  0.00    -0.055 C 
ATOM      9  C   UNL     1      35.954 -19.210 -20.857  0.00  0.00    -0.055 C 
ATOM     10  C   UNL     1      33.277 -20.271 -20.721  0.00  0.00    +0.072 C 
ATOM     11  C   UNL     1      35.707 -20.697 -20.617  0.00  0.00    +0.072 C 
ATOM     12  C   UNL     1      34.267 -21.913 -19.018  0.00  0.00    +0.304 C 
ATOM     13  H   UNL     1      34.842 -19.135 -22.563  0.00  0.00    -0.080 HD
ATOM     14  H   UNL     1      32.250 -21.566 -18.895  0.00  0.00    +0.151 HD
BRANCH   7  15
ATOM     15  C   UNL     1      32.674 -23.064 -17.481  0.00  0.00    +0.091 C 
ATOM     16  C   UNL     1      31.341 -22.761 -16.827  0.00  0.00    +0.023 C 
ENDBRANCH   7  15
ENDBRANCH   3   5
ENDBRANCH   2   3
ENDBRANCH   1   2
BRANCH   1  17
ATOM     17  C   UNL     1      32.962 -14.298 -22.407  0.00  0.00    +0.044 C 
BRANCH  17  19
ATOM     18  F   UNL     1      30.522 -10.132 -19.465  0.00  0.00    -0.204 F 
ATOM     19  C   UNL     1      32.304 -13.175 -21.614  0.00  0.00    -0.018 C 
ATOM     20  C   UNL     1      32.453 -13.119 -20.228  0.00  0.00    -0.002 C 
ATOM     21  C   UNL     1      31.552 -12.203 -22.273  0.00  0.00    -0.002 C 
ATOM     22  C   UNL     1      31.851 -12.091 -19.502  0.00  0.00    +0.029 C 
ATOM     23  C   UNL     1      30.950 -11.175 -21.548  0.00  0.00    +0.029 C 
ATOM     24  C   UNL     1      31.100 -11.119 -20.162  0.00  0.00    +0.140 C 
ENDBRANCH  17  19
BRANCH  17  26
ATOM     25  F   UNL     1      33.821 -12.769 -27.783  0.00  0.00    -0.204 F 
ATOM     26  C   UNL     1      33.194 -13.885 -23.857  0.00  0.00    -0.018 C 
ATOM     27  C   UNL     1      33.665 -12.606 -24.152  0.00  0.00    -0.002 C 
ATOM     28  C   UNL     1      32.934 -14.788 -24.889  0.00  0.00    -0.002 C 
ATOM     29  C   UNL     1      33.877 -12.229 -25.478  0.00  0.00    +0.029 C 
ATOM     30  C   UNL     1      33.146 -14.410 -26.215  0.00  0.00    +0.029 C 
ATOM     31  C   UNL     1      33.618 -13.131 -26.510  0.00  0.00    +0.140 C 
ENDBRANCH  17  26
ENDBRANCH   1  17
TORSDOF 7
ENDMDL
MODEL 6
REMARK VINA RESULT:      -9.8      2.451      4.394
REMARK  Name = 73333
REMARK  7 active torsions:
REMARK  status: ('A' for Active; 'I' for Inactive)
REMARK    1  A    between atoms: C_1  and  C_2
REMARK    2  A    between atoms: C_1  and  C_17
REMARK    3  A    between atoms: C_2  and  C_3
REMARK    4  A    between atoms: C_3  and  N_5
REMARK    5  A    between atoms: N_7  and  C_15
REMARK    6  A    between atoms: C_17  and  C_19
REMARK    7  A    between atoms: C_17  and  C_26
REMARK                            x       y       z     vdW  Elec       q    Type
REMARK                         _______ _______ _______ _____ _____    ______ ____
ROOT
ATOM      1  C   UNL     1      31.712  -9.909 -21.520  0.00  0.00    +0.007 C 
ENDROOT
BRANCH   1   2
ATOM      2  C   UNL     1      31.075 -11.307 -21.527  0.00  0.00    -0.022 C 
BRANCH   2   3
ATOM      3  C   UNL     1      31.805 -12.247 -20.568  0.00  0.00    -0.077 C 
BRANCH   3   5
ATOM      4  O   UNL     1      35.332 -16.501 -23.596  0.00  0.00    -0.253 OA
ATOM      5  N   UNL     1      32.095 -13.520 -21.228  0.00  0.00    +0.389 N 
ATOM      6  N   UNL     1      33.735 -15.711 -22.112  0.00  0.00    -0.269 N 
ATOM      7  N   UNL     1      35.087 -17.580 -21.584  0.00  0.00    -0.289 N 
ATOM      8  C   UNL     1      32.604 -14.498 -20.259  0.00  0.00    -0.055 C 
ATOM      9  C   UNL     1      33.070 -13.329 -22.310  0.00  0.00    -0.055 C 
ATOM     10  C   UNL     1      32.883 -15.849 -20.922  0.00  0.00    +0.072 C 
ATOM     11  C   UNL     1      33.327 -14.648 -23.033  0.00  0.00    +0.072 C 
ATOM     12  C   UNL     1      34.761 -16.591 -22.503  0.00  0.00    +0.304 C 
ATOM     13  H   UNL     1      31.228 -13.876 -21.628  0.00  0.00    -0.080 HD
ATOM     14  H   UNL     1      34.599 -17.605 -20.728  0.00  0.00    +0.151 HD
BRANCH   7  15
ATOM     15  C   UNL     1      36.110 -18.576 -21.823  0.00  0.00    +0.091 C 
ATOM     16  C   UNL     1      36.102 -19.648 -20.753  0.00  0.00    +0.023 C 
ENDBRANCH   7  15
ENDBRANCH   3   5
ENDBRANCH   2   3
ENDBRANCH   1   2
BRANCH   1  17
ATOM     17  C   UNL     1      31.734  -9.254 -22.925  0.00  0.00    +0.044 C 
BRANCH  17  19
ATOM     18  F   UNL     1      30.831  -3.675 -22.847  0.00  0.00    -0.204 F 
ATOM     19  C   UNL     1      31.491  -7.750 -22.904  0.00  0.00    -0.018 C 
ATOM     20  C   UNL     1      31.119  -7.087 -24.074  0.00  0.00    -0.002 C 
ATOM     21  C   UNL     1      31.641  -7.036 -21.716  0.00  0.00    -0.002 C 
ATOM     22  C   UNL     1      30.896  -5.710 -24.054  0.00  0.00    +0.029 C 
ATOM     23  C   UNL     1      31.417  -5.659 -21.696  0.00  0.00    +0.029 C 
ATOM     24  C   UNL     1      31.045  -4.996 -22.866  0.00  0.00    +0.140 C 
ENDBRANCH  17  19
BRANCH  17  26
ATOM     25  F   UNL     1      36.374 -10.531 -25.894  0.00  0.00    -0.204 F 
ATOM     26  C   UNL     1      32.986  -9.599 -23.726  0.00  0.00    -0.018 C 
ATOM     27  C   UNL     1      33.055 -10.800 -24.431  0.00  0.00    -0.002 C 
ATOM     28  C   UNL     1      34.062  -8.712 -23.753  0.00  0.00    -0.002 C 
ATOM     29  C   UNL     1      34.199 -11.115 -25.164  0.00  0.00    +0.029 C 
ATOM     30  C   UNL     1      35.207  -9.027 -24.486  0.00  0.00    +0.029 C 
ATOM     31  C   UNL     1      35.275 -10.228 -25.191  0.00  0.00    +0.140 C 
ENDBRANCH  17  26
ENDBRANCH   1  17
TORSDOF 7
ENDMDL
MODEL 7
REMARK VINA RESULT:      -9.7      0.785      4.260
REMARK  Name = 73333
REMARK  7 active torsions:
REMARK  status: ('A' for Active; 'I' for Inactive)
REMARK    1  A    between atoms: C_1  and  C_2
REMARK    2  A    between atoms: C_1  and  C_17
REMARK    3  A    between atoms: C_2  and  C_3
REMARK    4  A    between atoms: C_3  and  N_5
REMARK    5  A    between atoms: N_7  and  C_15
REMARK    6  A    between atoms: C_17  and  C_19
REMARK    7  A    between atoms: C_17  and  C_26
REMARK                            x       y       z     vdW  Elec       q    Type
REMARK                         _______ _______ _______ _____ _____    ______ ____
ROOT
ATOM      1  C   UNL     1      32.714  -9.551 -24.135  0.00  0.00    +0.007 C 
ENDROOT
BRANCH   1   2
ATOM      2  C   UNL     1      33.876 -10.549 -24.251  0.00  0.00    -0.022 C 
BRANCH   2   3
ATOM      3  C   UNL     1      33.753 -11.388 -25.523  0.00  0.00    -0.077 C 
BRANCH   3   5
ATOM      4  O   UNL     1      34.151 -17.675 -25.660  0.00  0.00    -0.253 OA
ATOM      5  N   UNL     1      33.374 -12.761 -25.190  0.00  0.00    +0.389 N 
ATOM      6  N   UNL     1      33.791 -15.572 -24.751  0.00  0.00    -0.269 N 
ATOM      7  N   UNL     1      34.789 -17.306 -23.485  0.00  0.00    -0.289 N 
ATOM      8  C   UNL     1      34.099 -13.222 -24.000  0.00  0.00    -0.055 C 
ATOM      9  C   UNL     1      33.642 -13.658 -26.321  0.00  0.00    -0.055 C 
ATOM     10  C   UNL     1      33.693 -14.646 -23.614  0.00  0.00    +0.072 C 
ATOM     11  C   UNL     1      33.192 -15.079 -25.993  0.00  0.00    +0.072 C 
ATOM     12  C   UNL     1      34.242 -16.904 -24.698  0.00  0.00    +0.304 C 
ATOM     13  H   UNL     1      32.375 -12.776 -24.991  0.00  0.00    -0.080 HD
ATOM     14  H   UNL     1      34.836 -16.650 -22.752  0.00  0.00    +0.151 HD
BRANCH   7  15
ATOM     15  C   UNL     1      35.293 -18.642 -23.249  0.00  0.00    +0.091 C 
ATOM     16  C   UNL     1      34.477 -19.365 -22.197  0.00  0.00    +0.023 C 
ENDBRANCH   7  15
ENDBRANCH   3   5
ENDBRANCH   2   3
ENDBRANCH   1   2
BRANCH   1  17
ATOM     17  C   UNL     1      32.829  -8.644 -22.883  0.00  0.00    +0.044 C 
BRANCH  17  19
ATOM     18  F   UNL     1      30.709  -3.457 -23.634  0.00  0.00    -0.204 F 
ATOM     19  C   UNL     1      32.257  -7.246 -23.085  0.00  0.00    -0.018 C 
ATOM     20  C   UNL     1      31.355  -6.720 -22.160  0.00  0.00    -0.002 C 
ATOM     21  C   UNL     1      32.635  -6.492 -24.196  0.00  0.00    -0.002 C 
ATOM     22  C   UNL     1      30.832  -5.440 -22.345  0.00  0.00    +0.029 C 
ATOM     23  C   UNL     1      32.113  -5.212 -24.382  0.00  0.00    +0.029 C 
ATOM     24  C   UNL     1      31.211  -4.686 -23.455  0.00  0.00    +0.140 C 
ENDBRANCH  17  19
BRANCH  17  26
ATOM     25  F   UNL     1      30.748 -11.041 -18.203  0.00  0.00    -0.204 F 
ATOM     26  C   UNL     1      32.268  -9.291 -21.620  0.00  0.00    -0.018 C 
ATOM     27  C   UNL     1      31.434 -10.405 -21.718  0.00  0.00    -0.002 C 
ATOM     28  C   UNL     1      32.588  -8.767 -20.367  0.00  0.00    -0.002 C 
ATOM     29  C   UNL     1      30.921 -10.997 -20.564  0.00  0.00    +0.029 C 
ATOM     30  C   UNL     1      32.074  -9.359 -19.213  0.00  0.00    +0.029 C 
ATOM     31  C   UNL     1      31.242 -10.474 -19.311  0.00  0.00    +0.140 C 
ENDBRANCH  17  26
ENDBRANCH   1  17
TORSDOF 7
ENDMDL
MODEL 8
REMARK VINA RESULT:      -9.7      1.494      4.642
REMARK  Name = 73333
REMARK  7 active torsions:
REMARK  status: ('A' for Active; 'I' for Inactive)
REMARK    1  A    between atoms: C_1  and  C_2
REMARK    2  A    between atoms: C_1  and  C_17
REMARK    3  A    between atoms: C_2  and  C_3
REMARK    4  A    between atoms: C_3  and  N_5
REMARK    5  A    between atoms: N_7  and  C_15
REMARK    6  A    between atoms: C_17  and  C_19
REMARK    7  A    between atoms: C_17  and  C_26
REMARK                            x       y       z     vdW  Elec       q    Type
REMARK                         _______ _______ _______ _____ _____    ______ ____
ROOT
ATOM      1  C   UNL     1      32.712 -10.463 -24.388  0.00  0.00    +0.007 C 
ENDROOT
BRANCH   1   2
ATOM      2  C   UNL     1      33.826 -11.519 -24.339  0.00  0.00    -0.022 C 
BRANCH   2   3
ATOM      3  C   UNL     1      33.282 -12.906 -24.678  0.00  0.00    -0.077 C 
BRANCH   3   5
ATOM      4  O   UNL     1      34.909 -17.196 -20.359  0.00  0.00    -0.253 OA
ATOM      5  N   UNL     1      34.115 -13.942 -24.067  0.00  0.00    +0.389 N 
ATOM      6  N   UNL     1      34.671 -16.268 -22.470  0.00  0.00    -0.269 N 
ATOM      7  N   UNL     1      34.426 -18.595 -22.114  0.00  0.00    -0.289 N 
ATOM      8  C   UNL     1      33.709 -15.272 -24.536  0.00  0.00    -0.055 C 
ATOM      9  C   UNL     1      34.028 -13.876 -22.603  0.00  0.00    -0.055 C 
ATOM     10  C   UNL     1      34.590 -16.371 -23.934  0.00  0.00    +0.072 C 
ATOM     11  C   UNL     1      34.943 -14.920 -21.968  0.00  0.00    +0.072 C 
ATOM     12  C   UNL     1      34.680 -17.344 -21.564  0.00  0.00    +0.304 C 
ATOM     13  H   UNL     1      35.082 -13.778 -24.345  0.00  0.00    -0.080 HD
ATOM     14  H   UNL     1      34.250 -18.656 -23.081  0.00  0.00    +0.151 HD
BRANCH   7  15
ATOM     15  C   UNL     1      34.405 -19.814 -21.332  0.00  0.00    +0.091 C 
ATOM     16  C   UNL     1      33.042 -20.057 -20.720  0.00  0.00    +0.023 C 
ENDBRANCH   7  15
ENDBRANCH   3   5
ENDBRANCH   2   3
ENDBRANCH   1   2
BRANCH   1  17
ATOM     17  C   UNL     1      32.881  -9.365 -23.307  0.00  0.00    +0.044 C 
BRANCH  17  19
ATOM     18  F   UNL     1      31.053  -4.270 -24.938  0.00  0.00    -0.204 F 
ATOM     19  C   UNL     1      32.388  -7.991 -23.746  0.00  0.00    -0.018 C 
ATOM     20  C   UNL     1      33.305  -7.003 -24.108  0.00  0.00    -0.002 C 
ATOM     21  C   UNL     1      31.021  -7.720 -23.786  0.00  0.00    -0.002 C 
ATOM     22  C   UNL     1      32.854  -5.747 -24.511  0.00  0.00    +0.029 C 
ATOM     23  C   UNL     1      30.569  -6.464 -24.189  0.00  0.00    +0.029 C 
ATOM     24  C   UNL     1      31.487  -5.477 -24.552  0.00  0.00    +0.140 C 
ENDBRANCH  17  19
BRANCH  17  26
ATOM     25  F   UNL     1      30.683 -10.820 -18.304  0.00  0.00    -0.204 F 
ATOM     26  C   UNL     1      32.288  -9.757 -21.957  0.00  0.00    -0.018 C 
ATOM     27  C   UNL     1      32.468  -8.930 -20.848  0.00  0.00    -0.002 C 
ATOM     28  C   UNL     1      31.565 -10.944 -21.831  0.00  0.00    -0.002 C 
ATOM     29  C   UNL     1      31.926  -9.288 -19.614  0.00  0.00    +0.029 C 
ATOM     30  C   UNL     1      31.023 -11.302 -20.597  0.00  0.00    +0.029 C 
ATOM     31  C   UNL     1      31.203 -10.475 -19.489  0.00  0.00    +0.140 C 
ENDBRANCH  17  26
ENDBRANCH   1  17
TORSDOF 7
ENDMDL
MODEL 9
REMARK VINA RESULT:      -9.7      8.746     14.996
REMARK  Name = 73333
REMARK  7 active torsions:
REMARK  status: ('A' for Active; 'I' for Inactive)
REMARK    1  A    between atoms: C_1  and  C_2
REMARK    2  A    between atoms: C_1  and  C_17
REMARK    3  A    between atoms: C_2  and  C_3
REMARK    4  A    between atoms: C_3  and  N_5
REMARK    5  A    between atoms: N_7  and  C_15
REMARK    6  A    between atoms: C_17  and  C_19
REMARK    7  A    between atoms: C_17  and  C_26
REMARK                            x       y       z     vdW  Elec       q    Type
REMARK                         _______ _______ _______ _____ _____    ______ ____
ROOT
ATOM      1  C   UNL     1      34.445 -23.161 -16.612  0.00  0.00    +0.007 C 
ENDROOT
BRANCH   1   2
ATOM      2  C   UNL     1      33.263 -22.916 -17.562  0.00  0.00    -0.022 C 
BRANCH   2   3
ATOM      3  C   UNL     1      33.730 -22.858 -19.016  0.00  0.00    -0.077 C 
BRANCH   3   5
ATOM      4  O   UNL     1      36.752 -18.440 -22.342  0.00  0.00    -0.253 OA
ATOM      5  N   UNL     1      34.175 -21.506 -19.352  0.00  0.00    +0.389 N 
ATOM      6  N   UNL     1      35.049 -19.376 -21.077  0.00  0.00    -0.269 N 
ATOM      7  N   UNL     1      34.585 -17.871 -22.843  0.00  0.00    -0.289 N 
ATOM      8  C   UNL     1      33.227 -20.865 -20.272  0.00  0.00    -0.055 C 
ATOM      9  C   UNL     1      35.515 -21.538 -19.952  0.00  0.00    -0.055 C 
ATOM     10  C   UNL     1      33.656 -19.436 -20.612  0.00  0.00    +0.072 C 
ATOM     11  C   UNL     1      36.000 -20.121 -20.250  0.00  0.00    +0.072 C 
ATOM     12  C   UNL     1      35.544 -18.556 -22.107  0.00  0.00    +0.304 C 
ATOM     13  H   UNL     1      34.215 -20.961 -18.492  0.00  0.00    -0.080 HD
ATOM     14  H   UNL     1      33.636 -18.000 -22.613  0.00  0.00    +0.151 HD
BRANCH   7  15
ATOM     15  C   UNL     1      34.914 -16.977 -23.933  0.00  0.00    +0.091 C 
ATOM     16  C   UNL     1      34.551 -17.579 -25.274  0.00  0.00    +0.023 C 
ENDBRANCH   7  15
ENDBRANCH   3   5
ENDBRANCH   2   3
ENDBRANCH   1   2
BRANCH   1  17
ATOM     17  C   UNL     1      34.016 -23.208 -15.123  0.00  0.00    +0.044 C 
BRANCH  17  19
ATOM     18  F   UNL     1      28.647 -24.801 -14.355  0.00  0.00    -0.204 F 
ATOM     19  C   UNL     1      32.568 -23.638 -14.917  0.00  0.00    -0.018 C 
ATOM     20  C   UNL     1      32.276 -24.952 -14.548  0.00  0.00    -0.002 C 
ATOM     21  C   UNL     1      31.535 -22.718 -15.096  0.00  0.00    -0.002 C 
ATOM     22  C   UNL     1      30.951 -25.344 -14.359  0.00  0.00    +0.029 C 
ATOM     23  C   UNL     1      30.211 -23.111 -14.906  0.00  0.00    +0.029 C 
ATOM     24  C   UNL     1      29.919 -24.424 -14.537  0.00  0.00    +0.140 C 
ENDBRANCH  17  19
BRANCH  17  26
ATOM     25  F   UNL     1      37.530 -26.246 -11.898  0.00  0.00    -0.204 F 
ATOM     26  C   UNL     1      34.964 -24.028 -14.253  0.00  0.00    -0.018 C 
ATOM     27  C   UNL     1      34.935 -23.887 -12.866  0.00  0.00    -0.002 C 
ATOM     28  C   UNL     1      35.860 -24.918 -14.845  0.00  0.00    -0.002 C 
ATOM     29  C   UNL     1      35.802 -24.637 -12.070  0.00  0.00    +0.029 C 
ATOM     30  C   UNL     1      36.726 -25.668 -14.049  0.00  0.00    +0.029 C 
ATOM     31  C   UNL     1      36.697 -25.527 -12.662  0.00  0.00    +0.140 C 
ENDBRANCH  17  26
ENDBRANCH   1  17
TORSDOF 7
ENDMDL
