MODEL 1
REMARK VINA RESULT:      -7.6      0.000      0.000
REMARK  Name = 7060565
REMARK  3 active torsions:
REMARK  status: ('A' for Active; 'I' for Inactive)
REMARK    1  A    between atoms: C_1  and  C_12
REMARK    2  A    between atoms: C_2  and  C_8
REMARK    3  A    between atoms: C_12  and  N_13
REMARK                            x       y       z     vdW  Elec       q    Type
REMARK                         _______ _______ _______ _____ _____    ______ ____
ROOT
ATOM      1  C   UNL     1      34.751 -17.204 -22.324  0.00  0.00    -0.043 C 
ATOM      2  C   UNL     1      34.518 -18.558 -22.571  0.00  0.00    +0.000 C 
ATOM      3  C   UNL     1      34.949 -16.326 -23.389  0.00  0.00    -0.006 C 
ATOM      4  C   UNL     1      34.481 -19.031 -23.883  0.00  0.00    +0.000 C 
ATOM      5  C   UNL     1      34.913 -16.799 -24.700  0.00  0.00    -0.000 C 
ATOM      6  C   UNL     1      34.679 -18.152 -24.947  0.00  0.00    -0.000 C 
ENDROOT
BRANCH   2   8
ATOM      7  S   UNL     1      35.673 -20.214 -20.747  0.00  0.00    -0.086 S 
ATOM      8  C   UNL     1      34.310 -19.489 -21.486  0.00  0.00    +0.029 C 
ATOM      9  C   UNL     1      33.128 -19.910 -20.919  0.00  0.00    +0.007 C 
ATOM     10  C   UNL     1      33.344 -20.841 -19.863  0.00  0.00    +0.007 C 
ATOM     11  C   UNL     1      34.683 -21.096 -19.664  0.00  0.00    +0.035 C 
ENDBRANCH   2   8
BRANCH   1  12
ATOM     12  C   UNL     1      34.797 -16.660 -20.932  0.00  0.00    -0.054 C 
BRANCH  12  13
ATOM     13  N   UNL     1      34.508 -15.227 -20.888  0.00  0.00    +0.385 N 
ATOM     14  C   UNL     1      33.133 -14.992 -20.480  0.00  0.00    -0.105 C 
ATOM     15  H   UNL     1      34.657 -14.827 -21.814  0.00  0.00    -0.084 HD
ATOM     16  H   UNL     1      35.130 -14.788 -20.209  0.00  0.00    -0.084 HD
ENDBRANCH  12  13
ENDBRANCH   1  12
TORSDOF 3
ENDMDL
MODEL 2
REMARK VINA RESULT:      -6.8      8.606     11.138
REMARK  Name = 7060565
REMARK  3 active torsions:
REMARK  status: ('A' for Active; 'I' for Inactive)
REMARK    1  A    between atoms: C_1  and  C_12
REMARK    2  A    between atoms: C_2  and  C_8
REMARK    3  A    between atoms: C_12  and  N_13
REMARK                            x       y       z     vdW  Elec       q    Type
REMARK                         _______ _______ _______ _____ _____    ______ ____
ROOT
ATOM      1  C   UNL     1      32.277  -6.942 -21.677  0.00  0.00    -0.043 C 
ATOM      2  C   UNL     1      32.435  -7.191 -23.040  0.00  0.00    +0.000 C 
ATOM      3  C   UNL     1      31.448  -5.905 -21.250  0.00  0.00    -0.006 C 
ATOM      4  C   UNL     1      31.763  -6.405 -23.976  0.00  0.00    +0.000 C 
ATOM      5  C   UNL     1      30.776  -5.119 -22.185  0.00  0.00    -0.000 C 
ATOM      6  C   UNL     1      30.934  -5.368 -23.548  0.00  0.00    -0.000 C 
ENDROOT
BRANCH   2   8
ATOM      7  S   UNL     1      32.674  -9.857 -23.536  0.00  0.00    -0.086 S 
ATOM      8  C   UNL     1      33.289  -8.259 -23.510  0.00  0.00    +0.029 C 
ATOM      9  C   UNL     1      34.587  -8.195 -23.964  0.00  0.00    +0.007 C 
ATOM     10  C   UNL     1      35.085  -9.475 -24.339  0.00  0.00    +0.007 C 
ATOM     11  C   UNL     1      34.148 -10.469 -24.158  0.00  0.00    +0.035 C 
ENDBRANCH   2   8
BRANCH   1  12
ATOM     12  C   UNL     1      32.981  -7.764 -20.645  0.00  0.00    -0.054 C 
BRANCH  12  13
ATOM     13  N   UNL     1      32.075  -8.230 -19.595  0.00  0.00    +0.385 N 
ATOM     14  C   UNL     1      31.808  -9.652 -19.740  0.00  0.00    -0.105 C 
ATOM     15  H   UNL     1      31.197  -7.715 -19.658  0.00  0.00    -0.084 HD
ATOM     16  H   UNL     1      32.515  -8.070 -18.689  0.00  0.00    -0.084 HD
ENDBRANCH  12  13
ENDBRANCH   1  12
TORSDOF 3
ENDMDL
MODEL 3
REMARK VINA RESULT:      -6.8      4.490      5.814
REMARK  Name = 7060565
REMARK  3 active torsions:
REMARK  status: ('A' for Active; 'I' for Inactive)
REMARK    1  A    between atoms: C_1  and  C_12
REMARK    2  A    between atoms: C_2  and  C_8
REMARK    3  A    between atoms: C_12  and  N_13
REMARK                            x       y       z     vdW  Elec       q    Type
REMARK                         _______ _______ _______ _____ _____    ______ ____
ROOT
ATOM      1  C   UNL     1      33.620 -12.411 -24.915  0.00  0.00    -0.043 C 
ATOM      2  C   UNL     1      33.318 -13.690 -24.444  0.00  0.00    +0.000 C 
ATOM      3  C   UNL     1      33.662 -12.167 -26.288  0.00  0.00    -0.006 C 
ATOM      4  C   UNL     1      33.057 -14.722 -25.345  0.00  0.00    +0.000 C 
ATOM      5  C   UNL     1      33.401 -13.199 -27.188  0.00  0.00    -0.000 C 
ATOM      6  C   UNL     1      33.099 -14.477 -26.717  0.00  0.00    -0.000 C 
ENDROOT
BRANCH   2   8
ATOM      7  S   UNL     1      34.518 -14.907 -22.326  0.00  0.00    -0.086 S 
ATOM      8  C   UNL     1      33.268 -13.970 -23.027  0.00  0.00    +0.029 C 
ATOM      9  C   UNL     1      32.327 -13.583 -22.100  0.00  0.00    +0.007 C 
ATOM     10  C   UNL     1      32.636 -14.063 -20.794  0.00  0.00    +0.007 C 
ATOM     11  C   UNL     1      33.801 -14.797 -20.775  0.00  0.00    +0.035 C 
ENDBRANCH   2   8
BRANCH   1  12
ATOM     12  C   UNL     1      33.905 -11.280 -23.980  0.00  0.00    -0.054 C 
BRANCH  12  13
ATOM     13  N   UNL     1      35.028 -10.458 -24.431  0.00  0.00    +0.385 N 
ATOM     14  C   UNL     1      34.786  -9.054 -24.142  0.00  0.00    -0.105 C 
ATOM     15  H   UNL     1      35.147 -10.578 -25.437  0.00  0.00    -0.084 HD
ATOM     16  H   UNL     1      35.870 -10.754 -23.937  0.00  0.00    -0.084 HD
ENDBRANCH  12  13
ENDBRANCH   1  12
TORSDOF 3
ENDMDL
MODEL 4
REMARK VINA RESULT:      -6.8      3.558      6.390
REMARK  Name = 7060565
REMARK  3 active torsions:
REMARK  status: ('A' for Active; 'I' for Inactive)
REMARK    1  A    between atoms: C_1  and  C_12
REMARK    2  A    between atoms: C_2  and  C_8
REMARK    3  A    between atoms: C_12  and  N_13
REMARK                            x       y       z     vdW  Elec       q    Type
REMARK                         _______ _______ _______ _____ _____    ______ ____
ROOT
ATOM      1  C   UNL     1      34.175 -15.268 -22.663  0.00  0.00    -0.043 C 
ATOM      2  C   UNL     1      33.322 -14.245 -23.078  0.00  0.00    +0.000 C 
ATOM      3  C   UNL     1      34.164 -15.688 -21.333  0.00  0.00    -0.006 C 
ATOM      4  C   UNL     1      32.457 -13.644 -22.163  0.00  0.00    +0.000 C 
ATOM      5  C   UNL     1      33.300 -15.087 -20.419  0.00  0.00    -0.000 C 
ATOM      6  C   UNL     1      32.446 -14.064 -20.833  0.00  0.00    -0.000 C 
ENDROOT
BRANCH   2   8
ATOM      7  S   UNL     1      33.857 -12.205 -24.798  0.00  0.00    -0.086 S 
ATOM      8  C   UNL     1      33.314 -13.791 -24.449  0.00  0.00    +0.029 C 
ATOM      9  C   UNL     1      32.918 -14.464 -25.583  0.00  0.00    +0.007 C 
ATOM     10  C   UNL     1      33.063 -13.667 -26.755  0.00  0.00    +0.007 C 
ATOM     11  C   UNL     1      33.564 -12.415 -26.472  0.00  0.00    +0.035 C 
ENDBRANCH   2   8
BRANCH   1  12
ATOM     12  C   UNL     1      35.115 -15.936 -23.614  0.00  0.00    -0.054 C 
BRANCH  12  13
ATOM     13  N   UNL     1      35.676 -17.170 -23.064  0.00  0.00    +0.385 N 
ATOM     14  C   UNL     1      35.164 -18.330 -23.776  0.00  0.00    -0.105 C 
ATOM     15  H   UNL     1      35.423 -17.243 -22.079  0.00  0.00    -0.084 HD
ATOM     16  H   UNL     1      36.690 -17.144 -23.168  0.00  0.00    -0.084 HD
ENDBRANCH  12  13
ENDBRANCH   1  12
TORSDOF 3
ENDMDL
MODEL 5
REMARK VINA RESULT:      -6.7      5.424      8.689
REMARK  Name = 7060565
REMARK  3 active torsions:
REMARK  status: ('A' for Active; 'I' for Inactive)
REMARK    1  A    between atoms: C_1  and  C_12
REMARK    2  A    between atoms: C_2  and  C_8
REMARK    3  A    between atoms: C_12  and  N_13
REMARK                            x       y       z     vdW  Elec       q    Type
REMARK                         _______ _______ _______ _____ _____    ______ ____
ROOT
ATOM      1  C   UNL     1      32.685 -23.172 -16.533  0.00  0.00    -0.043 C 
ATOM      2  C   UNL     1      33.372 -23.346 -15.331  0.00  0.00    +0.000 C 
ATOM      3  C   UNL     1      31.298 -23.021 -16.527  0.00  0.00    -0.006 C 
ATOM      4  C   UNL     1      32.673 -23.369 -14.124  0.00  0.00    +0.000 C 
ATOM      5  C   UNL     1      30.599 -23.044 -15.321  0.00  0.00    -0.000 C 
ATOM      6  C   UNL     1      31.286 -23.218 -14.119  0.00  0.00    -0.000 C 
ENDROOT
BRANCH   2   8
ATOM      7  S   UNL     1      35.464 -25.051 -14.975  0.00  0.00    -0.086 S 
ATOM      8  C   UNL     1      34.808 -23.505 -15.309  0.00  0.00    +0.029 C 
ATOM      9  C   UNL     1      35.788 -22.562 -15.526  0.00  0.00    +0.007 C 
ATOM     10  C   UNL     1      37.095 -23.116 -15.416  0.00  0.00    +0.007 C 
ATOM     11  C   UNL     1      37.065 -24.461 -15.120  0.00  0.00    +0.035 C 
ENDBRANCH   2   8
BRANCH   1  12
ATOM     12  C   UNL     1      33.400 -23.142 -17.846  0.00  0.00    -0.054 C 
BRANCH  12  13
ATOM     13  N   UNL     1      32.788 -22.208 -18.789  0.00  0.00    +0.385 N 
ATOM     14  C   UNL     1      33.807 -21.492 -19.540  0.00  0.00    -0.105 C 
ATOM     15  H   UNL     1      32.218 -21.536 -18.274  0.00  0.00    -0.084 HD
ATOM     16  H   UNL     1      32.209 -22.734 -19.443  0.00  0.00    -0.084 HD
ENDBRANCH  12  13
ENDBRANCH   1  12
TORSDOF 3
ENDMDL
MODEL 6
REMARK VINA RESULT:      -6.7      1.910      3.457
REMARK  Name = 7060565
REMARK  3 active torsions:
REMARK  status: ('A' for Active; 'I' for Inactive)
REMARK    1  A    between atoms: C_1  and  C_12
REMARK    2  A    between atoms: C_2  and  C_8
REMARK    3  A    between atoms: C_12  and  N_13
REMARK                            x       y       z     vdW  Elec       q    Type
REMARK                         _______ _______ _______ _____ _____    ______ ____
ROOT
ATOM      1  C   UNL     1      34.940 -16.529 -22.983  0.00  0.00    -0.043 C 
ATOM      2  C   UNL     1      34.784 -16.901 -21.647  0.00  0.00    +0.000 C 
ATOM      3  C   UNL     1      34.655 -15.223 -23.379  0.00  0.00    -0.006 C 
ATOM      4  C   UNL     1      34.345 -15.967 -20.709  0.00  0.00    +0.000 C 
ATOM      5  C   UNL     1      34.216 -14.289 -22.442  0.00  0.00    -0.000 C 
ATOM      6  C   UNL     1      34.060 -14.661 -21.107  0.00  0.00    -0.000 C 
ENDROOT
BRANCH   2   8
ATOM      7  S   UNL     1      33.770 -19.337 -20.976  0.00  0.00    -0.086 S 
ATOM      8  C   UNL     1      35.071 -18.248 -21.209  0.00  0.00    +0.029 C 
ATOM      9  C   UNL     1      36.289 -18.829 -20.934  0.00  0.00    +0.007 C 
ATOM     10  C   UNL     1      36.153 -20.187 -20.527  0.00  0.00    +0.007 C 
ATOM     11  C   UNL     1      34.836 -20.592 -20.506  0.00  0.00    +0.035 C 
ENDBRANCH   2   8
BRANCH   1  12
ATOM     12  C   UNL     1      35.408 -17.503 -24.016  0.00  0.00    -0.054 C 
BRANCH  12  13
ATOM     13  N   UNL     1      34.297 -18.201 -24.663  0.00  0.00    +0.385 N 
ATOM     14  C   UNL     1      34.547 -19.632 -24.713  0.00  0.00    -0.105 C 
ATOM     15  H   UNL     1      34.188 -17.846 -25.614  0.00  0.00    -0.084 HD
ATOM     16  H   UNL     1      33.448 -18.035 -24.124  0.00  0.00    -0.084 HD
ENDBRANCH  12  13
ENDBRANCH   1  12
TORSDOF 3
ENDMDL
MODEL 7
REMARK VINA RESULT:      -6.5      4.046      6.501
REMARK  Name = 7060565
REMARK  3 active torsions:
REMARK  status: ('A' for Active; 'I' for Inactive)
REMARK    1  A    between atoms: C_1  and  C_12
REMARK    2  A    between atoms: C_2  and  C_8
REMARK    3  A    between atoms: C_12  and  N_13
REMARK                            x       y       z     vdW  Elec       q    Type
REMARK                         _______ _______ _______ _____ _____    ______ ____
ROOT
ATOM      1  C   UNL     1      32.847 -13.692 -22.012  0.00  0.00    -0.043 C 
ATOM      2  C   UNL     1      33.661 -14.135 -23.055  0.00  0.00    +0.000 C 
ATOM      3  C   UNL     1      32.922 -14.306 -20.762  0.00  0.00    -0.006 C 
ATOM      4  C   UNL     1      34.550 -15.190 -22.847  0.00  0.00    +0.000 C 
ATOM      5  C   UNL     1      33.810 -15.360 -20.554  0.00  0.00    -0.000 C 
ATOM      6  C   UNL     1      34.624 -15.803 -21.597  0.00  0.00    -0.000 C 
ENDROOT
BRANCH   2   8
ATOM      7  S   UNL     1      33.025 -14.436 -25.684  0.00  0.00    -0.086 S 
ATOM      8  C   UNL     1      33.604 -13.517 -24.360  0.00  0.00    +0.029 C 
ATOM      9  C   UNL     1      33.958 -12.240 -24.731  0.00  0.00    +0.007 C 
ATOM     10  C   UNL     1      33.751 -12.011 -26.122  0.00  0.00    +0.007 C 
ATOM     11  C   UNL     1      33.247 -13.123 -26.760  0.00  0.00    +0.035 C 
ENDBRANCH   2   8
BRANCH   1  12
ATOM     12  C   UNL     1      31.883 -12.565 -22.197  0.00  0.00    -0.054 C 
BRANCH  12  13
ATOM     13  N   UNL     1      31.552 -11.906 -20.934  0.00  0.00    +0.385 N 
ATOM     14  C   UNL     1      31.424 -10.470 -21.121  0.00  0.00    -0.105 C 
ATOM     15  H   UNL     1      32.291 -12.092 -20.256  0.00  0.00    -0.084 HD
ATOM     16  H   UNL     1      30.661 -12.272 -20.597  0.00  0.00    -0.084 HD
ENDBRANCH  12  13
ENDBRANCH   1  12
TORSDOF 3
ENDMDL
MODEL 8
REMARK VINA RESULT:      -6.5      7.776     10.137
REMARK  Name = 7060565
REMARK  3 active torsions:
REMARK  status: ('A' for Active; 'I' for Inactive)
REMARK    1  A    between atoms: C_1  and  C_12
REMARK    2  A    between atoms: C_2  and  C_8
REMARK    3  A    between atoms: C_12  and  N_13
REMARK                            x       y       z     vdW  Elec       q    Type
REMARK                         _______ _______ _______ _____ _____    ______ ____
ROOT
ATOM      1  C   UNL     1      32.731 -10.153 -23.195  0.00  0.00    -0.043 C 
ATOM      2  C   UNL     1      33.277  -8.870 -23.151  0.00  0.00    +0.000 C 
ATOM      3  C   UNL     1      33.357 -11.151 -23.940  0.00  0.00    -0.006 C 
ATOM      4  C   UNL     1      34.450  -8.586 -23.851  0.00  0.00    +0.000 C 
ATOM      5  C   UNL     1      34.529 -10.869 -24.640  0.00  0.00    -0.000 C 
ATOM      6  C   UNL     1      35.075  -9.586 -24.597  0.00  0.00    -0.000 C 
ENDROOT
BRANCH   2   8
ATOM      7  S   UNL     1      31.532  -6.781 -23.170  0.00  0.00    -0.086 S 
ATOM      8  C   UNL     1      32.648  -7.816 -22.387  0.00  0.00    +0.029 C 
ATOM      9  C   UNL     1      32.810  -7.494 -21.058  0.00  0.00    +0.007 C 
ATOM     10  C   UNL     1      32.007  -6.382 -20.677  0.00  0.00    +0.007 C 
ATOM     11  C   UNL     1      31.262  -5.896 -21.729  0.00  0.00    +0.035 C 
ENDBRANCH   2   8
BRANCH   1  12
ATOM     12  C   UNL     1      31.476 -10.493 -22.457  0.00  0.00    -0.054 C 
BRANCH  12  13
ATOM     13  N   UNL     1      31.443 -11.894 -22.038  0.00  0.00    +0.385 N 
ATOM     14  C   UNL     1      31.618 -12.006 -20.599  0.00  0.00    -0.105 C 
ATOM     15  H   UNL     1      32.193 -12.402 -22.508  0.00  0.00    -0.084 HD
ATOM     16  H   UNL     1      30.536 -12.290 -22.289  0.00  0.00    -0.084 HD
ENDBRANCH  12  13
ENDBRANCH   1  12
TORSDOF 3
ENDMDL
MODEL 9
REMARK VINA RESULT:      -6.4      7.037      9.440
REMARK  Name = 7060565
REMARK  3 active torsions:
REMARK  status: ('A' for Active; 'I' for Inactive)
REMARK    1  A    between atoms: C_1  and  C_12
REMARK    2  A    between atoms: C_2  and  C_8
REMARK    3  A    between atoms: C_12  and  N_13
REMARK                            x       y       z     vdW  Elec       q    Type
REMARK                         _______ _______ _______ _____ _____    ______ ____
ROOT
ATOM      1  C   UNL     1      32.038 -11.239 -22.369  0.00  0.00    -0.043 C 
ATOM      2  C   UNL     1      32.616 -10.114 -22.957  0.00  0.00    +0.000 C 
ATOM      3  C   UNL     1      32.408 -12.515 -22.793  0.00  0.00    -0.006 C 
ATOM      4  C   UNL     1      33.564 -10.265 -23.969  0.00  0.00    +0.000 C 
ATOM      5  C   UNL     1      33.356 -12.667 -23.804  0.00  0.00    -0.000 C 
ATOM      6  C   UNL     1      33.934 -11.542 -24.393  0.00  0.00    -0.000 C 
ENDROOT
BRANCH   2   8
ATOM      7  S   UNL     1      31.106  -7.907 -23.464  0.00  0.00    -0.086 S 
ATOM      8  C   UNL     1      32.250  -8.781 -22.537  0.00  0.00    +0.029 C 
ATOM      9  C   UNL     1      32.697  -8.061 -21.452  0.00  0.00    +0.007 C 
ATOM     10  C   UNL     1      32.092  -6.774 -21.379  0.00  0.00    +0.007 C 
ATOM     11  C   UNL     1      31.205  -6.559 -22.412  0.00  0.00    +0.035 C 
ENDBRANCH   2   8
BRANCH   1  12
ATOM     12  C   UNL     1      31.018 -11.116 -21.282  0.00  0.00    -0.054 C 
BRANCH  12  13
ATOM     13  N   UNL     1      31.510 -11.624 -20.001  0.00  0.00    +0.385 N 
ATOM     14  C   UNL     1      31.461 -10.587 -18.983  0.00  0.00    -0.105 C 
ATOM     15  H   UNL     1      32.474 -11.939 -20.113  0.00  0.00    -0.084 HD
ATOM     16  H   UNL     1      30.916 -12.400 -19.707  0.00  0.00    -0.084 HD
ENDBRANCH  12  13
ENDBRANCH   1  12
TORSDOF 3
ENDMDL
