MODEL 1
REMARK VINA RESULT:      -7.6      0.000      0.000
REMARK  Name = 5289293
REMARK  9 active torsions:
REMARK  status: ('A' for Active; 'I' for Inactive)
REMARK    1  A    between atoms: P_1  and  O_3
REMARK    2  A    between atoms: P_1  and  O_5
REMARK    3  A    between atoms: P_1  and  C_14
REMARK    4  A    between atoms: O_5  and  C_6
REMARK    5  A    between atoms: C_6  and  C_9
REMARK    6  A    between atoms: C_14  and  C_15
REMARK    7  A    between atoms: C_15  and  C_16
REMARK    8  A    between atoms: C_16  and  C_17
REMARK    9  A    between atoms: C_17  and  C_18
REMARK                            x       y       z     vdW  Elec       q    Type
REMARK                         _______ _______ _______ _____ _____    ______ ____
ROOT
ATOM      1  P   UNL     1      33.769 -22.659 -18.598  0.00  0.00    +0.340 P 
ATOM      2  O   UNL     1      32.370 -22.486 -18.112  0.00  0.00    -0.258 OA
ENDROOT
BRANCH   1   3
ATOM      3  O   UNL     1      34.006 -23.938 -19.550  0.00  0.00    -0.323 OA
ATOM      4  H   UNL     1      34.872 -24.327 -19.358  0.00  0.00    +0.220 HD
ENDBRANCH   1   3
BRANCH   1   5
ATOM      5  O   UNL     1      34.887 -22.787 -17.447  0.00  0.00    -0.292 OA
BRANCH   5   6
ATOM      6  C   UNL     1      34.569 -23.285 -16.159  0.00  0.00    +0.183 C 
BRANCH   6   9
ATOM      7  O   UNL     1      36.045 -24.341 -14.556  0.00  0.00    -0.332 OA
ATOM      8  O   UNL     1      38.064 -23.250 -15.056  0.00  0.00    -0.332 OA
ATOM      9  C   UNL     1      35.775 -23.125 -15.258  0.00  0.00    +0.177 C 
ATOM     10  C   UNL     1      37.456 -24.301 -14.286  0.00  0.00    +0.187 C 
ATOM     11  C   UNL     1      37.065 -22.869 -16.001  0.00  0.00    +0.177 C 
ATOM     12  C   UNL     1      38.065 -25.637 -14.690  0.00  0.00    +0.061 C 
ATOM     13  C   UNL     1      37.678 -24.015 -12.807  0.00  0.00    +0.061 C 
ENDBRANCH   6   9
ENDBRANCH   5   6
ENDBRANCH   1   5
BRANCH   1  14
ATOM     14  C   UNL     1      34.326 -21.283 -19.630  0.00  0.00    +0.116 C 
BRANCH  14  15
ATOM     15  C   UNL     1      33.187 -20.490 -20.258  0.00  0.00    +0.013 C 
BRANCH  15  16
ATOM     16  C   UNL     1      33.691 -19.280 -21.047  0.00  0.00    +0.005 C 
BRANCH  16  17
ATOM     17  C   UNL     1      35.099 -19.525 -21.596  0.00  0.00    +0.026 C 
BRANCH  17  18
ATOM     18  C   UNL     1      35.328 -18.762 -22.867  0.00  0.00    -0.026 C 
ATOM     19  C   UNL     1      34.795 -19.097 -24.048  0.00  0.00    -0.005 C 
ENDBRANCH  17  18
ENDBRANCH  16  17
ENDBRANCH  15  16
ENDBRANCH  14  15
ENDBRANCH   1  14
TORSDOF 9
ENDMDL
MODEL 2
REMARK VINA RESULT:      -7.4      7.019      9.333
REMARK  Name = 5289293
REMARK  9 active torsions:
REMARK  status: ('A' for Active; 'I' for Inactive)
REMARK    1  A    between atoms: P_1  and  O_3
REMARK    2  A    between atoms: P_1  and  O_5
REMARK    3  A    between atoms: P_1  and  C_14
REMARK    4  A    between atoms: O_5  and  C_6
REMARK    5  A    between atoms: C_6  and  C_9
REMARK    6  A    between atoms: C_14  and  C_15
REMARK    7  A    between atoms: C_15  and  C_16
REMARK    8  A    between atoms: C_16  and  C_17
REMARK    9  A    between atoms: C_17  and  C_18
REMARK                            x       y       z     vdW  Elec       q    Type
REMARK                         _______ _______ _______ _____ _____    ______ ____
ROOT
ATOM      1  P   UNL     1      33.736 -14.332 -23.560  0.00  0.00    +0.340 P 
ATOM      2  O   UNL     1      33.141 -14.857 -24.823  0.00  0.00    -0.258 OA
ENDROOT
BRANCH   1   3
ATOM      3  O   UNL     1      34.341 -12.841 -23.661  0.00  0.00    -0.323 OA
ATOM      4  H   UNL     1      35.273 -12.853 -23.395  0.00  0.00    +0.220 HD
ENDBRANCH   1   3
BRANCH   1   5
ATOM      5  O   UNL     1      34.926 -15.221 -22.938  0.00  0.00    -0.292 OA
BRANCH   5   6
ATOM      6  C   UNL     1      34.799 -15.848 -21.675  0.00  0.00    +0.183 C 
BRANCH   6   9
ATOM      7  O   UNL     1      34.748 -18.061 -20.695  0.00  0.00    -0.332 OA
ATOM      8  O   UNL     1      34.790 -19.385 -22.636  0.00  0.00    -0.332 OA
ATOM      9  C   UNL     1      35.241 -17.291 -21.795  0.00  0.00    +0.177 C 
ATOM     10  C   UNL     1      34.650 -19.401 -21.205  0.00  0.00    +0.187 C 
ATOM     11  C   UNL     1      34.670 -18.008 -22.995  0.00  0.00    +0.177 C 
ATOM     12  C   UNL     1      33.280 -19.960 -20.840  0.00  0.00    +0.061 C 
ATOM     13  C   UNL     1      35.769 -20.249 -20.615  0.00  0.00    +0.061 C 
ENDBRANCH   6   9
ENDBRANCH   5   6
ENDBRANCH   1   5
BRANCH   1  14
ATOM     14  C   UNL     1      32.527 -14.184 -22.225  0.00  0.00    +0.116 C 
BRANCH  14  15
ATOM     15  C   UNL     1      32.032 -12.760 -22.004  0.00  0.00    +0.013 C 
BRANCH  15  16
ATOM     16  C   UNL     1      31.894 -12.419 -20.520  0.00  0.00    +0.005 C 
BRANCH  16  17
ATOM     17  C   UNL     1      31.026 -11.175 -20.316  0.00  0.00    +0.026 C 
BRANCH  17  18
ATOM     18  C   UNL     1      31.728 -10.151 -19.474  0.00  0.00    -0.026 C 
ATOM     19  C   UNL     1      32.155  -8.969 -19.934  0.00  0.00    -0.005 C 
ENDBRANCH  17  18
ENDBRANCH  16  17
ENDBRANCH  15  16
ENDBRANCH  14  15
ENDBRANCH   1  14
TORSDOF 9
ENDMDL
MODEL 3
REMARK VINA RESULT:      -7.3      3.206      4.992
REMARK  Name = 5289293
REMARK  9 active torsions:
REMARK  status: ('A' for Active; 'I' for Inactive)
REMARK    1  A    between atoms: P_1  and  O_3
REMARK    2  A    between atoms: P_1  and  O_5
REMARK    3  A    between atoms: P_1  and  C_14
REMARK    4  A    between atoms: O_5  and  C_6
REMARK    5  A    between atoms: C_6  and  C_9
REMARK    6  A    between atoms: C_14  and  C_15
REMARK    7  A    between atoms: C_15  and  C_16
REMARK    8  A    between atoms: C_16  and  C_17
REMARK    9  A    between atoms: C_17  and  C_18
REMARK                            x       y       z     vdW  Elec       q    Type
REMARK                         _______ _______ _______ _____ _____    ______ ____
ROOT
ATOM      1  P   UNL     1      34.085 -22.765 -18.883  0.00  0.00    +0.340 P 
ATOM      2  O   UNL     1      34.162 -23.861 -19.892  0.00  0.00    -0.258 OA
ENDROOT
BRANCH   1   3
ATOM      3  O   UNL     1      35.218 -22.815 -17.737  0.00  0.00    -0.323 OA
ATOM      4  H   UNL     1      35.116 -23.627 -17.217  0.00  0.00    +0.220 HD
ENDBRANCH   1   3
BRANCH   1   5
ATOM      5  O   UNL     1      32.691 -22.663 -18.083  0.00  0.00    -0.292 OA
BRANCH   5   6
ATOM      6  C   UNL     1      32.515 -23.281 -16.821  0.00  0.00    +0.183 C 
BRANCH   6   9
ATOM      7  O   UNL     1      30.179 -23.822 -16.487  0.00  0.00    -0.332 OA
ATOM      8  O   UNL     1      29.803 -22.807 -14.401  0.00  0.00    -0.332 OA
ATOM      9  C   UNL     1      31.189 -22.840 -16.238  0.00  0.00    +0.177 C 
ATOM     10  C   UNL     1      29.234 -23.650 -15.417  0.00  0.00    +0.187 C 
ATOM     11  C   UNL     1      31.189 -22.728 -14.732  0.00  0.00    +0.177 C 
ATOM     12  C   UNL     1      28.924 -25.017 -14.821  0.00  0.00    +0.061 C 
ATOM     13  C   UNL     1      27.976 -22.983 -15.958  0.00  0.00    +0.061 C 
ENDBRANCH   6   9
ENDBRANCH   5   6
ENDBRANCH   1   5
BRANCH   1  14
ATOM     14  C   UNL     1      34.321 -21.127 -19.608  0.00  0.00    +0.116 C 
BRANCH  14  15
ATOM     15  C   UNL     1      33.084 -20.588 -20.315  0.00  0.00    +0.013 C 
BRANCH  15  16
ATOM     16  C   UNL     1      33.406 -19.396 -21.217  0.00  0.00    +0.005 C 
BRANCH  16  17
ATOM     17  C   UNL     1      34.909 -19.297 -21.488  0.00  0.00    +0.026 C 
BRANCH  17  18
ATOM     18  C   UNL     1      35.183 -18.638 -22.808  0.00  0.00    -0.026 C 
ATOM     19  C   UNL     1      34.809 -19.144 -23.989  0.00  0.00    -0.005 C 
ENDBRANCH  17  18
ENDBRANCH  16  17
ENDBRANCH  15  16
ENDBRANCH  14  15
ENDBRANCH   1  14
TORSDOF 9
ENDMDL
MODEL 4
REMARK VINA RESULT:      -7.2      5.296      9.632
REMARK  Name = 5289293
REMARK  9 active torsions:
REMARK  status: ('A' for Active; 'I' for Inactive)
REMARK    1  A    between atoms: P_1  and  O_3
REMARK    2  A    between atoms: P_1  and  O_5
REMARK    3  A    between atoms: P_1  and  C_14
REMARK    4  A    between atoms: O_5  and  C_6
REMARK    5  A    between atoms: C_6  and  C_9
REMARK    6  A    between atoms: C_14  and  C_15
REMARK    7  A    between atoms: C_15  and  C_16
REMARK    8  A    between atoms: C_16  and  C_17
REMARK    9  A    between atoms: C_17  and  C_18
REMARK                            x       y       z     vdW  Elec       q    Type
REMARK                         _______ _______ _______ _____ _____    ______ ____
ROOT
ATOM      1  P   UNL     1      35.016 -18.018 -21.522  0.00  0.00    +0.340 P 
ATOM      2  O   UNL     1      36.168 -18.380 -20.647  0.00  0.00    -0.258 OA
ENDROOT
BRANCH   1   3
ATOM      3  O   UNL     1      35.411 -17.589 -23.025  0.00  0.00    -0.323 OA
ATOM      4  H   UNL     1      34.607 -17.511 -23.561  0.00  0.00    +0.220 HD
ENDBRANCH   1   3
BRANCH   1   5
ATOM      5  O   UNL     1      34.090 -16.817 -20.979  0.00  0.00    -0.292 OA
BRANCH   5   6
ATOM      6  C   UNL     1      34.639 -15.557 -20.635  0.00  0.00    +0.183 C 
BRANCH   6   9
ATOM      7  O   UNL     1      34.567 -14.514 -22.819  0.00  0.00    -0.332 OA
ATOM      8  O   UNL     1      32.293 -13.935 -22.937  0.00  0.00    -0.332 OA
ATOM      9  C   UNL     1      34.005 -14.491 -21.504  0.00  0.00    +0.177 C 
ATOM     10  C   UNL     1      33.532 -13.989 -23.666  0.00  0.00    +0.187 C 
ATOM     11  C   UNL     1      32.533 -14.706 -21.760  0.00  0.00    +0.177 C 
ATOM     12  C   UNL     1      33.370 -14.915 -24.865  0.00  0.00    +0.061 C 
ATOM     13  C   UNL     1      33.904 -12.578 -24.102  0.00  0.00    +0.061 C 
ENDBRANCH   6   9
ENDBRANCH   5   6
ENDBRANCH   1   5
BRANCH   1  14
ATOM     14  C   UNL     1      33.876 -19.395 -21.785  0.00  0.00    +0.116 C 
BRANCH  14  15
ATOM     15  C   UNL     1      32.998 -19.700 -20.578  0.00  0.00    +0.013 C 
BRANCH  15  16
ATOM     16  C   UNL     1      33.153 -21.145 -20.100  0.00  0.00    +0.005 C 
BRANCH  16  17
ATOM     17  C   UNL     1      34.570 -21.407 -19.585  0.00  0.00    +0.026 C 
BRANCH  17  18
ATOM     18  C   UNL     1      34.557 -22.325 -18.398  0.00  0.00    -0.026 C 
ATOM     19  C   UNL     1      33.486 -23.024 -18.003  0.00  0.00    -0.005 C 
ENDBRANCH  17  18
ENDBRANCH  16  17
ENDBRANCH  15  16
ENDBRANCH  14  15
ENDBRANCH   1  14
TORSDOF 9
ENDMDL
MODEL 5
REMARK VINA RESULT:      -7.1      1.470      2.029
REMARK  Name = 5289293
REMARK  9 active torsions:
REMARK  status: ('A' for Active; 'I' for Inactive)
REMARK    1  A    between atoms: P_1  and  O_3
REMARK    2  A    between atoms: P_1  and  O_5
REMARK    3  A    between atoms: P_1  and  C_14
REMARK    4  A    between atoms: O_5  and  C_6
REMARK    5  A    between atoms: C_6  and  C_9
REMARK    6  A    between atoms: C_14  and  C_15
REMARK    7  A    between atoms: C_15  and  C_16
REMARK    8  A    between atoms: C_16  and  C_17
REMARK    9  A    between atoms: C_17  and  C_18
REMARK                            x       y       z     vdW  Elec       q    Type
REMARK                         _______ _______ _______ _____ _____    ______ ____
ROOT
ATOM      1  P   UNL     1      33.996 -22.570 -18.788  0.00  0.00    +0.340 P 
ATOM      2  O   UNL     1      32.694 -21.843 -18.783  0.00  0.00    -0.258 OA
ENDROOT
BRANCH   1   3
ATOM      3  O   UNL     1      33.986 -23.980 -19.569  0.00  0.00    -0.323 OA
ATOM      4  H   UNL     1      34.786 -24.054 -20.112  0.00  0.00    +0.220 HD
ENDBRANCH   1   3
BRANCH   1   5
ATOM      5  O   UNL     1      34.601 -22.906 -17.334  0.00  0.00    -0.292 OA
BRANCH   5   6
ATOM      6  C   UNL     1      33.765 -23.286 -16.255  0.00  0.00    +0.183 C 
BRANCH   6   9
ATOM      7  O   UNL     1      35.791 -24.575 -15.942  0.00  0.00    -0.332 OA
ATOM      8  O   UNL     1      35.842 -24.722 -13.597  0.00  0.00    -0.332 OA
ATOM      9  C   UNL     1      34.488 -24.317 -15.413  0.00  0.00    +0.177 C 
ATOM     10  C   UNL     1      36.566 -25.000 -14.808  0.00  0.00    +0.187 C 
ATOM     11  C   UNL     1      34.777 -23.862 -14.003  0.00  0.00    +0.177 C 
ATOM     12  C   UNL     1      37.878 -24.226 -14.799  0.00  0.00    +0.061 C 
ATOM     13  C   UNL     1      36.809 -26.500 -14.897  0.00  0.00    +0.061 C 
ENDBRANCH   6   9
ENDBRANCH   5   6
ENDBRANCH   1   5
BRANCH   1  14
ATOM     14  C   UNL     1      35.306 -21.655 -19.631  0.00  0.00    +0.116 C 
BRANCH  14  15
ATOM     15  C   UNL     1      34.808 -20.427 -20.382  0.00  0.00    +0.013 C 
BRANCH  15  16
ATOM     16  C   UNL     1      35.956 -19.549 -20.882  0.00  0.00    +0.005 C 
BRANCH  16  17
ATOM     17  C   UNL     1      35.453 -18.485 -21.861  0.00  0.00    +0.026 C 
BRANCH  17  18
ATOM     18  C   UNL     1      34.474 -17.559 -21.202  0.00  0.00    -0.026 C 
ATOM     19  C   UNL     1      34.715 -16.266 -20.955  0.00  0.00    -0.005 C 
ENDBRANCH  17  18
ENDBRANCH  16  17
ENDBRANCH  15  16
ENDBRANCH  14  15
ENDBRANCH   1  14
TORSDOF 9
ENDMDL
MODEL 6
REMARK VINA RESULT:      -6.9      2.797      7.885
REMARK  Name = 5289293
REMARK  9 active torsions:
REMARK  status: ('A' for Active; 'I' for Inactive)
REMARK    1  A    between atoms: P_1  and  O_3
REMARK    2  A    between atoms: P_1  and  O_5
REMARK    3  A    between atoms: P_1  and  C_14
REMARK    4  A    between atoms: O_5  and  C_6
REMARK    5  A    between atoms: C_6  and  C_9
REMARK    6  A    between atoms: C_14  and  C_15
REMARK    7  A    between atoms: C_15  and  C_16
REMARK    8  A    between atoms: C_16  and  C_17
REMARK    9  A    between atoms: C_17  and  C_18
REMARK                            x       y       z     vdW  Elec       q    Type
REMARK                         _______ _______ _______ _____ _____    ______ ____
ROOT
ATOM      1  P   UNL     1      33.982 -22.851 -18.957  0.00  0.00    +0.340 P 
ATOM      2  O   UNL     1      35.342 -22.340 -18.623  0.00  0.00    -0.258 OA
ENDROOT
BRANCH   1   3
ATOM      3  O   UNL     1      33.956 -24.270 -19.722  0.00  0.00    -0.323 OA
ATOM      4  H   UNL     1      34.809 -24.716 -19.603  0.00  0.00    +0.220 HD
ENDBRANCH   1   3
BRANCH   1   5
ATOM      5  O   UNL     1      33.084 -21.873 -19.869  0.00  0.00    -0.292 OA
BRANCH   5   6
ATOM      6  C   UNL     1      33.326 -20.478 -19.917  0.00  0.00    +0.183 C 
BRANCH   6   9
ATOM      7  O   UNL     1      33.692 -19.137 -21.900  0.00  0.00    -0.332 OA
ATOM      8  O   UNL     1      36.036 -18.971 -21.872  0.00  0.00    -0.332 OA
ATOM      9  C   UNL     1      34.241 -20.177 -21.086  0.00  0.00    +0.177 C 
ATOM     10  C   UNL     1      34.833 -18.519 -22.518  0.00  0.00    +0.187 C 
ATOM     11  C   UNL     1      35.585 -19.620 -20.683  0.00  0.00    +0.177 C 
ATOM     12  C   UNL     1      34.713 -17.009 -22.358  0.00  0.00    +0.061 C 
ATOM     13  C   UNL     1      34.889 -18.918 -23.986  0.00  0.00    +0.061 C 
ENDBRANCH   6   9
ENDBRANCH   5   6
ENDBRANCH   1   5
BRANCH   1  14
ATOM     14  C   UNL     1      32.972 -23.168 -17.492  0.00  0.00    +0.116 C 
BRANCH  14  15
ATOM     15  C   UNL     1      33.781 -23.282 -16.206  0.00  0.00    +0.013 C 
BRANCH  15  16
ATOM     16  C   UNL     1      32.891 -23.293 -14.962  0.00  0.00    +0.005 C 
BRANCH  16  17
ATOM     17  C   UNL     1      31.430 -23.020 -15.324  0.00  0.00    +0.026 C 
BRANCH  17  18
ATOM     18  C   UNL     1      30.495 -23.698 -14.367  0.00  0.00    -0.026 C 
ATOM     19  C   UNL     1      30.832 -24.749 -13.609  0.00  0.00    -0.005 C 
ENDBRANCH  17  18
ENDBRANCH  16  17
ENDBRANCH  15  16
ENDBRANCH  14  15
ENDBRANCH   1  14
TORSDOF 9
ENDMDL
MODEL 7
REMARK VINA RESULT:      -6.9      6.313      8.970
REMARK  Name = 5289293
REMARK  9 active torsions:
REMARK  status: ('A' for Active; 'I' for Inactive)
REMARK    1  A    between atoms: P_1  and  O_3
REMARK    2  A    between atoms: P_1  and  O_5
REMARK    3  A    between atoms: P_1  and  C_14
REMARK    4  A    between atoms: O_5  and  C_6
REMARK    5  A    between atoms: C_6  and  C_9
REMARK    6  A    between atoms: C_14  and  C_15
REMARK    7  A    between atoms: C_15  and  C_16
REMARK    8  A    between atoms: C_16  and  C_17
REMARK    9  A    between atoms: C_17  and  C_18
REMARK                            x       y       z     vdW  Elec       q    Type
REMARK                         _______ _______ _______ _____ _____    ______ ____
ROOT
ATOM      1  P   UNL     1      33.014 -14.679 -21.384  0.00  0.00    +0.340 P 
ATOM      2  O   UNL     1      32.869 -13.645 -20.319  0.00  0.00    -0.258 OA
ENDROOT
BRANCH   1   3
ATOM      3  O   UNL     1      31.987 -15.916 -21.276  0.00  0.00    -0.323 OA
ATOM      4  H   UNL     1      31.394 -15.911 -22.043  0.00  0.00    +0.220 HD
ENDBRANCH   1   3
BRANCH   1   5
ATOM      5  O   UNL     1      34.471 -15.357 -21.489  0.00  0.00    -0.292 OA
BRANCH   5   6
ATOM      6  C   UNL     1      34.941 -15.913 -22.704  0.00  0.00    +0.183 C 
BRANCH   6   9
ATOM      7  O   UNL     1      34.845 -17.814 -21.208  0.00  0.00    -0.332 OA
ATOM      8  O   UNL     1      34.866 -19.577 -22.762  0.00  0.00    -0.332 OA
ATOM      9  C   UNL     1      35.355 -17.349 -22.461  0.00  0.00    +0.177 C 
ATOM     10  C   UNL     1      34.722 -19.237 -21.372  0.00  0.00    +0.187 C 
ATOM     11  C   UNL     1      34.773 -18.330 -23.450  0.00  0.00    +0.177 C 
ATOM     12  C   UNL     1      33.341 -19.663 -20.890  0.00  0.00    +0.061 C 
ATOM     13  C   UNL     1      35.823 -19.933 -20.583  0.00  0.00    +0.061 C 
ENDBRANCH   6   9
ENDBRANCH   5   6
ENDBRANCH   1   5
BRANCH   1  14
ATOM     14  C   UNL     1      32.688 -14.030 -23.038  0.00  0.00    +0.116 C 
BRANCH  14  15
ATOM     15  C   UNL     1      32.660 -12.508 -23.104  0.00  0.00    +0.013 C 
BRANCH  15  16
ATOM     16  C   UNL     1      33.773 -11.947 -23.992  0.00  0.00    +0.005 C 
BRANCH  16  17
ATOM     17  C   UNL     1      33.776 -10.417 -23.972  0.00  0.00    +0.026 C 
BRANCH  17  18
ATOM     18  C   UNL     1      34.970  -9.866 -24.694  0.00  0.00    -0.026 C 
ATOM     19  C   UNL     1      35.458 -10.375 -25.833  0.00  0.00    -0.005 C 
ENDBRANCH  17  18
ENDBRANCH  16  17
ENDBRANCH  15  16
ENDBRANCH  14  15
ENDBRANCH   1  14
TORSDOF 9
ENDMDL
MODEL 8
REMARK VINA RESULT:      -6.9      3.278      5.836
REMARK  Name = 5289293
REMARK  9 active torsions:
REMARK  status: ('A' for Active; 'I' for Inactive)
REMARK    1  A    between atoms: P_1  and  O_3
REMARK    2  A    between atoms: P_1  and  O_5
REMARK    3  A    between atoms: P_1  and  C_14
REMARK    4  A    between atoms: O_5  and  C_6
REMARK    5  A    between atoms: C_6  and  C_9
REMARK    6  A    between atoms: C_14  and  C_15
REMARK    7  A    between atoms: C_15  and  C_16
REMARK    8  A    between atoms: C_16  and  C_17
REMARK    9  A    between atoms: C_17  and  C_18
REMARK                            x       y       z     vdW  Elec       q    Type
REMARK                         _______ _______ _______ _____ _____    ______ ____
ROOT
ATOM      1  P   UNL     1      35.130 -23.547 -15.144  0.00  0.00    +0.340 P 
ATOM      2  O   UNL     1      35.364 -24.979 -15.486  0.00  0.00    -0.258 OA
ENDROOT
BRANCH   1   3
ATOM      3  O   UNL     1      35.673 -23.095 -13.696  0.00  0.00    -0.323 OA
ATOM      4  H   UNL     1      35.825 -23.880 -13.149  0.00  0.00    +0.220 HD
ENDBRANCH   1   3
BRANCH   1   5
ATOM      5  O   UNL     1      33.590 -23.075 -15.175  0.00  0.00    -0.292 OA
BRANCH   5   6
ATOM      6  C   UNL     1      32.548 -23.922 -14.725  0.00  0.00    +0.183 C 
BRANCH   6   9
ATOM      7  O   UNL     1      30.159 -23.910 -15.121  0.00  0.00    -0.332 OA
ATOM      8  O   UNL     1      30.068 -22.691 -17.127  0.00  0.00    -0.332 OA
ATOM      9  C   UNL     1      31.440 -23.930 -15.757  0.00  0.00    +0.177 C 
ATOM     10  C   UNL     1      29.287 -23.290 -16.080  0.00  0.00    +0.187 C 
ATOM     11  C   UNL     1      31.406 -22.698 -16.628  0.00  0.00    +0.177 C 
ATOM     12  C   UNL     1      28.479 -22.209 -15.374  0.00  0.00    +0.061 C 
ATOM     13  C   UNL     1      28.379 -24.348 -16.693  0.00  0.00    +0.061 C 
ENDBRANCH   6   9
ENDBRANCH   5   6
ENDBRANCH   1   5
BRANCH   1  14
ATOM     14  C   UNL     1      35.981 -22.411 -16.263  0.00  0.00    +0.116 C 
BRANCH  14  15
ATOM     15  C   UNL     1      35.371 -22.356 -17.658  0.00  0.00    +0.013 C 
BRANCH  15  16
ATOM     16  C   UNL     1      36.281 -21.643 -18.660  0.00  0.00    +0.005 C 
BRANCH  16  17
ATOM     17  C   UNL     1      35.482 -21.109 -19.851  0.00  0.00    +0.026 C 
BRANCH  17  18
ATOM     18  C   UNL     1      34.006 -21.271 -19.633  0.00  0.00    -0.026 C 
ATOM     19  C   UNL     1      33.080 -20.450 -20.142  0.00  0.00    -0.005 C 
ENDBRANCH  17  18
ENDBRANCH  16  17
ENDBRANCH  15  16
ENDBRANCH  14  15
ENDBRANCH   1  14
TORSDOF 9
ENDMDL
MODEL 9
REMARK VINA RESULT:      -6.8      8.109     10.597
REMARK  Name = 5289293
REMARK  9 active torsions:
REMARK  status: ('A' for Active; 'I' for Inactive)
REMARK    1  A    between atoms: P_1  and  O_3
REMARK    2  A    between atoms: P_1  and  O_5
REMARK    3  A    between atoms: P_1  and  C_14
REMARK    4  A    between atoms: O_5  and  C_6
REMARK    5  A    between atoms: C_6  and  C_9
REMARK    6  A    between atoms: C_14  and  C_15
REMARK    7  A    between atoms: C_15  and  C_16
REMARK    8  A    between atoms: C_16  and  C_17
REMARK    9  A    between atoms: C_17  and  C_18
REMARK                            x       y       z     vdW  Elec       q    Type
REMARK                         _______ _______ _______ _____ _____    ______ ____
ROOT
ATOM      1  P   UNL     1      33.220 -13.018 -23.607  0.00  0.00    +0.340 P 
ATOM      2  O   UNL     1      32.249 -12.476 -22.614  0.00  0.00    -0.258 OA
ENDROOT
BRANCH   1   3
ATOM      3  O   UNL     1      32.571 -13.933 -24.764  0.00  0.00    -0.323 OA
ATOM      4  H   UNL     1      33.063 -13.807 -25.590  0.00  0.00    +0.220 HD
ENDBRANCH   1   3
BRANCH   1   5
ATOM      5  O   UNL     1      34.410 -13.910 -22.990  0.00  0.00    -0.292 OA
BRANCH   5   6
ATOM      6  C   UNL     1      34.192 -14.773 -21.888  0.00  0.00    +0.183 C 
BRANCH   6   9
ATOM      7  O   UNL     1      34.775 -16.952 -21.009  0.00  0.00    -0.332 OA
ATOM      8  O   UNL     1      34.984 -18.172 -23.006  0.00  0.00    -0.332 OA
ATOM      9  C   UNL     1      34.968 -16.055 -22.106  0.00  0.00    +0.177 C 
ATOM     10  C   UNL     1      34.971 -18.261 -21.571  0.00  0.00    +0.187 C 
ATOM     11  C   UNL     1      34.497 -16.861 -23.292  0.00  0.00    +0.177 C 
ATOM     12  C   UNL     1      33.818 -19.155 -21.133  0.00  0.00    +0.061 C 
ATOM     13  C   UNL     1      36.310 -18.814 -21.104  0.00  0.00    +0.061 C 
ENDBRANCH   6   9
ENDBRANCH   5   6
ENDBRANCH   1   5
BRANCH   1  14
ATOM     14  C   UNL     1      34.058 -11.721 -24.546  0.00  0.00    +0.116 C 
BRANCH  14  15
ATOM     15  C   UNL     1      33.827 -10.320 -23.994  0.00  0.00    +0.013 C 
BRANCH  15  16
ATOM     16  C   UNL     1      34.977  -9.369 -24.328  0.00  0.00    +0.005 C 
BRANCH  16  17
ATOM     17  C   UNL     1      34.757  -7.991 -23.699  0.00  0.00    +0.026 C 
BRANCH  17  18
ATOM     18  C   UNL     1      33.600  -8.007 -22.744  0.00  0.00    -0.026 C 
ATOM     19  C   UNL     1      32.748  -6.988 -22.581  0.00  0.00    -0.005 C 
ENDBRANCH  17  18
ENDBRANCH  16  17
ENDBRANCH  15  16
ENDBRANCH  14  15
ENDBRANCH   1  14
TORSDOF 9
ENDMDL
