MODEL 1
REMARK VINA RESULT:      -9.4      0.000      0.000
REMARK  Name = 16678087
REMARK  10 active torsions:
REMARK  status: ('A' for Active; 'I' for Inactive)
REMARK    1  A    between atoms: C_3  and  C_14
REMARK    2  A    between atoms: C_6  and  O_27
REMARK    3  A    between atoms: C_8  and  O_11
REMARK    4  A    between atoms: C_14  and  C_15
REMARK    5  A    between atoms: C_18  and  O_21
REMARK    6  A    between atoms: C_19  and  O_23
REMARK    7  A    between atoms: C_20  and  O_25
REMARK    8  A    between atoms: O_27  and  P_28
REMARK    9  A    between atoms: P_28  and  O_30
REMARK   10  A    between atoms: P_28  and  O_32
REMARK                            x       y       z     vdW  Elec       q    Type
REMARK                         _______ _______ _______ _____ _____    ______ ____
ROOT
ATOM      1  O   UNL     1      36.054 -21.998 -18.687  0.00  0.00    -0.454 OA
ATOM      2  C   UNL     1      33.799 -21.926 -18.573  0.00  0.00    +0.044 A 
ATOM      3  C   UNL     1      34.224 -21.148 -19.682  0.00  0.00    +0.072 A 
ATOM      4  C   UNL     1      34.961 -22.428 -17.995  0.00  0.00    +0.182 A 
ATOM      5  C   UNL     1      35.597 -21.224 -19.706  0.00  0.00    +0.126 A 
ATOM      6  C   UNL     1      34.983 -23.249 -16.870  0.00  0.00    +0.217 C 
ATOM      7  C   UNL     1      32.563 -22.264 -17.995  0.00  0.00    +0.007 C 
ATOM      8  C   UNL     1      33.742 -23.572 -16.312  0.00  0.00    +0.176 C 
ATOM      9  C   UNL     1      32.552 -23.089 -16.862  0.00  0.00    +0.040 C 
ATOM     10  C   UNL     1      36.626 -20.652 -20.588  0.00  0.00    +0.073 C 
ENDROOT
BRANCH   8  11
ATOM     11  O   UNL     1      33.681 -24.371 -15.207  0.00  0.00    -0.468 OA
ATOM     12  C   UNL     1      32.744 -24.007 -14.198  0.00  0.00    +0.253 C 
ENDBRANCH   8  11
BRANCH   3  14
ATOM     13  O   UNL     1      32.267 -20.747 -20.943  0.00  0.00    -0.286 OA
ATOM     14  C   UNL     1      33.422 -20.413 -20.616  0.00  0.00    +0.198 C 
BRANCH  14  15
ATOM     15  C   UNL     1      33.944 -19.178 -21.279  0.00  0.00    +0.045 C 
ATOM     16  C   UNL     1      33.957 -18.005 -20.563  0.00  0.00    +0.043 C 
ATOM     17  C   UNL     1      34.390 -19.268 -22.576  0.00  0.00    +0.043 C 
ATOM     18  C   UNL     1      34.876 -18.116 -23.194  0.00  0.00    +0.176 C 
ATOM     19  C   UNL     1      34.444 -16.853 -21.181  0.00  0.00    +0.176 C 
ATOM     20  C   UNL     1      34.903 -16.908 -22.497  0.00  0.00    +0.206 C 
BRANCH  18  21
ATOM     21  O   UNL     1      35.322 -18.184 -24.480  0.00  0.00    -0.468 OA
ATOM     22  C   UNL     1      34.340 -18.101 -25.511  0.00  0.00    +0.253 C 
ENDBRANCH  18  21
BRANCH  19  23
ATOM     23  O   UNL     1      34.463 -15.679 -20.489  0.00  0.00    -0.468 OA
ATOM     24  C   UNL     1      33.223 -14.987 -20.354  0.00  0.00    +0.253 C 
ENDBRANCH  19  23
BRANCH  20  25
ATOM     25  O   UNL     1      35.379 -15.783 -23.101  0.00  0.00    -0.465 OA
ATOM     26  C   UNL     1      34.421 -14.925 -23.718  0.00  0.00    +0.253 C 
ENDBRANCH  20  25
ENDBRANCH  14  15
ENDBRANCH   3  14
BRANCH   6  27
ATOM     27  O   UNL     1      36.148 -23.716 -16.338  0.00  0.00    -0.396 OA
BRANCH  27  28
ATOM     28  P   UNL     1      37.136 -22.872 -15.374  0.00  0.00    +0.528 P 
ATOM     29  O   UNL     1      36.749 -22.847 -13.923  0.00  0.00    -0.216 OA
BRANCH  28  30
ATOM     30  O   UNL     1      37.165 -21.417 -16.082  0.00  0.00    -0.293 OA
ATOM     31  H   UNL     1      36.263 -21.162 -16.333  0.00  0.00    +0.223 HD
ENDBRANCH  28  30
BRANCH  28  32
ATOM     32  O   UNL     1      38.606 -23.462 -15.698  0.00  0.00    -0.293 OA
ATOM     33  H   UNL     1      38.781 -23.389 -16.649  0.00  0.00    +0.223 HD
ENDBRANCH  28  32
ENDBRANCH  27  28
ENDBRANCH   6  27
TORSDOF 10
ENDMDL
MODEL 2
REMARK VINA RESULT:      -9.4      0.053      2.158
REMARK  Name = 16678087
REMARK  10 active torsions:
REMARK  status: ('A' for Active; 'I' for Inactive)
REMARK    1  A    between atoms: C_3  and  C_14
REMARK    2  A    between atoms: C_6  and  O_27
REMARK    3  A    between atoms: C_8  and  O_11
REMARK    4  A    between atoms: C_14  and  C_15
REMARK    5  A    between atoms: C_18  and  O_21
REMARK    6  A    between atoms: C_19  and  O_23
REMARK    7  A    between atoms: C_20  and  O_25
REMARK    8  A    between atoms: O_27  and  P_28
REMARK    9  A    between atoms: P_28  and  O_30
REMARK   10  A    between atoms: P_28  and  O_32
REMARK                            x       y       z     vdW  Elec       q    Type
REMARK                         _______ _______ _______ _____ _____    ______ ____
ROOT
ATOM      1  O   UNL     1      36.039 -21.995 -18.688  0.00  0.00    -0.454 OA
ATOM      2  C   UNL     1      33.784 -21.921 -18.571  0.00  0.00    +0.044 A 
ATOM      3  C   UNL     1      34.208 -21.143 -19.681  0.00  0.00    +0.072 A 
ATOM      4  C   UNL     1      34.947 -22.423 -17.995  0.00  0.00    +0.182 A 
ATOM      5  C   UNL     1      35.581 -21.220 -19.706  0.00  0.00    +0.126 A 
ATOM      6  C   UNL     1      34.970 -23.245 -16.870  0.00  0.00    +0.217 C 
ATOM      7  C   UNL     1      32.548 -22.258 -17.992  0.00  0.00    +0.007 C 
ATOM      8  C   UNL     1      33.729 -23.567 -16.310  0.00  0.00    +0.176 C 
ATOM      9  C   UNL     1      32.539 -23.083 -16.858  0.00  0.00    +0.040 C 
ATOM     10  C   UNL     1      36.610 -20.649 -20.589  0.00  0.00    +0.073 C 
ENDROOT
BRANCH   8  11
ATOM     11  O   UNL     1      33.669 -24.366 -15.205  0.00  0.00    -0.468 OA
ATOM     12  C   UNL     1      32.932 -23.873 -14.091  0.00  0.00    +0.253 C 
ENDBRANCH   8  11
BRANCH   3  14
ATOM     13  O   UNL     1      32.253 -20.743 -20.943  0.00  0.00    -0.286 OA
ATOM     14  C   UNL     1      33.406 -20.407 -20.614  0.00  0.00    +0.198 C 
BRANCH  14  15
ATOM     15  C   UNL     1      33.926 -19.169 -21.271  0.00  0.00    +0.045 C 
ATOM     16  C   UNL     1      34.388 -19.256 -22.563  0.00  0.00    +0.043 C 
ATOM     17  C   UNL     1      33.922 -17.995 -20.557  0.00  0.00    +0.043 C 
ATOM     18  C   UNL     1      34.408 -16.841 -21.170  0.00  0.00    +0.176 C 
ATOM     19  C   UNL     1      34.874 -18.102 -23.176  0.00  0.00    +0.176 C 
ATOM     20  C   UNL     1      34.884 -16.893 -22.479  0.00  0.00    +0.206 C 
BRANCH  18  21
ATOM     21  O   UNL     1      34.413 -15.666 -20.477  0.00  0.00    -0.468 OA
ATOM     22  C   UNL     1      33.165 -14.989 -20.344  0.00  0.00    +0.253 C 
ENDBRANCH  18  21
BRANCH  19  23
ATOM     23  O   UNL     1      35.338 -18.168 -24.456  0.00  0.00    -0.468 OA
ATOM     24  C   UNL     1      34.371 -18.072 -25.501  0.00  0.00    +0.253 C 
ENDBRANCH  19  23
BRANCH  20  25
ATOM     25  O   UNL     1      35.359 -15.765 -23.079  0.00  0.00    -0.465 OA
ATOM     26  C   UNL     1      34.401 -14.908 -23.696  0.00  0.00    +0.253 C 
ENDBRANCH  20  25
ENDBRANCH  14  15
ENDBRANCH   3  14
BRANCH   6  27
ATOM     27  O   UNL     1      36.135 -23.713 -16.339  0.00  0.00    -0.396 OA
BRANCH  27  28
ATOM     28  P   UNL     1      37.122 -22.871 -15.373  0.00  0.00    +0.528 P 
ATOM     29  O   UNL     1      36.725 -22.837 -13.925  0.00  0.00    -0.216 OA
BRANCH  28  30
ATOM     30  O   UNL     1      37.167 -21.420 -16.088  0.00  0.00    -0.293 OA
ATOM     31  H   UNL     1      37.226 -21.537 -17.049  0.00  0.00    +0.223 HD
ENDBRANCH  28  30
BRANCH  28  32
ATOM     32  O   UNL     1      38.590 -23.474 -15.683  0.00  0.00    -0.293 OA
ATOM     33  H   UNL     1      38.697 -23.588 -16.640  0.00  0.00    +0.223 HD
ENDBRANCH  28  32
ENDBRANCH  27  28
ENDBRANCH   6  27
TORSDOF 10
ENDMDL
MODEL 3
REMARK VINA RESULT:      -9.0      6.000     11.244
REMARK  Name = 16678087
REMARK  10 active torsions:
REMARK  status: ('A' for Active; 'I' for Inactive)
REMARK    1  A    between atoms: C_3  and  C_14
REMARK    2  A    between atoms: C_6  and  O_27
REMARK    3  A    between atoms: C_8  and  O_11
REMARK    4  A    between atoms: C_14  and  C_15
REMARK    5  A    between atoms: C_18  and  O_21
REMARK    6  A    between atoms: C_19  and  O_23
REMARK    7  A    between atoms: C_20  and  O_25
REMARK    8  A    between atoms: O_27  and  P_28
REMARK    9  A    between atoms: P_28  and  O_30
REMARK   10  A    between atoms: P_28  and  O_32
REMARK                            x       y       z     vdW  Elec       q    Type
REMARK                         _______ _______ _______ _____ _____    ______ ____
ROOT
ATOM      1  O   UNL     1      33.836 -10.190 -24.029  0.00  0.00    -0.454 OA
ATOM      2  C   UNL     1      32.698 -11.978 -23.246  0.00  0.00    +0.044 A 
ATOM      3  C   UNL     1      33.394 -12.361 -24.423  0.00  0.00    +0.072 A 
ATOM      4  C   UNL     1      33.003 -10.635 -23.047  0.00  0.00    +0.182 A 
ATOM      5  C   UNL     1      34.067 -11.243 -24.857  0.00  0.00    +0.126 A 
ATOM      6  C   UNL     1      32.515  -9.872 -21.987  0.00  0.00    +0.217 C 
ATOM      7  C   UNL     1      31.846 -12.617 -22.328  0.00  0.00    +0.007 C 
ATOM      8  C   UNL     1      31.670 -10.528 -21.087  0.00  0.00    +0.176 C 
ATOM      9  C   UNL     1      31.339 -11.875 -21.252  0.00  0.00    +0.040 C 
ATOM     10  C   UNL     1      34.954 -10.977 -26.000  0.00  0.00    +0.073 C 
ENDROOT
BRANCH   8  11
ATOM     11  O   UNL     1      31.150  -9.846 -20.024  0.00  0.00    -0.468 OA
ATOM     12  C   UNL     1      31.227 -10.481 -18.751  0.00  0.00    +0.253 C 
ENDBRANCH   8  11
BRANCH   3  14
ATOM     13  O   UNL     1      32.983 -13.843 -26.215  0.00  0.00    -0.286 OA
ATOM     14  C   UNL     1      33.421 -13.642 -25.067  0.00  0.00    +0.198 C 
BRANCH  14  15
ATOM     15  C   UNL     1      33.981 -14.844 -24.374  0.00  0.00    +0.045 C 
ATOM     16  C   UNL     1      34.175 -15.992 -25.104  0.00  0.00    +0.043 C 
ATOM     17  C   UNL     1      34.277 -14.751 -23.035  0.00  0.00    +0.043 C 
ATOM     18  C   UNL     1      34.797 -15.872 -22.389  0.00  0.00    +0.176 C 
ATOM     19  C   UNL     1      34.696 -17.113 -24.458  0.00  0.00    +0.176 C 
ATOM     20  C   UNL     1      35.007 -17.053 -23.100  0.00  0.00    +0.206 C 
BRANCH  18  21
ATOM     21  O   UNL     1      35.097 -15.799 -21.061  0.00  0.00    -0.468 OA
ATOM     22  C   UNL     1      34.249 -14.990 -20.249  0.00  0.00    +0.253 C 
ENDBRANCH  18  21
BRANCH  19  23
ATOM     23  O   UNL     1      34.894 -18.261 -25.165  0.00  0.00    -0.468 OA
ATOM     24  C   UNL     1      33.766 -19.117 -25.337  0.00  0.00    +0.253 C 
ENDBRANCH  19  23
BRANCH  20  25
ATOM     25  O   UNL     1      35.516 -18.148 -22.468  0.00  0.00    -0.465 OA
ATOM     26  C   UNL     1      34.593 -18.978 -21.768  0.00  0.00    +0.253 C 
ENDBRANCH  20  25
ENDBRANCH  14  15
ENDBRANCH   3  14
BRANCH   6  27
ATOM     27  O   UNL     1      32.842  -8.557 -21.833  0.00  0.00    -0.396 OA
BRANCH  27  28
ATOM     28  P   UNL     1      32.230  -7.338 -22.703  0.00  0.00    +0.528 P 
ATOM     29  O   UNL     1      30.872  -7.590 -23.293  0.00  0.00    -0.216 OA
BRANCH  28  30
ATOM     30  O   UNL     1      33.392  -7.063 -23.794  0.00  0.00    -0.293 OA
ATOM     31  H   UNL     1      33.588  -6.112 -23.824  0.00  0.00    +0.223 HD
ENDBRANCH  28  30
BRANCH  28  32
ATOM     32  O   UNL     1      32.342  -6.057 -21.723  0.00  0.00    -0.293 OA
ATOM     33  H   UNL     1      31.599  -5.456 -21.890  0.00  0.00    +0.223 HD
ENDBRANCH  28  32
ENDBRANCH  27  28
ENDBRANCH   6  27
TORSDOF 10
ENDMDL
MODEL 4
REMARK VINA RESULT:      -9.0      2.062      3.928
REMARK  Name = 16678087
REMARK  10 active torsions:
REMARK  status: ('A' for Active; 'I' for Inactive)
REMARK    1  A    between atoms: C_3  and  C_14
REMARK    2  A    between atoms: C_6  and  O_27
REMARK    3  A    between atoms: C_8  and  O_11
REMARK    4  A    between atoms: C_14  and  C_15
REMARK    5  A    between atoms: C_18  and  O_21
REMARK    6  A    between atoms: C_19  and  O_23
REMARK    7  A    between atoms: C_20  and  O_25
REMARK    8  A    between atoms: O_27  and  P_28
REMARK    9  A    between atoms: P_28  and  O_30
REMARK   10  A    between atoms: P_28  and  O_32
REMARK                            x       y       z     vdW  Elec       q    Type
REMARK                         _______ _______ _______ _____ _____    ______ ____
ROOT
ATOM      1  O   UNL     1      32.727 -21.485 -19.608  0.00  0.00    -0.454 OA
ATOM      2  C   UNL     1      34.868 -21.488 -18.886  0.00  0.00    +0.044 A 
ATOM      3  C   UNL     1      34.762 -20.604 -19.992  0.00  0.00    +0.072 A 
ATOM      4  C   UNL     1      33.590 -22.004 -18.690  0.00  0.00    +0.182 A 
ATOM      5  C   UNL     1      33.447 -20.639 -20.392  0.00  0.00    +0.126 A 
ATOM      6  C   UNL     1      33.262 -22.919 -17.692  0.00  0.00    +0.217 C 
ATOM      7  C   UNL     1      35.900 -21.908 -18.029  0.00  0.00    +0.007 C 
ATOM      8  C   UNL     1      34.304 -23.323 -16.851  0.00  0.00    +0.176 C 
ATOM      9  C   UNL     1      35.600 -22.829 -17.015  0.00  0.00    +0.040 C 
ATOM     10  C   UNL     1      32.696 -19.964 -21.462  0.00  0.00    +0.073 C 
ENDROOT
BRANCH   8  11
ATOM     11  O   UNL     1      34.061 -24.218 -15.850  0.00  0.00    -0.468 OA
ATOM     12  C   UNL     1      35.169 -24.598 -15.041  0.00  0.00    +0.253 C 
ENDBRANCH   8  11
BRANCH   3  14
ATOM     13  O   UNL     1      37.000 -20.099 -20.551  0.00  0.00    -0.286 OA
ATOM     14  C   UNL     1      35.789 -19.813 -20.604  0.00  0.00    +0.198 C 
BRANCH  14  15
ATOM     15  C   UNL     1      35.458 -18.560 -21.351  0.00  0.00    +0.045 C 
ATOM     16  C   UNL     1      35.466 -18.594 -22.725  0.00  0.00    +0.043 C 
ATOM     17  C   UNL     1      35.159 -17.427 -20.633  0.00  0.00    +0.043 C 
ATOM     18  C   UNL     1      34.851 -16.259 -21.329  0.00  0.00    +0.176 C 
ATOM     19  C   UNL     1      35.158 -17.425 -23.422  0.00  0.00    +0.176 C 
ATOM     20  C   UNL     1      34.850 -16.257 -22.724  0.00  0.00    +0.206 C 
BRANCH  18  21
ATOM     21  O   UNL     1      34.553 -15.125 -20.635  0.00  0.00    -0.468 OA
ATOM     22  C   UNL     1      33.185 -14.920 -20.287  0.00  0.00    +0.253 C 
ENDBRANCH  18  21
BRANCH  19  23
ATOM     23  O   UNL     1      35.162 -17.438 -24.784  0.00  0.00    -0.468 OA
ATOM     24  C   UNL     1      34.182 -18.251 -25.428  0.00  0.00    +0.253 C 
ENDBRANCH  19  23
BRANCH  20  25
ATOM     25  O   UNL     1      34.549 -15.116 -23.405  0.00  0.00    -0.465 OA
ATOM     26  C   UNL     1      33.202 -14.964 -23.849  0.00  0.00    +0.253 C 
ENDBRANCH  20  25
ENDBRANCH  14  15
ENDBRANCH   3  14
BRANCH   6  27
ATOM     27  O   UNL     1      31.994 -23.397 -17.538  0.00  0.00    -0.396 OA
BRANCH  27  28
ATOM     28  P   UNL     1      31.015 -23.056 -16.297  0.00  0.00    +0.528 P 
ATOM     29  O   UNL     1      31.673 -22.380 -15.128  0.00  0.00    -0.216 OA
BRANCH  28  30
ATOM     30  O   UNL     1      30.360 -24.496 -15.954  0.00  0.00    -0.293 OA
ATOM     31  H   UNL     1      29.868 -24.436 -15.119  0.00  0.00    +0.223 HD
ENDBRANCH  28  30
BRANCH  28  32
ATOM     32  O   UNL     1      29.786 -22.251 -16.971  0.00  0.00    -0.293 OA
ATOM     33  H   UNL     1      29.711 -22.499 -17.906  0.00  0.00    +0.223 HD
ENDBRANCH  28  32
ENDBRANCH  27  28
ENDBRANCH   6  27
TORSDOF 10
ENDMDL
MODEL 5
REMARK VINA RESULT:      -9.0      6.009     11.055
REMARK  Name = 16678087
REMARK  10 active torsions:
REMARK  status: ('A' for Active; 'I' for Inactive)
REMARK    1  A    between atoms: C_3  and  C_14
REMARK    2  A    between atoms: C_6  and  O_27
REMARK    3  A    between atoms: C_8  and  O_11
REMARK    4  A    between atoms: C_14  and  C_15
REMARK    5  A    between atoms: C_18  and  O_21
REMARK    6  A    between atoms: C_19  and  O_23
REMARK    7  A    between atoms: C_20  and  O_25
REMARK    8  A    between atoms: O_27  and  P_28
REMARK    9  A    between atoms: P_28  and  O_30
REMARK   10  A    between atoms: P_28  and  O_32
REMARK                            x       y       z     vdW  Elec       q    Type
REMARK                         _______ _______ _______ _____ _____    ______ ____
ROOT
ATOM      1  O   UNL     1      33.837 -10.191 -24.081  0.00  0.00    -0.454 OA
ATOM      2  C   UNL     1      32.704 -11.972 -23.277  0.00  0.00    +0.044 A 
ATOM      3  C   UNL     1      33.393 -12.366 -24.454  0.00  0.00    +0.072 A 
ATOM      4  C   UNL     1      33.010 -10.628 -23.090  0.00  0.00    +0.182 A 
ATOM      5  C   UNL     1      34.063 -11.251 -24.901  0.00  0.00    +0.126 A 
ATOM      6  C   UNL     1      32.527  -9.855 -22.035  0.00  0.00    +0.217 C 
ATOM      7  C   UNL     1      31.857 -12.603 -22.349  0.00  0.00    +0.007 C 
ATOM      8  C   UNL     1      31.687 -10.503 -21.124  0.00  0.00    +0.176 C 
ATOM      9  C   UNL     1      31.355 -11.852 -21.276  0.00  0.00    +0.040 C 
ATOM     10  C   UNL     1      34.944 -10.994 -26.051  0.00  0.00    +0.073 C 
ENDROOT
BRANCH   8  11
ATOM     11  O   UNL     1      31.173  -9.813 -20.064  0.00  0.00    -0.468 OA
ATOM     12  C   UNL     1      31.183 -10.470 -18.801  0.00  0.00    +0.253 C 
ENDBRANCH   8  11
BRANCH   3  14
ATOM     13  O   UNL     1      32.973 -13.863 -26.231  0.00  0.00    -0.286 OA
ATOM     14  C   UNL     1      33.417 -13.652 -25.087  0.00  0.00    +0.198 C 
BRANCH  14  15
ATOM     15  C   UNL     1      33.980 -14.847 -24.386  0.00  0.00    +0.045 C 
ATOM     16  C   UNL     1      34.269 -14.747 -23.047  0.00  0.00    +0.043 C 
ATOM     17  C   UNL     1      34.185 -15.997 -25.111  0.00  0.00    +0.043 C 
ATOM     18  C   UNL     1      34.711 -17.111 -24.458  0.00  0.00    +0.176 C 
ATOM     19  C   UNL     1      34.795 -15.861 -22.393  0.00  0.00    +0.176 C 
ATOM     20  C   UNL     1      35.016 -17.044 -23.099  0.00  0.00    +0.206 C 
BRANCH  18  21
ATOM     21  O   UNL     1      34.922 -18.260 -25.160  0.00  0.00    -0.468 OA
ATOM     22  C   UNL     1      33.806 -19.133 -25.322  0.00  0.00    +0.253 C 
ENDBRANCH  18  21
BRANCH  19  23
ATOM     23  O   UNL     1      35.090 -15.781 -21.065  0.00  0.00    -0.468 OA
ATOM     24  C   UNL     1      34.247 -14.955 -20.263  0.00  0.00    +0.253 C 
ENDBRANCH  19  23
BRANCH  20  25
ATOM     25  O   UNL     1      35.530 -18.133 -22.460  0.00  0.00    -0.465 OA
ATOM     26  C   UNL     1      34.603 -18.991 -21.798  0.00  0.00    +0.253 C 
ENDBRANCH  20  25
ENDBRANCH  14  15
ENDBRANCH   3  14
BRANCH   6  27
ATOM     27  O   UNL     1      32.854  -8.539 -21.894  0.00  0.00    -0.396 OA
BRANCH  27  28
ATOM     28  P   UNL     1      32.218  -7.325 -22.752  0.00  0.00    +0.528 P 
ATOM     29  O   UNL     1      30.848  -7.584 -23.311  0.00  0.00    -0.216 OA
BRANCH  28  30
ATOM     30  O   UNL     1      33.354  -7.047 -23.871  0.00  0.00    -0.293 OA
ATOM     31  H   UNL     1      33.837  -6.236 -23.645  0.00  0.00    +0.223 HD
ENDBRANCH  28  30
BRANCH  28  32
ATOM     32  O   UNL     1      32.347  -6.041 -21.778  0.00  0.00    -0.293 OA
ATOM     33  H   UNL     1      32.870  -5.353 -22.218  0.00  0.00    +0.223 HD
ENDBRANCH  28  32
ENDBRANCH  27  28
ENDBRANCH   6  27
TORSDOF 10
ENDMDL
MODEL 6
REMARK VINA RESULT:      -9.0      2.028      3.242
REMARK  Name = 16678087
REMARK  10 active torsions:
REMARK  status: ('A' for Active; 'I' for Inactive)
REMARK    1  A    between atoms: C_3  and  C_14
REMARK    2  A    between atoms: C_6  and  O_27
REMARK    3  A    between atoms: C_8  and  O_11
REMARK    4  A    between atoms: C_14  and  C_15
REMARK    5  A    between atoms: C_18  and  O_21
REMARK    6  A    between atoms: C_19  and  O_23
REMARK    7  A    between atoms: C_20  and  O_25
REMARK    8  A    between atoms: O_27  and  P_28
REMARK    9  A    between atoms: P_28  and  O_30
REMARK   10  A    between atoms: P_28  and  O_32
REMARK                            x       y       z     vdW  Elec       q    Type
REMARK                         _______ _______ _______ _____ _____    ______ ____
ROOT
ATOM      1  O   UNL     1      32.868 -21.482 -19.584  0.00  0.00    -0.454 OA
ATOM      2  C   UNL     1      35.016 -21.436 -18.884  0.00  0.00    +0.044 A 
ATOM      3  C   UNL     1      34.877 -20.550 -19.984  0.00  0.00    +0.072 A 
ATOM      4  C   UNL     1      33.753 -21.984 -18.677  0.00  0.00    +0.182 A 
ATOM      5  C   UNL     1      33.558 -20.615 -20.370  0.00  0.00    +0.126 A 
ATOM      6  C   UNL     1      33.457 -22.912 -17.681  0.00  0.00    +0.217 C 
ATOM      7  C   UNL     1      36.067 -21.836 -18.040  0.00  0.00    +0.007 C 
ATOM      8  C   UNL     1      34.517 -23.294 -16.853  0.00  0.00    +0.176 C 
ATOM      9  C   UNL     1      35.800 -22.768 -17.028  0.00  0.00    +0.040 C 
ATOM     10  C   UNL     1      32.781 -19.952 -21.429  0.00  0.00    +0.073 C 
ENDROOT
BRANCH   8  11
ATOM     11  O   UNL     1      34.307 -24.200 -15.854  0.00  0.00    -0.468 OA
ATOM     12  C   UNL     1      35.388 -24.434 -14.957  0.00  0.00    +0.253 C 
ENDBRANCH   8  11
BRANCH   3  14
ATOM     13  O   UNL     1      37.096 -19.988 -20.565  0.00  0.00    -0.286 OA
ATOM     14  C   UNL     1      35.878 -19.731 -20.603  0.00  0.00    +0.198 C 
BRANCH  14  15
ATOM     15  C   UNL     1      35.508 -18.482 -21.338  0.00  0.00    +0.045 C 
ATOM     16  C   UNL     1      35.168 -17.368 -20.609  0.00  0.00    +0.043 C 
ATOM     17  C   UNL     1      35.524 -18.500 -22.712  0.00  0.00    +0.043 C 
ATOM     18  C   UNL     1      35.178 -17.336 -23.397  0.00  0.00    +0.176 C 
ATOM     19  C   UNL     1      34.822 -16.203 -21.295  0.00  0.00    +0.176 C 
ATOM     20  C   UNL     1      34.827 -16.187 -22.689  0.00  0.00    +0.206 C 
BRANCH  18  21
ATOM     21  O   UNL     1      35.187 -17.334 -24.761  0.00  0.00    -0.468 OA
ATOM     22  C   UNL     1      34.220 -18.153 -25.415  0.00  0.00    +0.253 C 
ENDBRANCH  18  21
BRANCH  19  23
ATOM     23  O   UNL     1      34.480 -15.088 -20.589  0.00  0.00    -0.468 OA
ATOM     24  C   UNL     1      33.102 -14.932 -20.254  0.00  0.00    +0.253 C 
ENDBRANCH  19  23
BRANCH  20  25
ATOM     25  O   UNL     1      34.489 -15.049 -23.359  0.00  0.00    -0.465 OA
ATOM     26  C   UNL     1      33.136 -14.931 -23.793  0.00  0.00    +0.253 C 
ENDBRANCH  20  25
ENDBRANCH  14  15
ENDBRANCH   3  14
BRANCH   6  27
ATOM     27  O   UNL     1      32.203 -23.421 -17.516  0.00  0.00    -0.396 OA
BRANCH  27  28
ATOM     28  P   UNL     1      31.203 -23.056 -16.299  0.00  0.00    +0.528 P 
ATOM     29  O   UNL     1      31.846 -22.384 -15.120  0.00  0.00    -0.216 OA
BRANCH  28  30
ATOM     30  O   UNL     1      30.517 -24.483 -15.961  0.00  0.00    -0.293 OA
ATOM     31  H   UNL     1      29.557 -24.368 -15.881  0.00  0.00    +0.223 HD
ENDBRANCH  28  30
BRANCH  28  32
ATOM     32  O   UNL     1      30.002 -22.235 -17.005  0.00  0.00    -0.293 OA
ATOM     33  H   UNL     1      30.081 -21.294 -16.785  0.00  0.00    +0.223 HD
ENDBRANCH  28  32
ENDBRANCH  27  28
ENDBRANCH   6  27
TORSDOF 10
ENDMDL
MODEL 7
REMARK VINA RESULT:      -8.9      9.050     12.917
REMARK  Name = 16678087
REMARK  10 active torsions:
REMARK  status: ('A' for Active; 'I' for Inactive)
REMARK    1  A    between atoms: C_3  and  C_14
REMARK    2  A    between atoms: C_6  and  O_27
REMARK    3  A    between atoms: C_8  and  O_11
REMARK    4  A    between atoms: C_14  and  C_15
REMARK    5  A    between atoms: C_18  and  O_21
REMARK    6  A    between atoms: C_19  and  O_23
REMARK    7  A    between atoms: C_20  and  O_25
REMARK    8  A    between atoms: O_27  and  P_28
REMARK    9  A    between atoms: P_28  and  O_30
REMARK   10  A    between atoms: P_28  and  O_32
REMARK                            x       y       z     vdW  Elec       q    Type
REMARK                         _______ _______ _______ _____ _____    ______ ____
ROOT
ATOM      1  O   UNL     1      32.408 -10.619 -22.083  0.00  0.00    -0.454 OA
ATOM      2  C   UNL     1      33.709 -10.225 -23.888  0.00  0.00    +0.044 A 
ATOM      3  C   UNL     1      33.580  -9.020 -23.148  0.00  0.00    +0.072 A 
ATOM      4  C   UNL     1      32.971 -11.177 -23.192  0.00  0.00    +0.182 A 
ATOM      5  C   UNL     1      32.783  -9.313 -22.066  0.00  0.00    +0.126 A 
ATOM      6  C   UNL     1      32.838 -12.506 -23.589  0.00  0.00    +0.217 C 
ATOM      7  C   UNL     1      34.368 -10.616 -25.067  0.00  0.00    +0.007 C 
ATOM      8  C   UNL     1      33.502 -12.873 -24.764  0.00  0.00    +0.176 C 
ATOM      9  C   UNL     1      34.253 -11.947 -25.492  0.00  0.00    +0.040 C 
ATOM     10  C   UNL     1      32.278  -8.516 -20.937  0.00  0.00    +0.073 C 
ENDROOT
BRANCH   8  11
ATOM     11  O   UNL     1      33.418 -14.158 -25.218  0.00  0.00    -0.468 OA
ATOM     12  C   UNL     1      33.102 -14.336 -26.596  0.00  0.00    +0.253 C 
ENDBRANCH   8  11
BRANCH   3  14
ATOM     13  O   UNL     1      35.336  -7.441 -23.201  0.00  0.00    -0.286 OA
ATOM     14  C   UNL     1      34.147  -7.733 -23.431  0.00  0.00    +0.198 C 
BRANCH  14  15
ATOM     15  C   UNL     1      33.319  -6.637 -24.021  0.00  0.00    +0.045 C 
ATOM     16  C   UNL     1      32.280  -6.128 -23.279  0.00  0.00    +0.043 C 
ATOM     17  C   UNL     1      33.630  -6.185 -25.281  0.00  0.00    +0.043 C 
ATOM     18  C   UNL     1      32.856  -5.164 -25.832  0.00  0.00    +0.176 C 
ATOM     19  C   UNL     1      31.507  -5.106 -23.830  0.00  0.00    +0.176 C 
ATOM     20  C   UNL     1      31.795  -4.624 -25.107  0.00  0.00    +0.206 C 
BRANCH  18  21
ATOM     21  O   UNL     1      33.149  -4.702 -27.080  0.00  0.00    -0.468 OA
ATOM     22  C   UNL     1      34.514  -4.388 -27.351  0.00  0.00    +0.253 C 
ENDBRANCH  18  21
BRANCH  19  23
ATOM     23  O   UNL     1      30.471  -4.589 -23.111  0.00  0.00    -0.468 OA
ATOM     24  C   UNL     1      30.278  -5.100 -21.793  0.00  0.00    +0.253 C 
ENDBRANCH  19  23
BRANCH  20  25
ATOM     25  O   UNL     1      31.039  -3.625 -25.645  0.00  0.00    -0.465 OA
ATOM     26  C   UNL     1      31.491  -2.289 -25.437  0.00  0.00    +0.253 C 
ENDBRANCH  20  25
ENDBRANCH  14  15
ENDBRANCH   3  14
BRANCH   6  27
ATOM     27  O   UNL     1      32.102 -13.405 -22.874  0.00  0.00    -0.396 OA
BRANCH  27  28
ATOM     28  P   UNL     1      32.626 -14.210 -21.572  0.00  0.00    +0.528 P 
ATOM     29  O   UNL     1      31.999 -15.557 -21.356  0.00  0.00    -0.216 OA
BRANCH  28  30
ATOM     30  O   UNL     1      32.370 -13.153 -20.374  0.00  0.00    -0.293 OA
ATOM     31  H   UNL     1      33.222 -12.840 -20.032  0.00  0.00    +0.223 HD
ENDBRANCH  28  30
BRANCH  28  32
ATOM     32  O   UNL     1      34.236 -14.202 -21.723  0.00  0.00    -0.293 OA
ATOM     33  H   UNL     1      34.472 -14.156 -22.663  0.00  0.00    +0.223 HD
ENDBRANCH  28  32
ENDBRANCH  27  28
ENDBRANCH   6  27
TORSDOF 10
ENDMDL
MODEL 8
REMARK VINA RESULT:      -8.9      9.043     13.058
REMARK  Name = 16678087
REMARK  10 active torsions:
REMARK  status: ('A' for Active; 'I' for Inactive)
REMARK    1  A    between atoms: C_3  and  C_14
REMARK    2  A    between atoms: C_6  and  O_27
REMARK    3  A    between atoms: C_8  and  O_11
REMARK    4  A    between atoms: C_14  and  C_15
REMARK    5  A    between atoms: C_18  and  O_21
REMARK    6  A    between atoms: C_19  and  O_23
REMARK    7  A    between atoms: C_20  and  O_25
REMARK    8  A    between atoms: O_27  and  P_28
REMARK    9  A    between atoms: P_28  and  O_30
REMARK   10  A    between atoms: P_28  and  O_32
REMARK                            x       y       z     vdW  Elec       q    Type
REMARK                         _______ _______ _______ _____ _____    ______ ____
ROOT
ATOM      1  O   UNL     1      32.408 -10.630 -22.088  0.00  0.00    -0.454 OA
ATOM      2  C   UNL     1      33.710 -10.229 -23.890  0.00  0.00    +0.044 A 
ATOM      3  C   UNL     1      33.574  -9.025 -23.150  0.00  0.00    +0.072 A 
ATOM      4  C   UNL     1      32.975 -11.185 -23.195  0.00  0.00    +0.182 A 
ATOM      5  C   UNL     1      32.777  -9.322 -22.070  0.00  0.00    +0.126 A 
ATOM      6  C   UNL     1      32.849 -12.515 -23.593  0.00  0.00    +0.217 C 
ATOM      7  C   UNL     1      34.372 -10.617 -25.068  0.00  0.00    +0.007 C 
ATOM      8  C   UNL     1      33.517 -12.879 -24.766  0.00  0.00    +0.176 C 
ATOM      9  C   UNL     1      34.265 -11.949 -25.493  0.00  0.00    +0.040 C 
ATOM     10  C   UNL     1      32.266  -8.528 -20.942  0.00  0.00    +0.073 C 
ENDROOT
BRANCH   8  11
ATOM     11  O   UNL     1      33.440 -14.164 -25.221  0.00  0.00    -0.468 OA
ATOM     12  C   UNL     1      33.092 -14.344 -26.590  0.00  0.00    +0.253 C 
ENDBRANCH   8  11
BRANCH   3  14
ATOM     13  O   UNL     1      35.324  -7.441 -23.210  0.00  0.00    -0.286 OA
ATOM     14  C   UNL     1      34.135  -7.736 -23.432  0.00  0.00    +0.198 C 
BRANCH  14  15
ATOM     15  C   UNL     1      33.299  -6.640 -24.013  0.00  0.00    +0.045 C 
ATOM     16  C   UNL     1      33.598  -6.186 -25.275  0.00  0.00    +0.043 C 
ATOM     17  C   UNL     1      32.268  -6.132 -23.260  0.00  0.00    +0.043 C 
ATOM     18  C   UNL     1      31.490  -5.109 -23.801  0.00  0.00    +0.176 C 
ATOM     19  C   UNL     1      32.819  -5.163 -25.817  0.00  0.00    +0.176 C 
ATOM     20  C   UNL     1      31.765  -4.624 -25.079  0.00  0.00    +0.206 C 
BRANCH  18  21
ATOM     21  O   UNL     1      30.463  -4.591 -23.070  0.00  0.00    -0.468 OA
ATOM     22  C   UNL     1      30.278  -5.112 -21.755  0.00  0.00    +0.253 C 
ENDBRANCH  18  21
BRANCH  19  23
ATOM     23  O   UNL     1      33.100  -4.698 -27.067  0.00  0.00    -0.468 OA
ATOM     24  C   UNL     1      34.469  -4.426 -27.363  0.00  0.00    +0.253 C 
ENDBRANCH  19  23
BRANCH  20  25
ATOM     25  O   UNL     1      31.003  -3.625 -25.609  0.00  0.00    -0.465 OA
ATOM     26  C   UNL     1      31.492  -2.293 -25.462  0.00  0.00    +0.253 C 
ENDBRANCH  20  25
ENDBRANCH  14  15
ENDBRANCH   3  14
BRANCH   6  27
ATOM     27  O   UNL     1      32.117 -13.417 -22.879  0.00  0.00    -0.396 OA
BRANCH  27  28
ATOM     28  P   UNL     1      32.646 -14.224 -21.580  0.00  0.00    +0.528 P 
ATOM     29  O   UNL     1      32.006 -15.564 -21.354  0.00  0.00    -0.216 OA
BRANCH  28  30
ATOM     30  O   UNL     1      32.412 -13.162 -20.382  0.00  0.00    -0.293 OA
ATOM     31  H   UNL     1      33.030 -12.420 -20.484  0.00  0.00    +0.223 HD
ENDBRANCH  28  30
BRANCH  28  32
ATOM     32  O   UNL     1      34.254 -14.234 -21.747  0.00  0.00    -0.293 OA
ATOM     33  H   UNL     1      34.526 -13.485 -22.299  0.00  0.00    +0.223 HD
ENDBRANCH  28  32
ENDBRANCH  27  28
ENDBRANCH   6  27
TORSDOF 10
ENDMDL
MODEL 9
REMARK VINA RESULT:      -8.1      5.909     11.953
REMARK  Name = 16678087
REMARK  10 active torsions:
REMARK  status: ('A' for Active; 'I' for Inactive)
REMARK    1  A    between atoms: C_3  and  C_14
REMARK    2  A    between atoms: C_6  and  O_27
REMARK    3  A    between atoms: C_8  and  O_11
REMARK    4  A    between atoms: C_14  and  C_15
REMARK    5  A    between atoms: C_18  and  O_21
REMARK    6  A    between atoms: C_19  and  O_23
REMARK    7  A    between atoms: C_20  and  O_25
REMARK    8  A    between atoms: O_27  and  P_28
REMARK    9  A    between atoms: P_28  and  O_30
REMARK   10  A    between atoms: P_28  and  O_32
REMARK                            x       y       z     vdW  Elec       q    Type
REMARK                         _______ _______ _______ _____ _____    ______ ____
ROOT
ATOM      1  O   UNL     1      32.572 -10.912 -22.463  0.00  0.00    -0.454 OA
ATOM      2  C   UNL     1      33.864 -11.119 -24.305  0.00  0.00    +0.044 A 
ATOM      3  C   UNL     1      33.275 -12.379 -24.018  0.00  0.00    +0.072 A 
ATOM      4  C   UNL     1      33.400 -10.252 -23.321  0.00  0.00    +0.182 A 
ATOM      5  C   UNL     1      32.503 -12.199 -22.894  0.00  0.00    +0.126 A 
ATOM      6  C   UNL     1      33.746  -8.904 -23.240  0.00  0.00    +0.217 C 
ATOM      7  C   UNL     1      34.736 -10.616 -25.286  0.00  0.00    +0.007 C 
ATOM      8  C   UNL     1      34.613  -8.425 -24.227  0.00  0.00    +0.176 C 
ATOM      9  C   UNL     1      35.102  -9.264 -25.232  0.00  0.00    +0.040 C 
ATOM     10  C   UNL     1      31.649 -13.096 -22.100  0.00  0.00    +0.073 C 
ENDROOT
BRANCH   8  11
ATOM     11  O   UNL     1      35.000  -7.116 -24.215  0.00  0.00    -0.468 OA
ATOM     12  C   UNL     1      34.634  -6.325 -25.342  0.00  0.00    +0.253 C 
ENDBRANCH   8  11
BRANCH   3  14
ATOM     13  O   UNL     1      33.081 -13.774 -25.914  0.00  0.00    -0.286 OA
ATOM     14  C   UNL     1      33.424 -13.616 -24.727  0.00  0.00    +0.198 C 
BRANCH  14  15
ATOM     15  C   UNL     1      34.004 -14.823 -24.061  0.00  0.00    +0.045 C 
ATOM     16  C   UNL     1      34.271 -14.764 -22.714  0.00  0.00    +0.043 C 
ATOM     17  C   UNL     1      34.246 -15.941 -24.822  0.00  0.00    +0.043 C 
ATOM     18  C   UNL     1      34.788 -17.065 -24.201  0.00  0.00    +0.176 C 
ATOM     19  C   UNL     1      34.812 -15.889 -22.092  0.00  0.00    +0.176 C 
ATOM     20  C   UNL     1      35.071 -17.040 -22.836  0.00  0.00    +0.206 C 
BRANCH  18  21
ATOM     21  O   UNL     1      35.036 -18.184 -24.940  0.00  0.00    -0.468 OA
ATOM     22  C   UNL     1      33.922 -19.023 -25.238  0.00  0.00    +0.253 C 
ENDBRANCH  18  21
BRANCH  19  23
ATOM     23  O   UNL     1      35.085 -15.850 -20.757  0.00  0.00    -0.468 OA
ATOM     24  C   UNL     1      34.215 -15.069 -19.941  0.00  0.00    +0.253 C 
ENDBRANCH  19  23
BRANCH  20  25
ATOM     25  O   UNL     1      35.600 -18.140 -22.228  0.00  0.00    -0.465 OA
ATOM     26  C   UNL     1      34.685 -19.036 -21.602  0.00  0.00    +0.253 C 
ENDBRANCH  20  25
ENDBRANCH  14  15
ENDBRANCH   3  14
BRANCH   6  27
ATOM     27  O   UNL     1      33.266  -8.092 -22.256  0.00  0.00    -0.396 OA
BRANCH  27  28
ATOM     28  P   UNL     1      31.893  -7.239 -22.340  0.00  0.00    +0.528 P 
ATOM     29  O   UNL     1      30.769  -7.906 -23.079  0.00  0.00    -0.216 OA
BRANCH  28  30
ATOM     30  O   UNL     1      32.383  -5.840 -22.989  0.00  0.00    -0.293 OA
ATOM     31  H   UNL     1      33.351  -5.834 -23.050  0.00  0.00    +0.223 HD
ENDBRANCH  28  30
BRANCH  28  32
ATOM     32  O   UNL     1      31.582  -6.838 -20.805  0.00  0.00    -0.293 OA
ATOM     33  H   UNL     1      30.739  -6.360 -20.760  0.00  0.00    +0.223 HD
ENDBRANCH  28  32
ENDBRANCH  27  28
ENDBRANCH   6  27
TORSDOF 10
ENDMDL
