MODEL 1
REMARK VINA RESULT:      -9.0      0.000      0.000
REMARK  Name = 12894
REMARK  3 active torsions:
REMARK  status: ('A' for Active; 'I' for Inactive)
REMARK    1  A    between atoms: S_1  and  N_5
REMARK    2  A    between atoms: S_1  and  C_13
REMARK    3  A    between atoms: C_18  and  N_19
REMARK                            x       y       z     vdW  Elec       q    Type
REMARK                         _______ _______ _______ _____ _____    ______ ____
ROOT
ATOM      1  S   UNL     1      35.365 -17.783 -21.772  0.00  0.00    +0.078 S 
ATOM      2  O   UNL     1      36.627 -18.319 -22.267  0.00  0.00    -0.150 OA
ATOM      3  O   UNL     1      35.347 -17.016 -20.534  0.00  0.00    -0.150 OA
ENDROOT
BRANCH   1   5
ATOM      4  O   UNL     1      35.692 -20.245 -20.088  0.00  0.00    -0.437 OA
ATOM      5  N   UNL     1      34.219 -19.062 -21.681  0.00  0.00    -0.158 N 
ATOM      6  N   UNL     1      33.518 -20.857 -20.206  0.00  0.00    -0.359 NA
ATOM      7  C   UNL     1      34.470 -20.080 -20.637  0.00  0.00    +0.359 C 
ATOM      8  C   UNL     1      35.487 -21.254 -19.197  0.00  0.00    +0.217 C 
ATOM      9  C   UNL     1      34.167 -21.623 -19.272  0.00  0.00    +0.132 C 
ATOM     10  C   UNL     1      36.644 -21.696 -18.412  0.00  0.00    +0.055 C 
ATOM     11  C   UNL     1      33.453 -22.663 -18.518  0.00  0.00    +0.065 C 
ATOM     12  H   UNL     1      33.445 -19.114 -22.287  0.00  0.00    +0.179 HD
ENDBRANCH   1   5
BRANCH   1  13
ATOM     13  C   UNL     1      34.660 -16.788 -23.023  0.00  0.00    +0.125 C 
ATOM     14  C   UNL     1      34.081 -15.563 -22.695  0.00  0.00    +0.021 C 
ATOM     15  C   UNL     1      34.678 -17.218 -24.349  0.00  0.00    +0.021 C 
ATOM     16  C   UNL     1      33.517 -14.768 -23.693  0.00  0.00    +0.015 C 
ATOM     17  C   UNL     1      34.115 -16.424 -25.348  0.00  0.00    +0.015 C 
ATOM     18  C   UNL     1      33.535 -15.198 -25.020  0.00  0.00    +0.042 C 
BRANCH  18  19
ATOM     19  N   UNL     1      32.966 -14.394 -26.030  0.00  0.00    -0.357 N 
ATOM     20  H   UNL     1      32.836 -14.759 -26.935  0.00  0.00    +0.142 HD
ATOM     21  H   UNL     1      32.700 -13.468 -25.829  0.00  0.00    +0.142 HD
ENDBRANCH  18  19
ENDBRANCH   1  13
TORSDOF 3
ENDMDL
MODEL 2
REMARK VINA RESULT:      -8.9      2.108      6.714
REMARK  Name = 12894
REMARK  3 active torsions:
REMARK  status: ('A' for Active; 'I' for Inactive)
REMARK    1  A    between atoms: S_1  and  N_5
REMARK    2  A    between atoms: S_1  and  C_13
REMARK    3  A    between atoms: C_18  and  N_19
REMARK                            x       y       z     vdW  Elec       q    Type
REMARK                         _______ _______ _______ _____ _____    ______ ____
ROOT
ATOM      1  S   UNL     1      35.608 -18.553 -21.710  0.00  0.00    +0.078 S 
ATOM      2  O   UNL     1      37.062 -18.649 -21.724  0.00  0.00    -0.150 OA
ATOM      3  O   UNL     1      34.878 -18.528 -22.971  0.00  0.00    -0.150 OA
ENDROOT
BRANCH   1   5
ATOM      4  O   UNL     1      34.432 -16.011 -22.789  0.00  0.00    -0.437 OA
ATOM      5  N   UNL     1      35.153 -17.202 -20.748  0.00  0.00    -0.158 N 
ATOM      6  N   UNL     1      33.678 -15.275 -20.789  0.00  0.00    -0.359 NA
ATOM      7  C   UNL     1      34.401 -16.136 -21.446  0.00  0.00    +0.359 C 
ATOM      8  C   UNL     1      33.627 -14.935 -23.010  0.00  0.00    +0.217 C 
ATOM      9  C   UNL     1      33.172 -14.492 -21.794  0.00  0.00    +0.132 C 
ATOM     10  C   UNL     1      33.441 -14.516 -24.403  0.00  0.00    +0.055 C 
ATOM     11  C   UNL     1      32.279 -13.363 -21.496  0.00  0.00    +0.065 C 
ATOM     12  H   UNL     1      35.379 -17.142 -19.791  0.00  0.00    +0.179 HD
ENDBRANCH   1   5
BRANCH   1  13
ATOM     13  C   UNL     1      34.976 -19.873 -20.757  0.00  0.00    +0.125 C 
ATOM     14  C   UNL     1      35.849 -20.775 -20.151  0.00  0.00    +0.021 C 
ATOM     15  C   UNL     1      33.598 -20.023 -20.601  0.00  0.00    +0.021 C 
ATOM     16  C   UNL     1      35.345 -21.830 -19.389  0.00  0.00    +0.015 C 
ATOM     17  C   UNL     1      33.094 -21.077 -19.840  0.00  0.00    +0.015 C 
ATOM     18  C   UNL     1      33.967 -21.981 -19.233  0.00  0.00    +0.042 C 
BRANCH  18  19
ATOM     19  N   UNL     1      33.457 -23.046 -18.462  0.00  0.00    -0.357 N 
ATOM     20  H   UNL     1      33.997 -23.430 -17.735  0.00  0.00    +0.142 HD
ATOM     21  H   UNL     1      32.561 -23.406 -18.653  0.00  0.00    +0.142 HD
ENDBRANCH  18  19
ENDBRANCH   1  13
TORSDOF 3
ENDMDL
MODEL 3
REMARK VINA RESULT:      -8.8      1.442      6.836
REMARK  Name = 12894
REMARK  3 active torsions:
REMARK  status: ('A' for Active; 'I' for Inactive)
REMARK    1  A    between atoms: S_1  and  N_5
REMARK    2  A    between atoms: S_1  and  C_13
REMARK    3  A    between atoms: C_18  and  N_19
REMARK                            x       y       z     vdW  Elec       q    Type
REMARK                         _______ _______ _______ _____ _____    ______ ____
ROOT
ATOM      1  S   UNL     1      35.738 -18.401 -21.510  0.00  0.00    +0.078 S 
ATOM      2  O   UNL     1      35.360 -17.204 -20.770  0.00  0.00    -0.150 OA
ATOM      3  O   UNL     1      37.145 -18.664 -21.781  0.00  0.00    -0.150 OA
ENDROOT
BRANCH   1   5
ATOM      4  O   UNL     1      34.413 -16.021 -22.772  0.00  0.00    -0.437 OA
ATOM      5  N   UNL     1      34.846 -18.445 -22.980  0.00  0.00    -0.158 N 
ATOM      6  N   UNL     1      34.133 -16.996 -24.793  0.00  0.00    -0.359 NA
ATOM      7  C   UNL     1      34.454 -17.132 -23.538  0.00  0.00    +0.359 C 
ATOM      8  C   UNL     1      34.017 -15.062 -23.653  0.00  0.00    +0.217 C 
ATOM      9  C   UNL     1      33.848 -15.658 -24.878  0.00  0.00    +0.132 C 
ATOM     10  C   UNL     1      33.865 -13.699 -23.134  0.00  0.00    +0.055 C 
ATOM     11  C   UNL     1      33.428 -15.054 -26.151  0.00  0.00    +0.065 C 
ATOM     12  H   UNL     1      34.610 -19.292 -23.423  0.00  0.00    +0.179 HD
ENDBRANCH   1   5
BRANCH   1  13
ATOM     13  C   UNL     1      35.087 -19.793 -20.680  0.00  0.00    +0.125 C 
ATOM     14  C   UNL     1      35.949 -20.739 -20.126  0.00  0.00    +0.021 C 
ATOM     15  C   UNL     1      33.707 -19.957 -20.570  0.00  0.00    +0.021 C 
ATOM     16  C   UNL     1      35.430 -21.851 -19.462  0.00  0.00    +0.015 C 
ATOM     17  C   UNL     1      33.187 -21.069 -19.907  0.00  0.00    +0.015 C 
ATOM     18  C   UNL     1      34.049 -22.016 -19.352  0.00  0.00    +0.042 C 
BRANCH  18  19
ATOM     19  N   UNL     1      33.524 -23.139 -18.680  0.00  0.00    -0.357 N 
ATOM     20  H   UNL     1      34.071 -23.614 -18.014  0.00  0.00    +0.142 HD
ATOM     21  H   UNL     1      32.611 -23.449 -18.880  0.00  0.00    +0.142 HD
ENDBRANCH  18  19
ENDBRANCH   1  13
TORSDOF 3
ENDMDL
MODEL 4
REMARK VINA RESULT:      -8.7      4.314      6.151
REMARK  Name = 12894
REMARK  3 active torsions:
REMARK  status: ('A' for Active; 'I' for Inactive)
REMARK    1  A    between atoms: S_1  and  N_5
REMARK    2  A    between atoms: S_1  and  C_13
REMARK    3  A    between atoms: C_18  and  N_19
REMARK                            x       y       z     vdW  Elec       q    Type
REMARK                         _______ _______ _______ _____ _____    ______ ____
ROOT
ATOM      1  S   UNL     1      33.641 -22.734 -18.506  0.00  0.00    +0.078 S 
ATOM      2  O   UNL     1      32.299 -22.491 -17.992  0.00  0.00    -0.150 OA
ATOM      3  O   UNL     1      33.924 -23.975 -19.215  0.00  0.00    -0.150 OA
ENDROOT
BRANCH   1   5
ATOM      4  O   UNL     1      33.183 -23.622 -15.675  0.00  0.00    -0.437 OA
ATOM      5  N   UNL     1      34.768 -22.528 -17.223  0.00  0.00    -0.158 N 
ATOM      6  N   UNL     1      35.355 -23.470 -15.064  0.00  0.00    -0.359 NA
ATOM      7  C   UNL     1      34.440 -23.220 -15.957  0.00  0.00    +0.359 C 
ATOM      8  C   UNL     1      33.319 -24.198 -14.449  0.00  0.00    +0.217 C 
ATOM      9  C   UNL     1      34.638 -24.103 -14.082  0.00  0.00    +0.132 C 
ATOM     10  C   UNL     1      32.109 -24.751 -13.833  0.00  0.00    +0.055 C 
ATOM     11  C   UNL     1      35.292 -24.572 -12.852  0.00  0.00    +0.065 C 
ATOM     12  H   UNL     1      35.581 -21.982 -17.325  0.00  0.00    +0.179 HD
ENDBRANCH   1   5
BRANCH   1  13
ATOM     13  C   UNL     1      34.080 -21.410 -19.556  0.00  0.00    +0.125 C 
ATOM     14  C   UNL     1      33.088 -20.605 -20.115  0.00  0.00    +0.021 C 
ATOM     15  C   UNL     1      35.423 -21.155 -19.833  0.00  0.00    +0.021 C 
ATOM     16  C   UNL     1      33.437 -19.547 -20.954  0.00  0.00    +0.015 C 
ATOM     17  C   UNL     1      35.773 -20.097 -20.672  0.00  0.00    +0.015 C 
ATOM     18  C   UNL     1      34.781 -19.293 -21.232  0.00  0.00    +0.042 C 
BRANCH  18  19
ATOM     19  N   UNL     1      35.135 -18.222 -22.079  0.00  0.00    -0.357 N 
ATOM     20  H   UNL     1      34.478 -17.519 -22.284  0.00  0.00    +0.142 HD
ATOM     21  H   UNL     1      36.039 -18.179 -22.465  0.00  0.00    +0.142 HD
ENDBRANCH  18  19
ENDBRANCH   1  13
TORSDOF 3
ENDMDL
MODEL 5
REMARK VINA RESULT:      -8.6      1.578      1.980
REMARK  Name = 12894
REMARK  3 active torsions:
REMARK  status: ('A' for Active; 'I' for Inactive)
REMARK    1  A    between atoms: S_1  and  N_5
REMARK    2  A    between atoms: S_1  and  C_13
REMARK    3  A    between atoms: C_18  and  N_19
REMARK                            x       y       z     vdW  Elec       q    Type
REMARK                         _______ _______ _______ _____ _____    ______ ____
ROOT
ATOM      1  S   UNL     1      34.958 -17.270 -21.636  0.00  0.00    +0.078 S 
ATOM      2  O   UNL     1      35.715 -17.469 -22.865  0.00  0.00    -0.150 OA
ATOM      3  O   UNL     1      35.667 -17.142 -20.369  0.00  0.00    -0.150 OA
ENDROOT
BRANCH   1   5
ATOM      4  O   UNL     1      35.413 -19.952 -20.368  0.00  0.00    -0.437 OA
ATOM      5  N   UNL     1      33.769 -18.506 -21.514  0.00  0.00    -0.158 N 
ATOM      6  N   UNL     1      33.217 -20.461 -20.184  0.00  0.00    -0.359 NA
ATOM      7  C   UNL     1      34.128 -19.668 -20.670  0.00  0.00    +0.359 C 
ATOM      8  C   UNL     1      35.300 -21.067 -19.594  0.00  0.00    +0.217 C 
ATOM      9  C   UNL     1      33.966 -21.372 -19.485  0.00  0.00    +0.132 C 
ATOM     10  C   UNL     1      36.543 -21.656 -19.085  0.00  0.00    +0.055 C 
ATOM     11  C   UNL     1      33.326 -22.479 -18.760  0.00  0.00    +0.065 C 
ATOM     12  H   UNL     1      32.902 -18.445 -21.977  0.00  0.00    +0.179 HD
ENDBRANCH   1   5
BRANCH   1  13
ATOM     13  C   UNL     1      33.954 -15.855 -21.828  0.00  0.00    +0.125 C 
ATOM     14  C   UNL     1      33.322 -15.292 -20.719  0.00  0.00    +0.021 C 
ATOM     15  C   UNL     1      33.784 -15.286 -23.090  0.00  0.00    +0.021 C 
ATOM     16  C   UNL     1      32.520 -14.162 -20.871  0.00  0.00    +0.015 C 
ATOM     17  C   UNL     1      32.982 -14.155 -23.243  0.00  0.00    +0.015 C 
ATOM     18  C   UNL     1      32.350 -13.593 -22.134  0.00  0.00    +0.042 C 
BRANCH  18  19
ATOM     19  N   UNL     1      31.540 -12.449 -22.289  0.00  0.00    -0.357 N 
ATOM     20  H   UNL     1      31.911 -11.634 -22.697  0.00  0.00    +0.142 HD
ATOM     21  H   UNL     1      30.603 -12.466 -21.986  0.00  0.00    +0.142 HD
ENDBRANCH  18  19
ENDBRANCH   1  13
TORSDOF 3
ENDMDL
MODEL 6
REMARK VINA RESULT:      -8.5      3.828      5.418
REMARK  Name = 12894
REMARK  3 active torsions:
REMARK  status: ('A' for Active; 'I' for Inactive)
REMARK    1  A    between atoms: S_1  and  N_5
REMARK    2  A    between atoms: S_1  and  C_13
REMARK    3  A    between atoms: C_18  and  N_19
REMARK                            x       y       z     vdW  Elec       q    Type
REMARK                         _______ _______ _______ _____ _____    ______ ____
ROOT
ATOM      1  S   UNL     1      34.294 -22.503 -19.030  0.00  0.00    +0.078 S 
ATOM      2  O   UNL     1      34.557 -23.623 -19.924  0.00  0.00    -0.150 OA
ATOM      3  O   UNL     1      35.064 -22.370 -17.801  0.00  0.00    -0.150 OA
ENDROOT
BRANCH   1   5
ATOM      4  O   UNL     1      33.069 -23.579 -16.510  0.00  0.00    -0.437 OA
ATOM      5  N   UNL     1      32.613 -22.468 -18.669  0.00  0.00    -0.158 N 
ATOM      6  N   UNL     1      31.094 -22.512 -16.776  0.00  0.00    -0.359 NA
ATOM      7  C   UNL     1      32.240 -22.856 -17.291  0.00  0.00    +0.359 C 
ATOM      8  C   UNL     1      32.358 -23.710 -15.356  0.00  0.00    +0.217 C 
ATOM      9  C   UNL     1      31.161 -23.061 -15.522  0.00  0.00    +0.132 C 
ATOM     10  C   UNL     1      32.986 -24.467 -14.267  0.00  0.00    +0.055 C 
ATOM     11  C   UNL     1      30.048 -22.915 -14.572  0.00  0.00    +0.065 C 
ATOM     12  H   UNL     1      31.940 -22.206 -19.338  0.00  0.00    +0.179 HD
ENDBRANCH   1   5
BRANCH   1  13
ATOM     13  C   UNL     1      34.475 -21.020 -19.933  0.00  0.00    +0.125 C 
ATOM     14  C   UNL     1      35.748 -20.543 -20.243  0.00  0.00    +0.021 C 
ATOM     15  C   UNL     1      33.346 -20.313 -20.348  0.00  0.00    +0.021 C 
ATOM     16  C   UNL     1      35.894 -19.358 -20.965  0.00  0.00    +0.015 C 
ATOM     17  C   UNL     1      33.490 -19.129 -21.070  0.00  0.00    +0.015 C 
ATOM     18  C   UNL     1      34.764 -18.651 -21.379  0.00  0.00    +0.042 C 
BRANCH  18  19
ATOM     19  N   UNL     1      34.911 -17.454 -22.110  0.00  0.00    -0.357 N 
ATOM     20  H   UNL     1      34.954 -17.480 -23.093  0.00  0.00    +0.142 HD
ATOM     21  H   UNL     1      34.971 -16.593 -21.636  0.00  0.00    +0.142 HD
ENDBRANCH  18  19
ENDBRANCH   1  13
TORSDOF 3
ENDMDL
MODEL 7
REMARK VINA RESULT:      -8.3      3.504      8.321
REMARK  Name = 12894
REMARK  3 active torsions:
REMARK  status: ('A' for Active; 'I' for Inactive)
REMARK    1  A    between atoms: S_1  and  N_5
REMARK    2  A    between atoms: S_1  and  C_13
REMARK    3  A    between atoms: C_18  and  N_19
REMARK                            x       y       z     vdW  Elec       q    Type
REMARK                         _______ _______ _______ _____ _____    ______ ____
ROOT
ATOM      1  S   UNL     1      33.899 -22.976 -18.340  0.00  0.00    +0.078 S 
ATOM      2  O   UNL     1      35.228 -22.487 -17.993  0.00  0.00    -0.150 OA
ATOM      3  O   UNL     1      33.765 -24.215 -19.096  0.00  0.00    -0.150 OA
ENDROOT
BRANCH   1   5
ATOM      4  O   UNL     1      35.184 -20.675 -19.777  0.00  0.00    -0.437 OA
ATOM      5  N   UNL     1      33.037 -21.716 -19.132  0.00  0.00    -0.158 N 
ATOM      6  N   UNL     1      33.312 -20.065 -20.891  0.00  0.00    -0.359 NA
ATOM      7  C   UNL     1      33.851 -20.796 -19.957  0.00  0.00    +0.359 C 
ATOM      8  C   UNL     1      35.531 -19.751 -20.715  0.00  0.00    +0.217 C 
ATOM      9  C   UNL     1      34.393 -19.384 -21.388  0.00  0.00    +0.132 C 
ATOM     10  C   UNL     1      36.947 -19.377 -20.791  0.00  0.00    +0.055 C 
ATOM     11  C   UNL     1      34.239 -18.420 -22.488  0.00  0.00    +0.065 C 
ATOM     12  H   UNL     1      32.062 -21.613 -19.043  0.00  0.00    +0.179 HD
ENDBRANCH   1   5
BRANCH   1  13
ATOM     13  C   UNL     1      32.971 -23.146 -16.871  0.00  0.00    +0.125 C 
ATOM     14  C   UNL     1      31.595 -22.917 -16.885  0.00  0.00    +0.021 C 
ATOM     15  C   UNL     1      33.604 -23.515 -15.685  0.00  0.00    +0.021 C 
ATOM     16  C   UNL     1      30.853 -23.053 -15.712  0.00  0.00    +0.015 C 
ATOM     17  C   UNL     1      32.863 -23.651 -14.511  0.00  0.00    +0.015 C 
ATOM     18  C   UNL     1      31.487 -23.421 -14.525  0.00  0.00    +0.042 C 
BRANCH  18  19
ATOM     19  N   UNL     1      30.736 -23.560 -13.339  0.00  0.00    -0.357 N 
ATOM     20  H   UNL     1      30.310 -24.420 -13.124  0.00  0.00    +0.142 HD
ATOM     21  H   UNL     1      30.638 -22.795 -12.727  0.00  0.00    +0.142 HD
ENDBRANCH  18  19
ENDBRANCH   1  13
TORSDOF 3
ENDMDL
MODEL 8
REMARK VINA RESULT:      -8.3      2.213      6.837
REMARK  Name = 12894
REMARK  3 active torsions:
REMARK  status: ('A' for Active; 'I' for Inactive)
REMARK    1  A    between atoms: S_1  and  N_5
REMARK    2  A    between atoms: S_1  and  C_13
REMARK    3  A    between atoms: C_18  and  N_19
REMARK                            x       y       z     vdW  Elec       q    Type
REMARK                         _______ _______ _______ _____ _____    ______ ____
ROOT
ATOM      1  S   UNL     1      34.887 -18.241 -21.813  0.00  0.00    +0.078 S 
ATOM      2  O   UNL     1      36.336 -18.137 -21.931  0.00  0.00    -0.150 OA
ATOM      3  O   UNL     1      34.070 -18.286 -23.019  0.00  0.00    -0.150 OA
ENDROOT
BRANCH   1   5
ATOM      4  O   UNL     1      34.169 -15.472 -22.724  0.00  0.00    -0.437 OA
ATOM      5  N   UNL     1      34.326 -16.988 -20.778  0.00  0.00    -0.158 N 
ATOM      6  N   UNL     1      33.040 -14.929 -20.841  0.00  0.00    -0.359 NA
ATOM      7  C   UNL     1      33.828 -15.767 -21.451  0.00  0.00    +0.359 C 
ATOM      8  C   UNL     1      33.513 -14.300 -22.946  0.00  0.00    +0.217 C 
ATOM      9  C   UNL     1      32.830 -13.974 -21.801  0.00  0.00    +0.132 C 
ATOM     10  C   UNL     1      33.674 -13.685 -24.268  0.00  0.00    +0.055 C 
ATOM     11  C   UNL     1      31.976 -12.807 -21.533  0.00  0.00    +0.065 C 
ATOM     12  H   UNL     1      34.335 -17.076 -19.797  0.00  0.00    +0.179 HD
ENDBRANCH   1   5
BRANCH   1  13
ATOM     13  C   UNL     1      34.509 -19.656 -20.863  0.00  0.00    +0.125 C 
ATOM     14  C   UNL     1      33.179 -19.996 -20.617  0.00  0.00    +0.021 C 
ATOM     15  C   UNL     1      35.537 -20.448 -20.352  0.00  0.00    +0.021 C 
ATOM     16  C   UNL     1      32.876 -21.127 -19.858  0.00  0.00    +0.015 C 
ATOM     17  C   UNL     1      35.235 -21.579 -19.593  0.00  0.00    +0.015 C 
ATOM     18  C   UNL     1      33.905 -21.919 -19.346  0.00  0.00    +0.042 C 
BRANCH  18  19
ATOM     19  N   UNL     1      33.599 -23.063 -18.580  0.00  0.00    -0.357 N 
ATOM     20  H   UNL     1      34.323 -23.585 -18.165  0.00  0.00    +0.142 HD
ATOM     21  H   UNL     1      32.662 -23.339 -18.462  0.00  0.00    +0.142 HD
ENDBRANCH  18  19
ENDBRANCH   1  13
TORSDOF 3
ENDMDL
MODEL 9
REMARK VINA RESULT:      -8.1      2.340      3.334
REMARK  Name = 12894
REMARK  3 active torsions:
REMARK  status: ('A' for Active; 'I' for Inactive)
REMARK    1  A    between atoms: S_1  and  N_5
REMARK    2  A    between atoms: S_1  and  C_13
REMARK    3  A    between atoms: C_18  and  N_19
REMARK                            x       y       z     vdW  Elec       q    Type
REMARK                         _______ _______ _______ _____ _____    ______ ____
ROOT
ATOM      1  S   UNL     1      34.666 -17.054 -24.532  0.00  0.00    +0.078 S 
ATOM      2  O   UNL     1      33.770 -18.204 -24.535  0.00  0.00    -0.150 OA
ATOM      3  O   UNL     1      35.287 -16.624 -25.778  0.00  0.00    -0.150 OA
ENDROOT
BRANCH   1   5
ATOM      4  O   UNL     1      34.306 -18.726 -22.066  0.00  0.00    -0.437 OA
ATOM      5  N   UNL     1      35.875 -17.298 -23.334  0.00  0.00    -0.158 N 
ATOM      6  N   UNL     1      36.515 -18.873 -21.601  0.00  0.00    -0.359 NA
ATOM      7  C   UNL     1      35.571 -18.321 -22.310  0.00  0.00    +0.359 C 
ATOM      8  C   UNL     1      34.471 -19.650 -21.080  0.00  0.00    +0.217 C 
ATOM      9  C   UNL     1      35.812 -19.736 -20.801  0.00  0.00    +0.132 C 
ATOM     10  C   UNL     1      33.261 -20.302 -20.567  0.00  0.00    +0.055 C 
ATOM     11  C   UNL     1      36.500 -20.584 -19.816  0.00  0.00    +0.065 C 
ATOM     12  H   UNL     1      36.717 -16.788 -23.330  0.00  0.00    +0.179 HD
ENDBRANCH   1   5
BRANCH   1  13
ATOM     13  C   UNL     1      33.806 -15.686 -23.869  0.00  0.00    +0.125 C 
ATOM     14  C   UNL     1      33.399 -14.646 -24.704  0.00  0.00    +0.021 C 
ATOM     15  C   UNL     1      33.525 -15.634 -22.504  0.00  0.00    +0.021 C 
ATOM     16  C   UNL     1      32.712 -13.553 -24.175  0.00  0.00    +0.015 C 
ATOM     17  C   UNL     1      32.838 -14.543 -21.974  0.00  0.00    +0.015 C 
ATOM     18  C   UNL     1      32.431 -13.502 -22.809  0.00  0.00    +0.042 C 
BRANCH  18  19
ATOM     19  N   UNL     1      31.736 -12.398 -22.274  0.00  0.00    -0.357 N 
ATOM     20  H   UNL     1      30.891 -12.102 -22.683  0.00  0.00    +0.142 HD
ATOM     21  H   UNL     1      32.097 -11.922 -21.491  0.00  0.00    +0.142 HD
ENDBRANCH  18  19
ENDBRANCH   1  13
TORSDOF 3
ENDMDL
