MODEL 1
REMARK VINA RESULT:     -10.4      0.000      0.000
REMARK  Name = 59757
REMARK  7 active torsions:
REMARK  status: ('A' for Active; 'I' for Inactive)
REMARK    1  A    between atoms: N_1  and  C_13
REMARK    2  A    between atoms: C_3  and  C_7
REMARK    3  A    between atoms: C_4  and  C_21
REMARK    4  A    between atoms: C_18  and  O_19
REMARK    5  A    between atoms: C_21  and  C_22
REMARK    6  A    between atoms: C_22  and  C_25
REMARK    7  A    between atoms: N_24  and  O_27
REMARK                            x       y       z     vdW  Elec       q    Type
REMARK                         _______ _______ _______ _____ _____    ______ ____
ROOT
ATOM      1  N   UNL     1      33.620 -23.484 -15.696  0.00  0.00    -0.190 N 
ATOM      2  N   UNL     1      32.291 -23.281 -15.680  0.00  0.00    -0.178 NA
ATOM      3  C   UNL     1      34.073 -24.246 -14.661  0.00  0.00    +0.075 C 
ATOM      4  C   UNL     1      31.922 -23.943 -14.597  0.00  0.00    +0.079 C 
ATOM      5  C   UNL     1      32.964 -24.564 -13.915  0.00  0.00    +0.033 C 
ENDROOT
BRANCH   3   7
ATOM      6 CL   UNL     1      39.773 -25.733 -13.803  0.00  0.00    -0.082 Cl
ATOM      7  C   UNL     1      35.457 -24.607 -14.453  0.00  0.00    +0.016 C 
ATOM      8  C   UNL     1      35.995 -25.710 -15.114  0.00  0.00    +0.002 C 
ATOM      9  C   UNL     1      36.250 -23.851 -13.591  0.00  0.00    +0.002 C 
ATOM     10  C   UNL     1      37.330 -26.059 -14.914  0.00  0.00    +0.011 C 
ATOM     11  C   UNL     1      37.585 -24.200 -13.391  0.00  0.00    +0.011 C 
ATOM     12  C   UNL     1      38.126 -25.303 -14.052  0.00  0.00    +0.058 C 
ENDBRANCH   3   7
BRANCH   1  13
ATOM     13  C   UNL     1      34.387 -22.925 -16.720  0.00  0.00    +0.074 C 
ATOM     14  C   UNL     1      35.677 -22.489 -16.448  0.00  0.00    +0.020 C 
ATOM     15  C   UNL     1      33.848 -22.811 -17.994  0.00  0.00    +0.020 C 
ATOM     16  C   UNL     1      36.443 -21.929 -17.471  0.00  0.00    +0.038 C 
ATOM     17  C   UNL     1      34.614 -22.251 -19.017  0.00  0.00    +0.038 C 
ATOM     18  C   UNL     1      35.912 -21.810 -18.755  0.00  0.00    +0.139 C 
BRANCH  18  19
ATOM     19  O   UNL     1      36.660 -21.266 -19.753  0.00  0.00    -0.471 OA
ATOM     20  C   UNL     1      36.056 -20.230 -20.525  0.00  0.00    +0.252 C 
ENDBRANCH  18  19
ENDBRANCH   1  13
BRANCH   4  21
ATOM     21  C   UNL     1      30.471 -23.960 -14.221  0.00  0.00    +0.057 C 
BRANCH  21  22
ATOM     22  C   UNL     1      29.559 -24.161 -15.435  0.00  0.00    +0.094 C 
BRANCH  22  25
ATOM     23  O   UNL     1      28.817 -21.896 -15.082  0.00  0.00    -0.273 OA
ATOM     24  N   UNL     1      27.854 -23.070 -16.799  0.00  0.00    -0.170 N 
ATOM     25  C   UNL     1      28.719 -22.930 -15.745  0.00  0.00    +0.248 C 
ATOM     26  C   UNL     1      26.961 -22.024 -17.249  0.00  0.00    +0.148 C 
BRANCH  24  27
ATOM     27  O   UNL     1      27.734 -24.241 -17.557  0.00  0.00    -0.292 OA
ATOM     28  H   UNL     1      26.827 -24.577 -17.490  0.00  0.00    +0.242 HD
ENDBRANCH  24  27
ENDBRANCH  22  25
ENDBRANCH  21  22
ENDBRANCH   4  21
TORSDOF 7
ENDMDL
MODEL 2
REMARK VINA RESULT:     -10.3      2.312      4.378
REMARK  Name = 59757
REMARK  7 active torsions:
REMARK  status: ('A' for Active; 'I' for Inactive)
REMARK    1  A    between atoms: N_1  and  C_13
REMARK    2  A    between atoms: C_3  and  C_7
REMARK    3  A    between atoms: C_4  and  C_21
REMARK    4  A    between atoms: C_18  and  O_19
REMARK    5  A    between atoms: C_21  and  C_22
REMARK    6  A    between atoms: C_22  and  C_25
REMARK    7  A    between atoms: N_24  and  O_27
REMARK                            x       y       z     vdW  Elec       q    Type
REMARK                         _______ _______ _______ _____ _____    ______ ____
ROOT
ATOM      1  N   UNL     1      33.835 -24.106 -14.960  0.00  0.00    -0.190 N 
ATOM      2  N   UNL     1      32.826 -24.504 -14.166  0.00  0.00    -0.178 NA
ATOM      3  C   UNL     1      33.434 -23.358 -16.027  0.00  0.00    +0.075 C 
ATOM      4  C   UNL     1      31.773 -23.981 -14.771  0.00  0.00    +0.079 C 
ATOM      5  C   UNL     1      32.067 -23.261 -15.925  0.00  0.00    +0.033 C 
ENDROOT
BRANCH   3   7
ATOM      6 CL   UNL     1      37.101 -21.107 -20.140  0.00  0.00    -0.082 Cl
ATOM      7  C   UNL     1      34.324 -22.811 -17.026  0.00  0.00    +0.016 C 
ATOM      8  C   UNL     1      33.902 -22.706 -18.350  0.00  0.00    +0.002 C 
ATOM      9  C   UNL     1      35.601 -22.391 -16.661  0.00  0.00    +0.002 C 
ATOM     10  C   UNL     1      34.761 -22.179 -19.314  0.00  0.00    +0.011 C 
ATOM     11  C   UNL     1      36.460 -21.863 -17.625  0.00  0.00    +0.011 C 
ATOM     12  C   UNL     1      36.040 -21.756 -18.951  0.00  0.00    +0.058 C 
ENDBRANCH   3   7
BRANCH   1  13
ATOM     13  C   UNL     1      35.144 -24.472 -14.641  0.00  0.00    +0.074 C 
ATOM     14  C   UNL     1      35.710 -25.583 -15.251  0.00  0.00    +0.020 C 
ATOM     15  C   UNL     1      35.859 -23.721 -13.718  0.00  0.00    +0.020 C 
ATOM     16  C   UNL     1      37.018 -25.950 -14.932  0.00  0.00    +0.038 C 
ATOM     17  C   UNL     1      37.166 -24.087 -13.400  0.00  0.00    +0.038 C 
ATOM     18  C   UNL     1      37.746 -25.202 -14.006  0.00  0.00    +0.139 C 
BRANCH  18  19
ATOM     19  O   UNL     1      39.022 -25.559 -13.696  0.00  0.00    -0.471 OA
ATOM     20  C   UNL     1      40.009 -25.387 -14.712  0.00  0.00    +0.252 C 
ENDBRANCH  18  19
ENDBRANCH   1  13
BRANCH   4  21
ATOM     21  C   UNL     1      30.414 -24.206 -14.178  0.00  0.00    +0.057 C 
BRANCH  21  22
ATOM     22  C   UNL     1      29.344 -24.432 -15.249  0.00  0.00    +0.094 C 
BRANCH  22  25
ATOM     23  O   UNL     1      28.807 -22.092 -15.042  0.00  0.00    -0.273 OA
ATOM     24  N   UNL     1      27.869 -23.243 -16.788  0.00  0.00    -0.170 N 
ATOM     25  C   UNL     1      28.658 -23.141 -15.673  0.00  0.00    +0.248 C 
ATOM     26  C   UNL     1      27.123 -22.136 -17.349  0.00  0.00    +0.148 C 
BRANCH  24  27
ATOM     27  O   UNL     1      27.693 -24.429 -17.511  0.00  0.00    -0.292 OA
ATOM     28  H   UNL     1      28.036 -25.175 -16.994  0.00  0.00    +0.242 HD
ENDBRANCH  24  27
ENDBRANCH  22  25
ENDBRANCH  21  22
ENDBRANCH   4  21
TORSDOF 7
ENDMDL
MODEL 3
REMARK VINA RESULT:      -9.6      3.733      6.890
REMARK  Name = 59757
REMARK  7 active torsions:
REMARK  status: ('A' for Active; 'I' for Inactive)
REMARK    1  A    between atoms: N_1  and  C_13
REMARK    2  A    between atoms: C_3  and  C_7
REMARK    3  A    between atoms: C_4  and  C_21
REMARK    4  A    between atoms: C_18  and  O_19
REMARK    5  A    between atoms: C_21  and  C_22
REMARK    6  A    between atoms: C_22  and  C_25
REMARK    7  A    between atoms: N_24  and  O_27
REMARK                            x       y       z     vdW  Elec       q    Type
REMARK                         _______ _______ _______ _____ _____    ______ ____
ROOT
ATOM      1  N   UNL     1      34.625 -23.700 -14.821  0.00  0.00    -0.190 N 
ATOM      2  N   UNL     1      35.787 -23.941 -14.190  0.00  0.00    -0.178 NA
ATOM      3  C   UNL     1      33.522 -23.997 -14.075  0.00  0.00    +0.075 C 
ATOM      4  C   UNL     1      35.378 -24.400 -13.020  0.00  0.00    +0.079 C 
ATOM      5  C   UNL     1      33.996 -24.464 -12.874  0.00  0.00    +0.033 C 
ENDROOT
BRANCH   3   7
ATOM      6 CL   UNL     1      27.909 -23.301 -15.929  0.00  0.00    -0.082 Cl
ATOM      7  C   UNL     1      32.159 -23.828 -14.525  0.00  0.00    +0.016 C 
ATOM      8  C   UNL     1      31.424 -24.935 -14.946  0.00  0.00    +0.002 C 
ATOM      9  C   UNL     1      31.584 -22.559 -14.537  0.00  0.00    +0.002 C 
ATOM     10  C   UNL     1      30.109 -24.772 -15.381  0.00  0.00    +0.011 C 
ATOM     11  C   UNL     1      30.269 -22.397 -14.971  0.00  0.00    +0.011 C 
ATOM     12  C   UNL     1      29.531 -23.502 -15.392  0.00  0.00    +0.058 C 
ENDBRANCH   3   7
BRANCH   1  13
ATOM     13  C   UNL     1      34.642 -23.193 -16.121  0.00  0.00    +0.074 C 
ATOM     14  C   UNL     1      33.549 -23.402 -16.951  0.00  0.00    +0.020 C 
ATOM     15  C   UNL     1      35.752 -22.489 -16.566  0.00  0.00    +0.020 C 
ATOM     16  C   UNL     1      33.567 -22.896 -18.251  0.00  0.00    +0.038 C 
ATOM     17  C   UNL     1      35.770 -21.982 -17.865  0.00  0.00    +0.038 C 
ATOM     18  C   UNL     1      34.677 -22.186 -18.709  0.00  0.00    +0.139 C 
BRANCH  18  19
ATOM     19  O   UNL     1      34.694 -21.691 -19.976  0.00  0.00    -0.471 OA
ATOM     20  C   UNL     1      33.877 -20.551 -20.238  0.00  0.00    +0.252 C 
ENDBRANCH  18  19
ENDBRANCH   1  13
BRANCH   4  21
ATOM     21  C   UNL     1      36.405 -24.793 -12.000  0.00  0.00    +0.057 C 
BRANCH  21  22
ATOM     22  C   UNL     1      37.369 -25.858 -12.527  0.00  0.00    +0.094 C 
BRANCH  22  25
ATOM     23  O   UNL     1      39.142 -24.235 -12.687  0.00  0.00    -0.273 OA
ATOM     24  N   UNL     1      39.122 -25.934 -14.225  0.00  0.00    -0.170 N 
ATOM     25  C   UNL     1      38.627 -25.258 -13.141  0.00  0.00    +0.248 C 
ATOM     26  C   UNL     1      40.301 -25.523 -14.958  0.00  0.00    +0.148 C 
BRANCH  24  27
ATOM     27  O   UNL     1      38.543 -27.096 -14.748  0.00  0.00    -0.292 OA
ATOM     28  H   UNL     1      39.221 -27.615 -15.208  0.00  0.00    +0.242 HD
ENDBRANCH  24  27
ENDBRANCH  22  25
ENDBRANCH  21  22
ENDBRANCH   4  21
TORSDOF 7
ENDMDL
MODEL 4
REMARK VINA RESULT:      -9.6      3.731      6.893
REMARK  Name = 59757
REMARK  7 active torsions:
REMARK  status: ('A' for Active; 'I' for Inactive)
REMARK    1  A    between atoms: N_1  and  C_13
REMARK    2  A    between atoms: C_3  and  C_7
REMARK    3  A    between atoms: C_4  and  C_21
REMARK    4  A    between atoms: C_18  and  O_19
REMARK    5  A    between atoms: C_21  and  C_22
REMARK    6  A    between atoms: C_22  and  C_25
REMARK    7  A    between atoms: N_24  and  O_27
REMARK                            x       y       z     vdW  Elec       q    Type
REMARK                         _______ _______ _______ _____ _____    ______ ____
ROOT
ATOM      1  N   UNL     1      34.633 -23.708 -14.814  0.00  0.00    -0.190 N 
ATOM      2  N   UNL     1      35.797 -23.948 -14.186  0.00  0.00    -0.178 NA
ATOM      3  C   UNL     1      33.532 -24.000 -14.064  0.00  0.00    +0.075 C 
ATOM      4  C   UNL     1      35.391 -24.401 -13.012  0.00  0.00    +0.079 C 
ATOM      5  C   UNL     1      34.009 -24.463 -12.862  0.00  0.00    +0.033 C 
ENDROOT
BRANCH   3   7
ATOM      6 CL   UNL     1      27.913 -23.304 -15.900  0.00  0.00    -0.082 Cl
ATOM      7  C   UNL     1      32.168 -23.831 -14.510  0.00  0.00    +0.016 C 
ATOM      8  C   UNL     1      31.599 -22.559 -14.540  0.00  0.00    +0.002 C 
ATOM      9  C   UNL     1      31.425 -24.940 -14.908  0.00  0.00    +0.002 C 
ATOM     10  C   UNL     1      30.283 -22.395 -14.971  0.00  0.00    +0.011 C 
ATOM     11  C   UNL     1      30.109 -24.776 -15.339  0.00  0.00    +0.011 C 
ATOM     12  C   UNL     1      29.537 -23.505 -15.371  0.00  0.00    +0.058 C 
ENDBRANCH   3   7
BRANCH   1  13
ATOM     13  C   UNL     1      34.647 -23.206 -16.117  0.00  0.00    +0.074 C 
ATOM     14  C   UNL     1      35.748 -22.488 -16.561  0.00  0.00    +0.020 C 
ATOM     15  C   UNL     1      33.557 -23.430 -16.948  0.00  0.00    +0.020 C 
ATOM     16  C   UNL     1      35.761 -21.985 -17.863  0.00  0.00    +0.038 C 
ATOM     17  C   UNL     1      33.571 -22.928 -18.249  0.00  0.00    +0.038 C 
ATOM     18  C   UNL     1      34.673 -22.205 -18.707  0.00  0.00    +0.139 C 
BRANCH  18  19
ATOM     19  O   UNL     1      34.686 -21.716 -19.976  0.00  0.00    -0.471 OA
ATOM     20  C   UNL     1      33.928 -20.533 -20.225  0.00  0.00    +0.252 C 
ENDBRANCH  18  19
ENDBRANCH   1  13
BRANCH   4  21
ATOM     21  C   UNL     1      36.420 -24.791 -11.994  0.00  0.00    +0.057 C 
BRANCH  21  22
ATOM     22  C   UNL     1      37.383 -25.858 -12.521  0.00  0.00    +0.094 C 
BRANCH  22  25
ATOM     23  O   UNL     1      39.156 -24.235 -12.692  0.00  0.00    -0.273 OA
ATOM     24  N   UNL     1      39.130 -25.938 -14.225  0.00  0.00    -0.170 N 
ATOM     25  C   UNL     1      38.638 -25.259 -13.141  0.00  0.00    +0.248 C 
ATOM     26  C   UNL     1      40.306 -25.530 -14.963  0.00  0.00    +0.148 C 
BRANCH  24  27
ATOM     27  O   UNL     1      38.549 -27.101 -14.743  0.00  0.00    -0.292 OA
ATOM     28  H   UNL     1      38.771 -27.182 -15.684  0.00  0.00    +0.242 HD
ENDBRANCH  24  27
ENDBRANCH  22  25
ENDBRANCH  21  22
ENDBRANCH   4  21
TORSDOF 7
ENDMDL
MODEL 5
REMARK VINA RESULT:      -9.0      3.368      7.373
REMARK  Name = 59757
REMARK  7 active torsions:
REMARK  status: ('A' for Active; 'I' for Inactive)
REMARK    1  A    between atoms: N_1  and  C_13
REMARK    2  A    between atoms: C_3  and  C_7
REMARK    3  A    between atoms: C_4  and  C_21
REMARK    4  A    between atoms: C_18  and  O_19
REMARK    5  A    between atoms: C_21  and  C_22
REMARK    6  A    between atoms: C_22  and  C_25
REMARK    7  A    between atoms: N_24  and  O_27
REMARK                            x       y       z     vdW  Elec       q    Type
REMARK                         _______ _______ _______ _____ _____    ______ ____
ROOT
ATOM      1  N   UNL     1      33.263 -23.917 -14.054  0.00  0.00    -0.190 N 
ATOM      2  N   UNL     1      33.570 -24.339 -12.815  0.00  0.00    -0.178 NA
ATOM      3  C   UNL     1      34.349 -23.564 -14.800  0.00  0.00    +0.075 C 
ATOM      4  C   UNL     1      34.889 -24.241 -12.807  0.00  0.00    +0.079 C 
ATOM      5  C   UNL     1      35.442 -23.770 -13.994  0.00  0.00    +0.033 C 
ENDROOT
BRANCH   3   7
ATOM      6 CL   UNL     1      34.089 -21.566 -20.401  0.00  0.00    -0.082 Cl
ATOM      7  C   UNL     1      34.286 -23.079 -16.160  0.00  0.00    +0.016 C 
ATOM      8  C   UNL     1      35.415 -22.513 -16.749  0.00  0.00    +0.002 C 
ATOM      9  C   UNL     1      33.096 -23.179 -16.878  0.00  0.00    +0.002 C 
ATOM     10  C   UNL     1      35.354 -22.045 -18.062  0.00  0.00    +0.011 C 
ATOM     11  C   UNL     1      33.036 -22.711 -18.191  0.00  0.00    +0.011 C 
ATOM     12  C   UNL     1      34.164 -22.145 -18.783  0.00  0.00    +0.058 C 
ENDBRANCH   3   7
BRANCH   1  13
ATOM     13  C   UNL     1      31.927 -23.876 -14.453  0.00  0.00    +0.074 C 
ATOM     14  C   UNL     1      31.269 -25.058 -14.764  0.00  0.00    +0.020 C 
ATOM     15  C   UNL     1      31.275 -22.653 -14.536  0.00  0.00    +0.020 C 
ATOM     16  C   UNL     1      29.933 -25.017 -15.165  0.00  0.00    +0.038 C 
ATOM     17  C   UNL     1      29.939 -22.612 -14.935  0.00  0.00    +0.038 C 
ATOM     18  C   UNL     1      29.268 -23.794 -15.250  0.00  0.00    +0.139 C 
BRANCH  18  19
ATOM     19  O   UNL     1      27.964 -23.754 -15.639  0.00  0.00    -0.471 OA
ATOM     20  C   UNL     1      27.395 -22.466 -15.869  0.00  0.00    +0.252 C 
ENDBRANCH  18  19
ENDBRANCH   1  13
BRANCH   4  21
ATOM     21  C   UNL     1      35.633 -24.630 -11.565  0.00  0.00    +0.057 C 
BRANCH  21  22
ATOM     22  C   UNL     1      37.135 -24.352 -11.677  0.00  0.00    +0.094 C 
BRANCH  22  25
ATOM     23  O   UNL     1      37.899 -26.626 -11.899  0.00  0.00    -0.273 OA
ATOM     24  N   UNL     1      38.553 -25.128 -13.506  0.00  0.00    -0.170 N 
ATOM     25  C   UNL     1      37.890 -25.483 -12.361  0.00  0.00    +0.248 C 
ATOM     26  C   UNL     1      39.337 -26.051 -14.300  0.00  0.00    +0.148 C 
BRANCH  24  27
ATOM     27  O   UNL     1      38.548 -23.833 -14.038  0.00  0.00    -0.292 OA
ATOM     28  H   UNL     1      39.361 -23.692 -14.549  0.00  0.00    +0.242 HD
ENDBRANCH  24  27
ENDBRANCH  22  25
ENDBRANCH  21  22
ENDBRANCH   4  21
TORSDOF 7
ENDMDL
MODEL 6
REMARK VINA RESULT:      -8.6      3.710      7.107
REMARK  Name = 59757
REMARK  7 active torsions:
REMARK  status: ('A' for Active; 'I' for Inactive)
REMARK    1  A    between atoms: N_1  and  C_13
REMARK    2  A    between atoms: C_3  and  C_7
REMARK    3  A    between atoms: C_4  and  C_21
REMARK    4  A    between atoms: C_18  and  O_19
REMARK    5  A    between atoms: C_21  and  C_22
REMARK    6  A    between atoms: C_22  and  C_25
REMARK    7  A    between atoms: N_24  and  O_27
REMARK                            x       y       z     vdW  Elec       q    Type
REMARK                         _______ _______ _______ _____ _____    ______ ____
ROOT
ATOM      1  N   UNL     1      35.215 -23.055 -16.471  0.00  0.00    -0.190 N 
ATOM      2  N   UNL     1      36.218 -22.572 -17.225  0.00  0.00    -0.178 NA
ATOM      3  C   UNL     1      33.984 -22.919 -17.042  0.00  0.00    +0.075 C 
ATOM      4  C   UNL     1      35.576 -22.127 -18.291  0.00  0.00    +0.079 C 
ATOM      5  C   UNL     1      34.196 -22.304 -18.252  0.00  0.00    +0.033 C 
ENDROOT
BRANCH   3   7
ATOM      6 CL   UNL     1      28.889 -24.720 -14.545  0.00  0.00    -0.082 Cl
ATOM      7  C   UNL     1      32.747 -23.356 -16.436  0.00  0.00    +0.016 C 
ATOM      8  C   UNL     1      31.531 -22.858 -16.899  0.00  0.00    +0.002 C 
ATOM      9  C   UNL     1      32.774 -24.276 -15.389  0.00  0.00    +0.002 C 
ATOM     10  C   UNL     1      30.337 -23.280 -16.315  0.00  0.00    +0.011 C 
ATOM     11  C   UNL     1      31.580 -24.698 -14.805  0.00  0.00    +0.011 C 
ATOM     12  C   UNL     1      30.362 -24.201 -15.267  0.00  0.00    +0.058 C 
ENDBRANCH   3   7
BRANCH   1  13
ATOM     13  C   UNL     1      35.501 -23.626 -15.231  0.00  0.00    +0.074 C 
ATOM     14  C   UNL     1      35.337 -22.872 -14.077  0.00  0.00    +0.020 C 
ATOM     15  C   UNL     1      35.949 -24.938 -15.169  0.00  0.00    +0.020 C 
ATOM     16  C   UNL     1      35.626 -23.442 -12.836  0.00  0.00    +0.038 C 
ATOM     17  C   UNL     1      36.237 -25.509 -13.929  0.00  0.00    +0.038 C 
ATOM     18  C   UNL     1      36.075 -24.761 -12.762  0.00  0.00    +0.139 C 
BRANCH  18  19
ATOM     19  O   UNL     1      36.355 -25.317 -11.552  0.00  0.00    -0.471 OA
ATOM     20  C   UNL     1      35.831 -24.661 -10.399  0.00  0.00    +0.252 C 
ENDBRANCH  18  19
ENDBRANCH   1  13
BRANCH   4  21
ATOM     21  C   UNL     1      36.366 -21.497 -19.398  0.00  0.00    +0.057 C 
BRANCH  21  22
ATOM     22  C   UNL     1      35.468 -20.885 -20.477  0.00  0.00    +0.094 C 
BRANCH  22  25
ATOM     23  O   UNL     1      37.037 -19.105 -20.900  0.00  0.00    -0.273 OA
ATOM     24  N   UNL     1      34.804 -18.599 -21.017  0.00  0.00    -0.170 N 
ATOM     25  C   UNL     1      35.857 -19.453 -20.819  0.00  0.00    +0.248 C 
ATOM     26  C   UNL     1      34.958 -17.196 -21.342  0.00  0.00    +0.148 C 
BRANCH  24  27
ATOM     27  O   UNL     1      33.462 -18.984 -20.927  0.00  0.00    -0.292 OA
ATOM     28  H   UNL     1      33.038 -18.881 -21.794  0.00  0.00    +0.242 HD
ENDBRANCH  24  27
ENDBRANCH  22  25
ENDBRANCH  21  22
ENDBRANCH   4  21
TORSDOF 7
ENDMDL
MODEL 7
REMARK VINA RESULT:      -8.5      2.416      5.675
REMARK  Name = 59757
REMARK  7 active torsions:
REMARK  status: ('A' for Active; 'I' for Inactive)
REMARK    1  A    between atoms: N_1  and  C_13
REMARK    2  A    between atoms: C_3  and  C_7
REMARK    3  A    between atoms: C_4  and  C_21
REMARK    4  A    between atoms: C_18  and  O_19
REMARK    5  A    between atoms: C_21  and  C_22
REMARK    6  A    between atoms: C_22  and  C_25
REMARK    7  A    between atoms: N_24  and  O_27
REMARK                            x       y       z     vdW  Elec       q    Type
REMARK                         _______ _______ _______ _____ _____    ______ ____
ROOT
ATOM      1  N   UNL     1      35.092 -22.793 -16.543  0.00  0.00    -0.190 N 
ATOM      2  N   UNL     1      35.036 -22.018 -17.641  0.00  0.00    -0.178 NA
ATOM      3  C   UNL     1      36.361 -23.071 -16.130  0.00  0.00    +0.075 C 
ATOM      4  C   UNL     1      36.315 -21.817 -17.904  0.00  0.00    +0.079 C 
ATOM      5  C   UNL     1      37.193 -22.434 -17.018  0.00  0.00    +0.033 C 
ENDROOT
BRANCH   3   7
ATOM      6 CL   UNL     1      37.714 -26.406 -11.389  0.00  0.00    -0.082 Cl
ATOM      7  C   UNL     1      36.689 -23.881 -14.979  0.00  0.00    +0.016 C 
ATOM      8  C   UNL     1      36.965 -23.271 -13.756  0.00  0.00    +0.002 C 
ATOM      9  C   UNL     1      36.729 -25.269 -15.095  0.00  0.00    +0.002 C 
ATOM     10  C   UNL     1      37.282 -24.053 -12.645  0.00  0.00    +0.011 C 
ATOM     11  C   UNL     1      37.045 -26.050 -13.983  0.00  0.00    +0.011 C 
ATOM     12  C   UNL     1      37.321 -25.442 -12.759  0.00  0.00    +0.058 C 
ENDBRANCH   3   7
BRANCH   1  13
ATOM     13  C   UNL     1      33.906 -23.227 -15.949  0.00  0.00    +0.074 C 
ATOM     14  C   UNL     1      32.749 -23.311 -16.712  0.00  0.00    +0.020 C 
ATOM     15  C   UNL     1      33.900 -23.566 -14.603  0.00  0.00    +0.020 C 
ATOM     16  C   UNL     1      31.563 -23.743 -16.116  0.00  0.00    +0.038 C 
ATOM     17  C   UNL     1      32.715 -23.999 -14.008  0.00  0.00    +0.038 C 
ATOM     18  C   UNL     1      31.546 -24.087 -14.765  0.00  0.00    +0.139 C 
BRANCH  18  19
ATOM     19  O   UNL     1      30.390 -24.511 -14.185  0.00  0.00    -0.471 OA
ATOM     20  C   UNL     1      29.351 -24.955 -15.057  0.00  0.00    +0.252 C 
ENDBRANCH  18  19
ENDBRANCH   1  13
BRANCH   4  21
ATOM     21  C   UNL     1      36.684 -20.975 -19.089  0.00  0.00    +0.057 C 
BRANCH  21  22
ATOM     22  C   UNL     1      35.819 -21.284 -20.313  0.00  0.00    +0.094 C 
BRANCH  22  25
ATOM     23  O   UNL     1      35.198 -19.069 -21.030  0.00  0.00    -0.273 OA
ATOM     24  N   UNL     1      33.512 -20.492 -20.411  0.00  0.00    -0.170 N 
ATOM     25  C   UNL     1      34.827 -20.172 -20.624  0.00  0.00    +0.248 C 
ATOM     26  C   UNL     1      32.415 -19.575 -20.635  0.00  0.00    +0.148 C 
BRANCH  24  27
ATOM     27  O   UNL     1      33.080 -21.741 -19.949  0.00  0.00    -0.292 OA
ATOM     28  H   UNL     1      32.396 -22.086 -20.545  0.00  0.00    +0.242 HD
ENDBRANCH  24  27
ENDBRANCH  22  25
ENDBRANCH  21  22
ENDBRANCH   4  21
TORSDOF 7
ENDMDL
MODEL 8
REMARK VINA RESULT:      -8.4      3.700      6.812
REMARK  Name = 59757
REMARK  7 active torsions:
REMARK  status: ('A' for Active; 'I' for Inactive)
REMARK    1  A    between atoms: N_1  and  C_13
REMARK    2  A    between atoms: C_3  and  C_7
REMARK    3  A    between atoms: C_4  and  C_21
REMARK    4  A    between atoms: C_18  and  O_19
REMARK    5  A    between atoms: C_21  and  C_22
REMARK    6  A    between atoms: C_22  and  C_25
REMARK    7  A    between atoms: N_24  and  O_27
REMARK                            x       y       z     vdW  Elec       q    Type
REMARK                         _______ _______ _______ _____ _____    ______ ____
ROOT
ATOM      1  N   UNL     1      34.482 -23.153 -16.792  0.00  0.00    -0.190 N 
ATOM      2  N   UNL     1      35.019 -22.729 -17.949  0.00  0.00    -0.178 NA
ATOM      3  C   UNL     1      33.121 -23.074 -16.756  0.00  0.00    +0.075 C 
ATOM      4  C   UNL     1      33.948 -22.381 -18.642  0.00  0.00    +0.079 C 
ATOM      5  C   UNL     1      32.741 -22.563 -17.973  0.00  0.00    +0.033 C 
ENDROOT
BRANCH   3   7
ATOM      6 CL   UNL     1      29.770 -24.694 -12.110  0.00  0.00    -0.082 Cl
ATOM      7  C   UNL     1      32.307 -23.467 -15.628  0.00  0.00    +0.016 C 
ATOM      8  C   UNL     1      32.465 -22.827 -14.400  0.00  0.00    +0.002 C 
ATOM      9  C   UNL     1      31.367 -24.486 -15.771  0.00  0.00    +0.002 C 
ATOM     10  C   UNL     1      31.680 -23.206 -13.311  0.00  0.00    +0.011 C 
ATOM     11  C   UNL     1      30.582 -24.864 -14.682  0.00  0.00    +0.011 C 
ATOM     12  C   UNL     1      30.738 -24.225 -13.453  0.00  0.00    +0.058 C 
ENDBRANCH   3   7
BRANCH   1  13
ATOM     13  C   UNL     1      35.319 -23.615 -15.775  0.00  0.00    +0.074 C 
ATOM     14  C   UNL     1      35.376 -24.974 -15.501  0.00  0.00    +0.020 C 
ATOM     15  C   UNL     1      36.080 -22.707 -15.051  0.00  0.00    +0.020 C 
ATOM     16  C   UNL     1      36.212 -25.436 -14.483  0.00  0.00    +0.038 C 
ATOM     17  C   UNL     1      36.916 -23.169 -14.034  0.00  0.00    +0.038 C 
ATOM     18  C   UNL     1      36.982 -24.533 -13.750  0.00  0.00    +0.139 C 
BRANCH  18  19
ATOM     19  O   UNL     1      37.798 -24.983 -12.759  0.00  0.00    -0.471 OA
ATOM     20  C   UNL     1      38.395 -24.001 -11.913  0.00  0.00    +0.252 C 
ENDBRANCH  18  19
ENDBRANCH   1  13
BRANCH   4  21
ATOM     21  C   UNL     1      34.130 -21.842 -20.029  0.00  0.00    +0.057 C 
BRANCH  21  22
ATOM     22  C   UNL     1      35.173 -20.722 -20.085  0.00  0.00    +0.094 C 
BRANCH  22  25
ATOM     23  O   UNL     1      33.525 -19.334 -21.164  0.00  0.00    -0.273 OA
ATOM     24  N   UNL     1      35.726 -18.743 -21.403  0.00  0.00    -0.170 N 
ATOM     25  C   UNL     1      34.717 -19.540 -20.929  0.00  0.00    +0.248 C 
ATOM     26  C   UNL     1      35.507 -17.576 -22.231  0.00  0.00    +0.148 C 
BRANCH  24  27
ATOM     27  O   UNL     1      37.083 -18.969 -21.141  0.00  0.00    -0.292 OA
ATOM     28  H   UNL     1      37.176 -19.742 -20.563  0.00  0.00    +0.242 HD
ENDBRANCH  24  27
ENDBRANCH  22  25
ENDBRANCH  21  22
ENDBRANCH   4  21
TORSDOF 7
ENDMDL
MODEL 9
REMARK VINA RESULT:      -8.3      2.532      6.351
REMARK  Name = 59757
REMARK  7 active torsions:
REMARK  status: ('A' for Active; 'I' for Inactive)
REMARK    1  A    between atoms: N_1  and  C_13
REMARK    2  A    between atoms: C_3  and  C_7
REMARK    3  A    between atoms: C_4  and  C_21
REMARK    4  A    between atoms: C_18  and  O_19
REMARK    5  A    between atoms: C_21  and  C_22
REMARK    6  A    between atoms: C_22  and  C_25
REMARK    7  A    between atoms: N_24  and  O_27
REMARK                            x       y       z     vdW  Elec       q    Type
REMARK                         _______ _______ _______ _____ _____    ______ ____
ROOT
ATOM      1  N   UNL     1      34.792 -22.550 -17.210  0.00  0.00    -0.190 N 
ATOM      2  N   UNL     1      34.695 -21.903 -18.385  0.00  0.00    -0.178 NA
ATOM      3  C   UNL     1      36.074 -22.723 -16.781  0.00  0.00    +0.075 C 
ATOM      4  C   UNL     1      35.963 -21.674 -18.681  0.00  0.00    +0.079 C 
ATOM      5  C   UNL     1      36.872 -22.149 -17.741  0.00  0.00    +0.033 C 
ENDROOT
BRANCH   3   7
ATOM      6 CL   UNL     1      37.603 -25.454 -11.717  0.00  0.00    -0.082 Cl
ATOM      7  C   UNL     1      36.445 -23.386 -15.551  0.00  0.00    +0.016 C 
ATOM      8  C   UNL     1      36.841 -22.633 -14.448  0.00  0.00    +0.002 C 
ATOM      9  C   UNL     1      36.406 -24.776 -15.474  0.00  0.00    +0.002 C 
ATOM     10  C   UNL     1      37.199 -23.272 -13.261  0.00  0.00    +0.011 C 
ATOM     11  C   UNL     1      36.764 -25.416 -14.287  0.00  0.00    +0.011 C 
ATOM     12  C   UNL     1      37.160 -24.664 -13.180  0.00  0.00    +0.058 C 
ENDBRANCH   3   7
BRANCH   1  13
ATOM     13  C   UNL     1      33.630 -22.970 -16.560  0.00  0.00    +0.074 C 
ATOM     14  C   UNL     1      32.465 -23.151 -17.292  0.00  0.00    +0.020 C 
ATOM     15  C   UNL     1      33.657 -23.199 -15.191  0.00  0.00    +0.020 C 
ATOM     16  C   UNL     1      31.303 -23.570 -16.642  0.00  0.00    +0.038 C 
ATOM     17  C   UNL     1      32.496 -23.618 -14.542  0.00  0.00    +0.038 C 
ATOM     18  C   UNL     1      31.318 -23.803 -15.267  0.00  0.00    +0.139 C 
BRANCH  18  19
ATOM     19  O   UNL     1      30.186 -24.213 -14.633  0.00  0.00    -0.471 OA
ATOM     20  C   UNL     1      29.023 -24.402 -15.439  0.00  0.00    +0.252 C 
ENDBRANCH  18  19
ENDBRANCH   1  13
BRANCH   4  21
ATOM     21  C   UNL     1      36.287 -20.951 -19.954  0.00  0.00    +0.057 C 
BRANCH  21  22
ATOM     22  C   UNL     1      35.058 -20.272 -20.565  0.00  0.00    +0.094 C 
BRANCH  22  25
ATOM     23  O   UNL     1      35.828 -17.994 -20.418  0.00  0.00    -0.273 OA
ATOM     24  N   UNL     1      35.099 -18.735 -22.461  0.00  0.00    -0.170 N 
ATOM     25  C   UNL     1      35.371 -18.892 -21.127  0.00  0.00    +0.248 C 
ATOM     26  C   UNL     1      35.315 -17.500 -23.185  0.00  0.00    +0.148 C 
BRANCH  24  27
ATOM     27  O   UNL     1      34.579 -19.749 -23.274  0.00  0.00    -0.292 OA
ATOM     28  H   UNL     1      33.630 -19.848 -23.099  0.00  0.00    +0.242 HD
ENDBRANCH  24  27
ENDBRANCH  22  25
ENDBRANCH  21  22
ENDBRANCH   4  21
TORSDOF 7
ENDMDL
