MODEL 1
REMARK VINA RESULT:      -9.8      0.000      0.000
REMARK  Name = 46936633
REMARK  9 active torsions:
REMARK  status: ('A' for Active; 'I' for Inactive)
REMARK    1  A    between atoms: N_2  and  C_16
REMARK    2  A    between atoms: C_3  and  C_7
REMARK    3  A    between atoms: C_16  and  C_17
REMARK    4  A    between atoms: C_17  and  O_18
REMARK    5  A    between atoms: C_17  and  N_20
REMARK    6  A    between atoms: N_20  and  C_22
REMARK    7  A    between atoms: N_20  and  C_27
REMARK    8  A    between atoms: C_27  and  C_28
REMARK    9  A    between atoms: C_28  and  O_29
REMARK                            x       y       z     vdW  Elec       q    Type
REMARK                         _______ _______ _______ _____ _____    ______ ____
ROOT
ATOM      1  O   UNL     1      35.327 -16.599 -23.862  0.00  0.00    -0.269 OA
ATOM      2  N   UNL     1      34.372 -15.435 -22.099  0.00  0.00    -0.300 N 
ATOM      3  C   UNL     1      34.887 -16.566 -22.717  0.00  0.00    +0.259 C 
ATOM      4  H   UNL     1      34.042 -15.509 -21.174  0.00  0.00    +0.150 HD
ENDROOT
BRANCH   3   7
ATOM      5 CL   UNL     1      33.678 -22.962 -18.560  0.00  0.00    -0.082 Cl
ATOM      6  N   UNL     1      35.989 -18.483 -21.513  0.00  0.00    -0.309 N 
ATOM      7  C   UNL     1      34.863 -17.815 -21.912  0.00  0.00    +0.102 C 
ATOM      8  C   UNL     1      33.770 -18.503 -21.436  0.00  0.00    +0.020 C 
ATOM      9  C   UNL     1      34.250 -19.635 -20.721  0.00  0.00    +0.016 C 
ATOM     10  C   UNL     1      35.645 -19.599 -20.784  0.00  0.00    +0.048 C 
ATOM     11  C   UNL     1      33.631 -20.691 -20.022  0.00  0.00    +0.013 C 
ATOM     12  C   UNL     1      36.454 -20.570 -20.182  0.00  0.00    +0.015 C 
ATOM     13  C   UNL     1      34.427 -21.668 -19.415  0.00  0.00    +0.058 C 
ATOM     14  C   UNL     1      35.817 -21.607 -19.495  0.00  0.00    +0.013 C 
ATOM     15  H   UNL     1      36.911 -18.206 -21.719  0.00  0.00    +0.152 HD
ENDBRANCH   3   7
BRANCH   2  16
ATOM     16  C   UNL     1      34.302 -14.154 -22.758  0.00  0.00    +0.097 C 
BRANCH  16  17
ATOM     17  C   UNL     1      32.953 -13.950 -23.457  0.00  0.00    +0.079 C 
BRANCH  17  18
ATOM     18  O   UNL     1      31.973 -13.680 -22.450  0.00  0.00    -0.403 OA
ATOM     19  H   UNL     1      32.395 -13.692 -21.576  0.00  0.00    +0.208 HD
ENDBRANCH  17  18
BRANCH  17  20
ATOM     20  N   UNL     1      33.039 -12.908 -24.497  0.00  0.00    +0.409 N 
ATOM     21  H   UNL     1      32.091 -12.547 -24.600  0.00  0.00    -0.076 HD
BRANCH  20  22
ATOM     22  C   UNL     1      33.880 -11.785 -24.121  0.00  0.00    -0.054 C 
ATOM     23  C   UNL     1      33.079 -10.595 -23.607  0.00  0.00    -0.021 C 
ATOM     24  C   UNL     1      34.630 -11.187 -25.305  0.00  0.00    -0.021 C 
ATOM     25  C   UNL     1      35.061  -9.812 -24.800  0.00  0.00    -0.002 C 
ATOM     26  C   UNL     1      34.060  -9.430 -23.707  0.00  0.00    -0.002 C 
ENDBRANCH  20  22
BRANCH  20  27
ATOM     27  C   UNL     1      33.478 -13.461 -25.778  0.00  0.00    -0.041 C 
BRANCH  27  28
ATOM     28  C   UNL     1      32.824 -14.810 -26.034  0.00  0.00    +0.115 C 
BRANCH  28  29
ATOM     29  O   UNL     1      33.842 -15.780 -26.242  0.00  0.00    -0.384 OA
ATOM     30  H   UNL     1      33.866 -16.027 -27.179  0.00  0.00    +0.210 HD
ENDBRANCH  28  29
ENDBRANCH  27  28
ENDBRANCH  20  27
ENDBRANCH  17  20
ENDBRANCH  16  17
ENDBRANCH   2  16
TORSDOF 9
ENDMDL
MODEL 2
REMARK VINA RESULT:      -9.6      3.441      8.436
REMARK  Name = 46936633
REMARK  9 active torsions:
REMARK  status: ('A' for Active; 'I' for Inactive)
REMARK    1  A    between atoms: N_2  and  C_16
REMARK    2  A    between atoms: C_3  and  C_7
REMARK    3  A    between atoms: C_16  and  C_17
REMARK    4  A    between atoms: C_17  and  O_18
REMARK    5  A    between atoms: C_17  and  N_20
REMARK    6  A    between atoms: N_20  and  C_22
REMARK    7  A    between atoms: N_20  and  C_27
REMARK    8  A    between atoms: C_27  and  C_28
REMARK    9  A    between atoms: C_28  and  O_29
REMARK                            x       y       z     vdW  Elec       q    Type
REMARK                         _______ _______ _______ _____ _____    ______ ____
ROOT
ATOM      1  O   UNL     1      33.833 -15.647 -26.064  0.00  0.00    -0.269 OA
ATOM      2  N   UNL     1      34.187 -16.532 -23.950  0.00  0.00    -0.300 N 
ATOM      3  C   UNL     1      33.826 -15.531 -24.841  0.00  0.00    +0.259 C 
ATOM      4  H   UNL     1      34.148 -16.343 -22.985  0.00  0.00    +0.150 HD
ENDROOT
BRANCH   3   7
ATOM      5 CL   UNL     1      32.367  -8.319 -22.495  0.00  0.00    -0.082 Cl
ATOM      6  N   UNL     1      32.639 -14.120 -23.127  0.00  0.00    -0.309 N 
ATOM      7  C   UNL     1      33.432 -14.232 -24.237  0.00  0.00    +0.102 C 
ATOM      8  C   UNL     1      33.769 -12.963 -24.648  0.00  0.00    +0.020 C 
ATOM      9  C   UNL     1      33.155 -12.042 -23.754  0.00  0.00    +0.016 C 
ATOM     10  C   UNL     1      32.452 -12.794 -22.810  0.00  0.00    +0.048 C 
ATOM     11  C   UNL     1      33.129 -10.636 -23.657  0.00  0.00    +0.013 C 
ATOM     12  C   UNL     1      31.723 -12.207 -21.769  0.00  0.00    +0.015 C 
ATOM     13  C   UNL     1      32.404 -10.037 -22.621  0.00  0.00    +0.058 C 
ATOM     14  C   UNL     1      31.713 -10.812 -21.692  0.00  0.00    +0.013 C 
ATOM     15  H   UNL     1      32.256 -14.878 -22.629  0.00  0.00    +0.152 HD
ENDBRANCH   3   7
BRANCH   2  16
ATOM     16  C   UNL     1      34.617 -17.838 -24.383  0.00  0.00    +0.097 C 
BRANCH  16  17
ATOM     17  C   UNL     1      35.293 -18.617 -23.247  0.00  0.00    +0.079 C 
BRANCH  17  18
ATOM     18  O   UNL     1      36.652 -18.181 -23.164  0.00  0.00    -0.403 OA
ATOM     19  H   UNL     1      36.756 -17.589 -22.401  0.00  0.00    +0.208 HD
ENDBRANCH  17  18
BRANCH  17  20
ATOM     20  N   UNL     1      34.545 -18.480 -21.984  0.00  0.00    +0.409 N 
ATOM     21  H   UNL     1      33.696 -17.970 -22.225  0.00  0.00    -0.076 HD
BRANCH  20  22
ATOM     22  C   UNL     1      34.128 -19.752 -21.421  0.00  0.00    -0.054 C 
ATOM     23  C   UNL     1      32.877 -19.634 -20.558  0.00  0.00    -0.021 C 
ATOM     24  C   UNL     1      35.145 -20.325 -20.442  0.00  0.00    -0.021 C 
ATOM     25  C   UNL     1      34.346 -21.365 -19.660  0.00  0.00    -0.002 C 
ATOM     26  C   UNL     1      32.884 -20.918 -19.734  0.00  0.00    -0.002 C 
ENDBRANCH  20  22
BRANCH  20  27
ATOM     27  C   UNL     1      35.296 -17.710 -20.993  0.00  0.00    -0.041 C 
BRANCH  27  28
ATOM     28  C   UNL     1      34.747 -16.297 -20.881  0.00  0.00    +0.115 C 
BRANCH  28  29
ATOM     29  O   UNL     1      33.353 -16.325 -21.156  0.00  0.00    -0.384 OA
ATOM     30  H   UNL     1      32.858 -16.239 -20.327  0.00  0.00    +0.210 HD
ENDBRANCH  28  29
ENDBRANCH  27  28
ENDBRANCH  20  27
ENDBRANCH  17  20
ENDBRANCH  16  17
ENDBRANCH   2  16
TORSDOF 9
ENDMDL
MODEL 3
REMARK VINA RESULT:      -9.3      7.018     12.562
REMARK  Name = 46936633
REMARK  9 active torsions:
REMARK  status: ('A' for Active; 'I' for Inactive)
REMARK    1  A    between atoms: N_2  and  C_16
REMARK    2  A    between atoms: C_3  and  C_7
REMARK    3  A    between atoms: C_16  and  C_17
REMARK    4  A    between atoms: C_17  and  O_18
REMARK    5  A    between atoms: C_17  and  N_20
REMARK    6  A    between atoms: N_20  and  C_22
REMARK    7  A    between atoms: N_20  and  C_27
REMARK    8  A    between atoms: C_27  and  C_28
REMARK    9  A    between atoms: C_28  and  O_29
REMARK                            x       y       z     vdW  Elec       q    Type
REMARK                         _______ _______ _______ _____ _____    ______ ____
ROOT
ATOM      1  O   UNL     1      32.334 -23.800 -16.994  0.00  0.00    -0.269 OA
ATOM      2  N   UNL     1      34.503 -23.601 -16.198  0.00  0.00    -0.300 N 
ATOM      3  C   UNL     1      33.461 -23.318 -17.070  0.00  0.00    +0.259 C 
ATOM      4  H   UNL     1      35.373 -23.163 -16.341  0.00  0.00    +0.150 HD
ENDROOT
BRANCH   3   7
ATOM      5 CL   UNL     1      36.147 -18.644 -22.601  0.00  0.00    -0.082 Cl
ATOM      6  N   UNL     1      32.825 -21.738 -18.924  0.00  0.00    -0.309 N 
ATOM      7  C   UNL     1      33.776 -22.381 -18.178  0.00  0.00    +0.102 C 
ATOM      8  C   UNL     1      35.012 -21.994 -18.644  0.00  0.00    +0.020 C 
ATOM      9  C   UNL     1      34.805 -21.083 -19.716  0.00  0.00    +0.016 C 
ATOM     10  C   UNL     1      33.424 -20.939 -19.871  0.00  0.00    +0.048 C 
ATOM     11  C   UNL     1      35.661 -20.362 -20.573  0.00  0.00    +0.013 C 
ATOM     12  C   UNL     1      32.856 -20.108 -20.844  0.00  0.00    +0.015 C 
ATOM     13  C   UNL     1      35.107 -19.528 -21.549  0.00  0.00    +0.058 C 
ATOM     14  C   UNL     1      33.725 -19.404 -21.681  0.00  0.00    +0.013 C 
ATOM     15  H   UNL     1      31.853 -21.835 -18.801  0.00  0.00    +0.152 HD
ENDBRANCH   3   7
BRANCH   2  16
ATOM     16  C   UNL     1      34.361 -24.511 -15.088  0.00  0.00    +0.097 C 
BRANCH  16  17
ATOM     17  C   UNL     1      34.646 -23.820 -13.749  0.00  0.00    +0.079 C 
BRANCH  17  18
ATOM     18  O   UNL     1      33.427 -23.786 -13.003  0.00  0.00    -0.403 OA
ATOM     19  H   UNL     1      33.300 -24.635 -12.550  0.00  0.00    +0.208 HD
ENDBRANCH  17  18
BRANCH  17  20
ATOM     20  N   UNL     1      35.762 -24.471 -13.037  0.00  0.00    +0.409 N 
ATOM     21  H   UNL     1      35.344 -25.256 -12.537  0.00  0.00    -0.076 HD
BRANCH  20  22
ATOM     22  C   UNL     1      36.769 -25.023 -13.925  0.00  0.00    -0.054 C 
ATOM     23  C   UNL     1      37.592 -26.126 -13.270  0.00  0.00    -0.021 C 
ATOM     24  C   UNL     1      37.836 -24.006 -14.311  0.00  0.00    -0.021 C 
ATOM     25  C   UNL     1      38.982 -24.868 -14.836  0.00  0.00    -0.002 C 
ATOM     26  C   UNL     1      38.825 -26.234 -14.163  0.00  0.00    -0.002 C 
ENDBRANCH  20  22
BRANCH  20  27
ATOM     27  C   UNL     1      36.382 -23.568 -12.067  0.00  0.00    -0.041 C 
BRANCH  27  28
ATOM     28  C   UNL     1      36.055 -23.998 -10.646  0.00  0.00    +0.115 C 
BRANCH  28  29
ATOM     29  O   UNL     1      35.232 -25.156 -10.696  0.00  0.00    -0.384 OA
ATOM     30  H   UNL     1      35.093 -25.414 -11.620  0.00  0.00    +0.210 HD
ENDBRANCH  28  29
ENDBRANCH  27  28
ENDBRANCH  20  27
ENDBRANCH  17  20
ENDBRANCH  16  17
ENDBRANCH   2  16
TORSDOF 9
ENDMDL
MODEL 4
REMARK VINA RESULT:      -9.2      3.893      9.116
REMARK  Name = 46936633
REMARK  9 active torsions:
REMARK  status: ('A' for Active; 'I' for Inactive)
REMARK    1  A    between atoms: N_2  and  C_16
REMARK    2  A    between atoms: C_3  and  C_7
REMARK    3  A    between atoms: C_16  and  C_17
REMARK    4  A    between atoms: C_17  and  O_18
REMARK    5  A    between atoms: C_17  and  N_20
REMARK    6  A    between atoms: N_20  and  C_22
REMARK    7  A    between atoms: N_20  and  C_27
REMARK    8  A    between atoms: C_27  and  C_28
REMARK    9  A    between atoms: C_28  and  O_29
REMARK                            x       y       z     vdW  Elec       q    Type
REMARK                         _______ _______ _______ _____ _____    ______ ____
ROOT
ATOM      1  O   UNL     1      33.411 -13.999 -24.648  0.00  0.00    -0.269 OA
ATOM      2  N   UNL     1      33.407 -14.071 -22.330  0.00  0.00    -0.300 N 
ATOM      3  C   UNL     1      33.382 -13.429 -23.561  0.00  0.00    +0.259 C 
ATOM      4  H   UNL     1      33.380 -13.525 -21.512  0.00  0.00    +0.150 HD
ENDROOT
BRANCH   3   7
ATOM      5 CL   UNL     1      32.207  -5.828 -22.861  0.00  0.00    -0.082 Cl
ATOM      6  N   UNL     1      34.336 -11.145 -24.015  0.00  0.00    -0.309 N 
ATOM      7  C   UNL     1      33.342 -11.945 -23.520  0.00  0.00    +0.102 C 
ATOM      8  C   UNL     1      32.357 -11.131 -23.009  0.00  0.00    +0.020 C 
ATOM      9  C   UNL     1      32.768  -9.782 -23.200  0.00  0.00    +0.016 C 
ATOM     10  C   UNL     1      34.013  -9.819 -23.833  0.00  0.00    +0.048 C 
ATOM     11  C   UNL     1      32.200  -8.530 -22.894  0.00  0.00    +0.013 C 
ATOM     12  C   UNL     1      34.719  -8.660 -24.176  0.00  0.00    +0.015 C 
ATOM     13  C   UNL     1      32.895  -7.364 -23.232  0.00  0.00    +0.058 C 
ATOM     14  C   UNL     1      34.135  -7.430 -23.863  0.00  0.00    +0.013 C 
ATOM     15  H   UNL     1      35.163 -11.470 -24.440  0.00  0.00    +0.152 HD
ENDBRANCH   3   7
BRANCH   2  16
ATOM     16  C   UNL     1      33.471 -15.506 -22.205  0.00  0.00    +0.097 C 
BRANCH  16  17
ATOM     17  C   UNL     1      34.858 -15.972 -21.745  0.00  0.00    +0.079 C 
BRANCH  17  18
ATOM     18  O   UNL     1      34.937 -15.787 -20.330  0.00  0.00    -0.403 OA
ATOM     19  H   UNL     1      35.408 -16.536 -19.930  0.00  0.00    +0.208 HD
ENDBRANCH  17  18
BRANCH  17  20
ATOM     20  N   UNL     1      35.131 -17.355 -22.180  0.00  0.00    +0.409 N 
ATOM     21  H   UNL     1      36.104 -17.357 -22.485  0.00  0.00    -0.076 HD
BRANCH  20  22
ATOM     22  C   UNL     1      35.022 -18.329 -21.109  0.00  0.00    -0.054 C 
ATOM     23  C   UNL     1      36.196 -19.300 -21.072  0.00  0.00    -0.021 C 
ATOM     24  C   UNL     1      33.831 -19.264 -21.281  0.00  0.00    -0.021 C 
ATOM     25  C   UNL     1      34.155 -20.434 -20.355  0.00  0.00    -0.002 C 
ATOM     26  C   UNL     1      35.680 -20.458 -20.221  0.00  0.00    -0.002 C 
ENDBRANCH  20  22
BRANCH  20  27
ATOM     27  C   UNL     1      34.281 -17.744 -23.305  0.00  0.00    -0.041 C 
BRANCH  27  28
ATOM     28  C   UNL     1      35.031 -17.601 -24.620  0.00  0.00    +0.115 C 
BRANCH  28  29
ATOM     29  O   UNL     1      34.293 -16.740 -25.477  0.00  0.00    -0.384 OA
ATOM     30  H   UNL     1      34.401 -15.822 -25.184  0.00  0.00    +0.210 HD
ENDBRANCH  28  29
ENDBRANCH  27  28
ENDBRANCH  20  27
ENDBRANCH  17  20
ENDBRANCH  16  17
ENDBRANCH   2  16
TORSDOF 9
ENDMDL
MODEL 5
REMARK VINA RESULT:      -9.2      2.617      4.771
REMARK  Name = 46936633
REMARK  9 active torsions:
REMARK  status: ('A' for Active; 'I' for Inactive)
REMARK    1  A    between atoms: N_2  and  C_16
REMARK    2  A    between atoms: C_3  and  C_7
REMARK    3  A    between atoms: C_16  and  C_17
REMARK    4  A    between atoms: C_17  and  O_18
REMARK    5  A    between atoms: C_17  and  N_20
REMARK    6  A    between atoms: N_20  and  C_22
REMARK    7  A    between atoms: N_20  and  C_27
REMARK    8  A    between atoms: C_27  and  C_28
REMARK    9  A    between atoms: C_28  and  O_29
REMARK                            x       y       z     vdW  Elec       q    Type
REMARK                         _______ _______ _______ _____ _____    ______ ____
ROOT
ATOM      1  O   UNL     1      33.344 -13.304 -25.637  0.00  0.00    -0.269 OA
ATOM      2  N   UNL     1      33.517 -12.363 -23.525  0.00  0.00    -0.300 N 
ATOM      3  C   UNL     1      33.606 -13.401 -24.442  0.00  0.00    +0.259 C 
ATOM      4  H   UNL     1      33.749 -12.540 -22.585  0.00  0.00    +0.150 HD
ENDROOT
BRANCH   3   7
ATOM      5 CL   UNL     1      35.904 -19.724 -20.647  0.00  0.00    -0.082 Cl
ATOM      6  N   UNL     1      34.099 -15.862 -24.642  0.00  0.00    -0.309 N 
ATOM      7  C   UNL     1      34.025 -14.717 -23.895  0.00  0.00    +0.102 C 
ATOM      8  C   UNL     1      34.402 -15.026 -22.608  0.00  0.00    +0.020 C 
ATOM      9  C   UNL     1      34.716 -16.413 -22.570  0.00  0.00    +0.016 C 
ATOM     10  C   UNL     1      34.518 -16.914 -23.859  0.00  0.00    +0.048 C 
ATOM     11  C   UNL     1      35.152 -17.295 -21.560  0.00  0.00    +0.013 C 
ATOM     12  C   UNL     1      34.735 -18.256 -24.189  0.00  0.00    +0.015 C 
ATOM     13  C   UNL     1      35.372 -18.640 -21.876  0.00  0.00    +0.058 C 
ATOM     14  C   UNL     1      35.166 -19.111 -23.171  0.00  0.00    +0.013 C 
ATOM     15  H   UNL     1      33.883 -15.924 -25.601  0.00  0.00    +0.152 HD
ENDBRANCH   3   7
BRANCH   2  16
ATOM     16  C   UNL     1      33.100 -11.033 -23.897  0.00  0.00    +0.097 C 
BRANCH  16  17
ATOM     17  C   UNL     1      32.297 -10.358 -22.778  0.00  0.00    +0.079 C 
BRANCH  17  18
ATOM     18  O   UNL     1      32.264 -11.251 -21.661  0.00  0.00    -0.403 OA
ATOM     19  H   UNL     1      32.184 -12.165 -21.979  0.00  0.00    +0.208 HD
ENDBRANCH  17  18
BRANCH  17  20
ATOM     20  N   UNL     1      32.840  -9.024 -22.458  0.00  0.00    +0.409 N 
ATOM     21  H   UNL     1      33.708  -9.199 -21.952  0.00  0.00    -0.076 HD
BRANCH  20  22
ATOM     22  C   UNL     1      33.185  -8.246 -23.634  0.00  0.00    -0.054 C 
ATOM     23  C   UNL     1      34.605  -7.695 -23.580  0.00  0.00    -0.021 C 
ATOM     24  C   UNL     1      32.349  -6.979 -23.768  0.00  0.00    -0.021 C 
ATOM     25  C   UNL     1      33.146  -6.124 -24.751  0.00  0.00    -0.002 C 
ATOM     26  C   UNL     1      34.601  -6.585 -24.628  0.00  0.00    -0.002 C 
ENDBRANCH  20  22
BRANCH  20  27
ATOM     27  C   UNL     1      31.933  -8.266 -21.597  0.00  0.00    -0.041 C 
BRANCH  27  28
ATOM     28  C   UNL     1      32.602  -7.931 -20.274  0.00  0.00    +0.115 C 
BRANCH  28  29
ATOM     29  O   UNL     1      32.631  -9.100 -19.466  0.00  0.00    -0.384 OA
ATOM     30  H   UNL     1      32.426  -8.865 -18.549  0.00  0.00    +0.210 HD
ENDBRANCH  28  29
ENDBRANCH  27  28
ENDBRANCH  20  27
ENDBRANCH  17  20
ENDBRANCH  16  17
ENDBRANCH   2  16
TORSDOF 9
ENDMDL
MODEL 6
REMARK VINA RESULT:      -9.2      6.577     11.611
REMARK  Name = 46936633
REMARK  9 active torsions:
REMARK  status: ('A' for Active; 'I' for Inactive)
REMARK    1  A    between atoms: N_2  and  C_16
REMARK    2  A    between atoms: C_3  and  C_7
REMARK    3  A    between atoms: C_16  and  C_17
REMARK    4  A    between atoms: C_17  and  O_18
REMARK    5  A    between atoms: C_17  and  N_20
REMARK    6  A    between atoms: N_20  and  C_22
REMARK    7  A    between atoms: N_20  and  C_27
REMARK    8  A    between atoms: C_27  and  C_28
REMARK    9  A    between atoms: C_28  and  O_29
REMARK                            x       y       z     vdW  Elec       q    Type
REMARK                         _______ _______ _______ _____ _____    ______ ____
ROOT
ATOM      1  O   UNL     1      33.432 -24.204 -18.525  0.00  0.00    -0.269 OA
ATOM      2  N   UNL     1      34.100 -22.978 -16.673  0.00  0.00    -0.300 N 
ATOM      3  C   UNL     1      33.891 -23.178 -18.031  0.00  0.00    +0.259 C 
ATOM      4  H   UNL     1      34.473 -22.118 -16.373  0.00  0.00    +0.150 HD
ENDROOT
BRANCH   3   7
ATOM      5 CL   UNL     1      34.883 -17.248 -22.879  0.00  0.00    -0.082 Cl
ATOM      6  N   UNL     1      35.581 -21.654 -19.107  0.00  0.00    -0.309 N 
ATOM      7  C   UNL     1      34.286 -22.057 -18.922  0.00  0.00    +0.102 C 
ATOM      8  C   UNL     1      33.478 -21.252 -19.692  0.00  0.00    +0.020 C 
ATOM      9  C   UNL     1      34.313 -20.323 -20.371  0.00  0.00    +0.016 C 
ATOM     10  C   UNL     1      35.628 -20.596 -19.987  0.00  0.00    +0.048 C 
ATOM     11  C   UNL     1      34.078 -19.271 -21.279  0.00  0.00    +0.013 C 
ATOM     12  C   UNL     1      36.722 -19.868 -20.468  0.00  0.00    +0.015 C 
ATOM     13  C   UNL     1      35.162 -18.535 -21.768  0.00  0.00    +0.058 C 
ATOM     14  C   UNL     1      36.464 -18.830 -21.368  0.00  0.00    +0.013 C 
ATOM     15  H   UNL     1      36.366 -22.062 -18.673  0.00  0.00    +0.152 HD
ENDBRANCH   3   7
BRANCH   2  16
ATOM     16  C   UNL     1      33.790 -23.982 -15.685  0.00  0.00    +0.097 C 
BRANCH  16  17
ATOM     17  C   UNL     1      35.047 -24.454 -14.945  0.00  0.00    +0.079 C 
BRANCH  17  18
ATOM     18  O   UNL     1      35.808 -25.265 -15.844  0.00  0.00    -0.403 OA
ATOM     19  H   UNL     1      36.533 -24.741 -16.219  0.00  0.00    +0.208 HD
ENDBRANCH  17  18
BRANCH  17  20
ATOM     20  N   UNL     1      35.802 -23.315 -14.387  0.00  0.00    +0.409 N 
ATOM     21  H   UNL     1      35.330 -22.481 -14.735  0.00  0.00    -0.076 HD
BRANCH  20  22
ATOM     22  C   UNL     1      35.760 -23.251 -12.938  0.00  0.00    -0.054 C 
ATOM     23  C   UNL     1      37.145 -23.147 -12.311  0.00  0.00    -0.021 C 
ATOM     24  C   UNL     1      35.211 -24.525 -12.306  0.00  0.00    -0.021 C 
ATOM     25  C   UNL     1      35.666 -24.431 -10.852  0.00  0.00    -0.002 C 
ATOM     26  C   UNL     1      36.914 -23.543 -10.856  0.00  0.00    -0.002 C 
ENDBRANCH  20  22
BRANCH  20  27
ATOM     27  C   UNL     1      37.187 -23.306 -14.855  0.00  0.00    -0.041 C 
BRANCH  27  28
ATOM     28  C   UNL     1      37.401 -22.206 -15.883  0.00  0.00    +0.115 C 
BRANCH  28  29
ATOM     29  O   UNL     1      37.285 -22.767 -17.184  0.00  0.00    -0.384 OA
ATOM     30  H   UNL     1      36.743 -23.569 -17.143  0.00  0.00    +0.210 HD
ENDBRANCH  28  29
ENDBRANCH  27  28
ENDBRANCH  20  27
ENDBRANCH  17  20
ENDBRANCH  16  17
ENDBRANCH   2  16
TORSDOF 9
ENDMDL
MODEL 7
REMARK VINA RESULT:      -9.1      6.312     11.644
REMARK  Name = 46936633
REMARK  9 active torsions:
REMARK  status: ('A' for Active; 'I' for Inactive)
REMARK    1  A    between atoms: N_2  and  C_16
REMARK    2  A    between atoms: C_3  and  C_7
REMARK    3  A    between atoms: C_16  and  C_17
REMARK    4  A    between atoms: C_17  and  O_18
REMARK    5  A    between atoms: C_17  and  N_20
REMARK    6  A    between atoms: N_20  and  C_22
REMARK    7  A    between atoms: N_20  and  C_27
REMARK    8  A    between atoms: C_27  and  C_28
REMARK    9  A    between atoms: C_28  and  O_29
REMARK                            x       y       z     vdW  Elec       q    Type
REMARK                         _______ _______ _______ _____ _____    ______ ____
ROOT
ATOM      1  O   UNL     1      33.822 -23.880 -19.164  0.00  0.00    -0.269 OA
ATOM      2  N   UNL     1      34.495 -22.727 -17.267  0.00  0.00    -0.300 N 
ATOM      3  C   UNL     1      34.215 -22.851 -18.621  0.00  0.00    +0.259 C 
ATOM      4  H   UNL     1      34.806 -21.858 -16.926  0.00  0.00    +0.150 HD
ENDROOT
BRANCH   3   7
ATOM      5 CL   UNL     1      34.315 -16.459 -22.955  0.00  0.00    -0.082 Cl
ATOM      6  N   UNL     1      35.685 -21.168 -19.781  0.00  0.00    -0.309 N 
ATOM      7  C   UNL     1      34.443 -21.637 -19.446  0.00  0.00    +0.102 C 
ATOM      8  C   UNL     1      33.508 -20.796 -20.005  0.00  0.00    +0.020 C 
ATOM      9  C   UNL     1      34.208 -19.775 -20.706  0.00  0.00    +0.016 C 
ATOM     10  C   UNL     1      35.572 -20.031 -20.550  0.00  0.00    +0.048 C 
ATOM     11  C   UNL     1      33.812 -18.653 -21.461  0.00  0.00    +0.013 C 
ATOM     12  C   UNL     1      36.562 -19.219 -21.113  0.00  0.00    +0.015 C 
ATOM     13  C   UNL     1      34.791 -17.832 -22.031  0.00  0.00    +0.058 C 
ATOM     14  C   UNL     1      36.145 -18.112 -21.858  0.00  0.00    +0.013 C 
ATOM     15  H   UNL     1      36.536 -21.583 -19.510  0.00  0.00    +0.152 HD
ENDBRANCH   3   7
BRANCH   2  16
ATOM     16  C   UNL     1      34.348 -23.823 -16.341  0.00  0.00    +0.097 C 
BRANCH  16  17
ATOM     17  C   UNL     1      34.881 -23.463 -14.949  0.00  0.00    +0.079 C 
BRANCH  17  18
ATOM     18  O   UNL     1      35.461 -22.158 -15.025  0.00  0.00    -0.403 OA
ATOM     19  H   UNL     1      36.297 -22.146 -14.531  0.00  0.00    +0.208 HD
ENDBRANCH  17  18
BRANCH  17  20
ATOM     20  N   UNL     1      33.829 -23.588 -13.923  0.00  0.00    +0.409 N 
ATOM     21  H   UNL     1      33.772 -22.672 -13.479  0.00  0.00    -0.076 HD
BRANCH  20  22
ATOM     22  C   UNL     1      32.516 -23.873 -14.475  0.00  0.00    -0.054 C 
ATOM     23  C   UNL     1      31.551 -22.701 -14.336  0.00  0.00    -0.021 C 
ATOM     24  C   UNL     1      31.790 -24.983 -13.725  0.00  0.00    -0.021 C 
ATOM     25  C   UNL     1      30.333 -24.810 -14.148  0.00  0.00    -0.002 C 
ATOM     26  C   UNL     1      30.179 -23.338 -14.540  0.00  0.00    -0.002 C 
ENDBRANCH  20  22
BRANCH  20  27
ATOM     27  C   UNL     1      34.179 -24.585 -12.911  0.00  0.00    -0.041 C 
BRANCH  27  28
ATOM     28  C   UNL     1      35.266 -24.055 -11.989  0.00  0.00    +0.115 C 
BRANCH  28  29
ATOM     29  O   UNL     1      35.389 -24.931 -10.876  0.00  0.00    -0.384 OA
ATOM     30  H   UNL     1      35.928 -25.697 -11.125  0.00  0.00    +0.210 HD
ENDBRANCH  28  29
ENDBRANCH  27  28
ENDBRANCH  20  27
ENDBRANCH  17  20
ENDBRANCH  16  17
ENDBRANCH   2  16
TORSDOF 9
ENDMDL
MODEL 8
REMARK VINA RESULT:      -9.1      3.615      8.906
REMARK  Name = 46936633
REMARK  9 active torsions:
REMARK  status: ('A' for Active; 'I' for Inactive)
REMARK    1  A    between atoms: N_2  and  C_16
REMARK    2  A    between atoms: C_3  and  C_7
REMARK    3  A    between atoms: C_16  and  C_17
REMARK    4  A    between atoms: C_17  and  O_18
REMARK    5  A    between atoms: C_17  and  N_20
REMARK    6  A    between atoms: N_20  and  C_22
REMARK    7  A    between atoms: N_20  and  C_27
REMARK    8  A    between atoms: C_27  and  C_28
REMARK    9  A    between atoms: C_28  and  O_29
REMARK                            x       y       z     vdW  Elec       q    Type
REMARK                         _______ _______ _______ _____ _____    ______ ____
ROOT
ATOM      1  O   UNL     1      33.277 -13.880 -26.089  0.00  0.00    -0.269 OA
ATOM      2  N   UNL     1      33.713 -14.694 -23.963  0.00  0.00    -0.300 N 
ATOM      3  C   UNL     1      33.476 -13.691 -24.892  0.00  0.00    +0.259 C 
ATOM      4  H   UNL     1      33.862 -14.443 -23.022  0.00  0.00    +0.150 HD
ENDROOT
BRANCH   3   7
ATOM      5 CL   UNL     1      32.708  -6.753 -21.588  0.00  0.00    -0.082 Cl
ATOM      6  N   UNL     1      34.417 -11.362 -24.745  0.00  0.00    -0.309 N 
ATOM      7  C   UNL     1      33.496 -12.301 -24.369  0.00  0.00    +0.102 C 
ATOM      8  C   UNL     1      32.643 -11.719 -23.460  0.00  0.00    +0.020 C 
ATOM      9  C   UNL     1      33.063 -10.372 -23.274  0.00  0.00    +0.016 C 
ATOM     10  C   UNL     1      34.178 -10.174 -24.092  0.00  0.00    +0.048 C 
ATOM     11  C   UNL     1      32.600  -9.298 -22.487  0.00  0.00    +0.013 C 
ATOM     12  C   UNL     1      34.855  -8.951 -24.161  0.00  0.00    +0.015 C 
ATOM     13  C   UNL     1      33.267  -8.070 -22.547  0.00  0.00    +0.058 C 
ATOM     14  C   UNL     1      34.377  -7.901 -23.372  0.00  0.00    +0.013 C 
ATOM     15  H   UNL     1      35.147 -11.513 -25.388  0.00  0.00    +0.152 HD
ENDBRANCH   3   7
BRANCH   2  16
ATOM     16  C   UNL     1      33.751 -16.091 -24.320  0.00  0.00    +0.097 C 
BRANCH  16  17
ATOM     17  C   UNL     1      34.787 -16.860 -23.492  0.00  0.00    +0.079 C 
BRANCH  17  18
ATOM     18  O   UNL     1      35.972 -16.063 -23.421  0.00  0.00    -0.403 OA
ATOM     19  H   UNL     1      36.087 -15.733 -22.515  0.00  0.00    +0.208 HD
ENDBRANCH  17  18
BRANCH  17  20
ATOM     20  N   UNL     1      34.245 -17.240 -22.173  0.00  0.00    +0.409 N 
ATOM     21  H   UNL     1      33.242 -17.065 -22.232  0.00  0.00    -0.076 HD
BRANCH  20  22
ATOM     22  C   UNL     1      34.411 -18.649 -21.866  0.00  0.00    -0.054 C 
ATOM     23  C   UNL     1      33.340 -19.177 -20.920  0.00  0.00    -0.021 C 
ATOM     24  C   UNL     1      35.695 -18.937 -21.097  0.00  0.00    -0.021 C 
ATOM     25  C   UNL     1      35.456 -20.323 -20.504  0.00  0.00    -0.002 C 
ATOM     26  C   UNL     1      33.937 -20.477 -20.389  0.00  0.00    -0.002 C 
ENDBRANCH  20  22
BRANCH  20  27
ATOM     27  C   UNL     1      34.808 -16.418 -21.102  0.00  0.00    -0.041 C 
BRANCH  27  28
ATOM     28  C   UNL     1      33.747 -15.504 -20.511  0.00  0.00    +0.115 C 
BRANCH  28  29
ATOM     29  O   UNL     1      33.848 -14.227 -21.128  0.00  0.00    -0.384 OA
ATOM     30  H   UNL     1      33.126 -14.118 -21.766  0.00  0.00    +0.210 HD
ENDBRANCH  28  29
ENDBRANCH  27  28
ENDBRANCH  20  27
ENDBRANCH  17  20
ENDBRANCH  16  17
ENDBRANCH   2  16
TORSDOF 9
ENDMDL
MODEL 9
REMARK VINA RESULT:      -8.9      3.021      4.874
REMARK  Name = 46936633
REMARK  9 active torsions:
REMARK  status: ('A' for Active; 'I' for Inactive)
REMARK    1  A    between atoms: N_2  and  C_16
REMARK    2  A    between atoms: C_3  and  C_7
REMARK    3  A    between atoms: C_16  and  C_17
REMARK    4  A    between atoms: C_17  and  O_18
REMARK    5  A    between atoms: C_17  and  N_20
REMARK    6  A    between atoms: N_20  and  C_22
REMARK    7  A    between atoms: N_20  and  C_27
REMARK    8  A    between atoms: C_27  and  C_28
REMARK    9  A    between atoms: C_28  and  O_29
REMARK                            x       y       z     vdW  Elec       q    Type
REMARK                         _______ _______ _______ _____ _____    ______ ____
ROOT
ATOM      1  O   UNL     1      32.517 -13.622 -25.355  0.00  0.00    -0.269 OA
ATOM      2  N   UNL     1      34.129 -12.440 -24.179  0.00  0.00    -0.300 N 
ATOM      3  C   UNL     1      33.470 -13.594 -24.580  0.00  0.00    +0.259 C 
ATOM      4  H   UNL     1      34.884 -12.520 -23.552  0.00  0.00    +0.150 HD
ENDROOT
BRANCH   3   7
ATOM      5 CL   UNL     1      36.169 -19.629 -20.587  0.00  0.00    -0.082 Cl
ATOM      6  N   UNL     1      34.053 -16.040 -24.683  0.00  0.00    -0.309 N 
ATOM      7  C   UNL     1      33.963 -14.864 -23.989  0.00  0.00    +0.102 C 
ATOM      8  C   UNL     1      34.403 -15.094 -22.705  0.00  0.00    +0.020 C 
ATOM      9  C   UNL     1      34.773 -16.465 -22.614  0.00  0.00    +0.016 C 
ATOM     10  C   UNL     1      34.545 -17.036 -23.868  0.00  0.00    +0.048 C 
ATOM     11  C   UNL     1      35.284 -17.278 -21.583  0.00  0.00    +0.013 C 
ATOM     12  C   UNL     1      34.802 -18.384 -24.142  0.00  0.00    +0.015 C 
ATOM     13  C   UNL     1      35.545 -18.627 -21.843  0.00  0.00    +0.058 C 
ATOM     14  C   UNL     1      35.308 -19.170 -23.104  0.00  0.00    +0.013 C 
ATOM     15  H   UNL     1      33.802 -16.158 -25.628  0.00  0.00    +0.152 HD
ENDBRANCH   3   7
BRANCH   2  16
ATOM     16  C   UNL     1      33.751 -11.129 -24.644  0.00  0.00    +0.097 C 
BRANCH  16  17
ATOM     17  C   UNL     1      33.625 -10.131 -23.486  0.00  0.00    +0.079 C 
BRANCH  17  18
ATOM     18  O   UNL     1      34.684  -9.179 -23.609  0.00  0.00    -0.403 OA
ATOM     19  H   UNL     1      34.317  -8.317 -23.862  0.00  0.00    +0.208 HD
ENDBRANCH  17  18
BRANCH  17  20
ATOM     20  N   UNL     1      32.281  -9.525 -23.444  0.00  0.00    +0.409 N 
ATOM     21  H   UNL     1      31.755  -9.979 -24.191  0.00  0.00    -0.076 HD
BRANCH  20  22
ATOM     22  C   UNL     1      31.568  -9.787 -22.207  0.00  0.00    -0.054 C 
ATOM     23  C   UNL     1      32.252  -9.173 -20.991  0.00  0.00    -0.021 C 
ATOM     24  C   UNL     1      31.536 -11.268 -21.848  0.00  0.00    -0.021 C 
ATOM     25  C   UNL     1      31.170 -11.272 -20.366  0.00  0.00    -0.002 C 
ATOM     26  C   UNL     1      31.633  -9.921 -19.813  0.00  0.00    -0.002 C 
ENDBRANCH  20  22
BRANCH  20  27
ATOM     27  C   UNL     1      32.330  -8.087 -23.705  0.00  0.00    -0.041 C 
BRANCH  27  28
ATOM     28  C   UNL     1      30.937  -7.540 -23.973  0.00  0.00    +0.115 C 
BRANCH  28  29
ATOM     29  O   UNL     1      31.041  -6.161 -24.299  0.00  0.00    -0.384 OA
ATOM     30  H   UNL     1      31.666  -5.732 -23.695  0.00  0.00    +0.210 HD
ENDBRANCH  28  29
ENDBRANCH  27  28
ENDBRANCH  20  27
ENDBRANCH  17  20
ENDBRANCH  16  17
ENDBRANCH   2  16
TORSDOF 9
ENDMDL
