MODEL 1
REMARK VINA RESULT:     -11.0      0.000      0.000
REMARK  Name = 3354
REMARK  6 active torsions:
REMARK  status: ('A' for Active; 'I' for Inactive)
REMARK    1  A    between atoms: C_3  and  C_20
REMARK    2  A    between atoms: C_7  and  C_13
REMARK    3  A    between atoms: C_20  and  O_21
REMARK    4  A    between atoms: O_21  and  C_22
REMARK    5  A    between atoms: C_22  and  C_23
REMARK    6  A    between atoms: C_23  and  N_24
REMARK                            x       y       z     vdW  Elec       q    Type
REMARK                         _______ _______ _______ _____ _____    ______ ____
ROOT
ATOM      1  O   UNL     1      34.145 -16.802 -22.105  0.00  0.00    -0.453 OA
ATOM      2  O   UNL     1      34.538 -17.312 -26.124  0.00  0.00    -0.287 OA
ATOM      3  C   UNL     1      33.584 -14.528 -22.383  0.00  0.00    +0.110 C 
ATOM      4  C   UNL     1      33.933 -15.751 -22.956  0.00  0.00    +0.154 A 
ATOM      5  C   UNL     1      34.053 -15.867 -24.337  0.00  0.00    +0.073 A 
ATOM      6  C   UNL     1      34.642 -18.291 -23.957  0.00  0.00    +0.052 A 
ATOM      7  C   UNL     1      34.497 -18.029 -22.642  0.00  0.00    +0.144 A 
ATOM      8  C   UNL     1      34.421 -17.168 -24.914  0.00  0.00    +0.197 A 
ATOM      9  C   UNL     1      33.356 -13.420 -23.200  0.00  0.00    +0.010 C 
ATOM     10  C   UNL     1      33.826 -14.758 -25.158  0.00  0.00    +0.006 C 
ATOM     11  C   UNL     1      33.476 -13.535 -24.584  0.00  0.00    +0.001 C 
ATOM     12  C   UNL     1      34.999 -19.612 -24.574  0.00  0.00    +0.038 C 
ENDROOT
BRANCH   7  13
ATOM     13  C   UNL     1      34.694 -19.049 -21.603  0.00  0.00    +0.034 C 
ATOM     14  C   UNL     1      33.597 -19.737 -21.084  0.00  0.00    +0.003 C 
ATOM     15  C   UNL     1      35.978 -19.332 -21.137  0.00  0.00    +0.003 C 
ATOM     16  C   UNL     1      33.783 -20.706 -20.099  0.00  0.00    +0.000 C 
ATOM     17  C   UNL     1      36.165 -20.302 -20.151  0.00  0.00    +0.000 C 
ATOM     18  C   UNL     1      35.067 -20.989 -19.632  0.00  0.00    +0.000 C 
ENDBRANCH   7  13
BRANCH   3  20
ATOM     19  O   UNL     1      34.337 -14.656 -20.125  0.00  0.00    -0.245 OA
ATOM     20  C   UNL     1      33.451 -14.376 -20.940  0.00  0.00    +0.344 C 
BRANCH  20  21
ATOM     21  O   UNL     1      32.222 -13.882 -20.601  0.00  0.00    -0.448 OA
BRANCH  21  22
ATOM     22  C   UNL     1      32.197 -12.600 -19.963  0.00  0.00    +0.186 C 
BRANCH  22  23
ATOM     23  C   UNL     1      31.251 -11.691 -20.731  0.00  0.00    -0.029 C 
BRANCH  23  24
ATOM     24  N   UNL     1      31.948 -10.488 -21.188  0.00  0.00    +0.389 N 
ATOM     25  C   UNL     1      31.419 -10.050 -22.487  0.00  0.00    -0.077 C 
ATOM     26  C   UNL     1      31.841  -9.420 -20.184  0.00  0.00    -0.077 C 
ATOM     27  C   UNL     1      32.170  -8.822 -23.003  0.00  0.00    -0.023 C 
ATOM     28  C   UNL     1      32.607  -8.170 -20.624  0.00  0.00    -0.023 C 
ATOM     29  C   UNL     1      32.133  -7.684 -21.989  0.00  0.00    -0.004 C 
ATOM     30  H   UNL     1      32.936 -10.709 -21.308  0.00  0.00    -0.080 HD
ENDBRANCH  23  24
ENDBRANCH  22  23
ENDBRANCH  21  22
ENDBRANCH  20  21
ENDBRANCH   3  20
TORSDOF 6
ENDMDL
MODEL 2
REMARK VINA RESULT:     -10.8      5.456      9.659
REMARK  Name = 3354
REMARK  6 active torsions:
REMARK  status: ('A' for Active; 'I' for Inactive)
REMARK    1  A    between atoms: C_3  and  C_20
REMARK    2  A    between atoms: C_7  and  C_13
REMARK    3  A    between atoms: C_20  and  O_21
REMARK    4  A    between atoms: O_21  and  C_22
REMARK    5  A    between atoms: C_22  and  C_23
REMARK    6  A    between atoms: C_23  and  N_24
REMARK                            x       y       z     vdW  Elec       q    Type
REMARK                         _______ _______ _______ _____ _____    ______ ____
ROOT
ATOM      1  O   UNL     1      33.247 -23.108 -16.693  0.00  0.00    -0.453 OA
ATOM      2  O   UNL     1      35.990 -23.220 -13.687  0.00  0.00    -0.287 OA
ATOM      3  C   UNL     1      34.847 -22.260 -18.207  0.00  0.00    +0.110 C 
ATOM      4  C   UNL     1      34.535 -22.703 -16.921  0.00  0.00    +0.154 A 
ATOM      5  C   UNL     1      35.514 -22.719 -15.932  0.00  0.00    +0.073 A 
ATOM      6  C   UNL     1      33.747 -23.626 -14.375  0.00  0.00    +0.052 A 
ATOM      7  C   UNL     1      32.906 -23.548 -15.426  0.00  0.00    +0.144 A 
ATOM      8  C   UNL     1      35.159 -23.191 -14.585  0.00  0.00    +0.197 A 
ATOM      9  C   UNL     1      36.142 -21.835 -18.499  0.00  0.00    +0.010 C 
ATOM     10  C   UNL     1      36.813 -22.292 -16.222  0.00  0.00    +0.006 C 
ATOM     11  C   UNL     1      37.124 -21.851 -17.508  0.00  0.00    +0.001 C 
ATOM     12  C   UNL     1      33.417 -24.120 -12.996  0.00  0.00    +0.038 C 
ENDROOT
BRANCH   7  13
ATOM     13  C   UNL     1      31.493 -23.941 -15.341  0.00  0.00    +0.034 C 
ATOM     14  C   UNL     1      30.508 -23.130 -15.909  0.00  0.00    +0.003 C 
ATOM     15  C   UNL     1      31.134 -25.124 -14.696  0.00  0.00    +0.003 C 
ATOM     16  C   UNL     1      29.167 -23.503 -15.830  0.00  0.00    +0.000 C 
ATOM     17  C   UNL     1      29.791 -25.497 -14.617  0.00  0.00    +0.000 C 
ATOM     18  C   UNL     1      28.808 -24.686 -15.184  0.00  0.00    +0.000 C 
ENDBRANCH   7  13
BRANCH   3  20
ATOM     19  O   UNL     1      33.626 -23.165 -20.044  0.00  0.00    -0.245 OA
ATOM     20  C   UNL     1      33.843 -22.232 -19.263  0.00  0.00    +0.344 C 
BRANCH  20  21
ATOM     21  O   UNL     1      33.169 -21.042 -19.279  0.00  0.00    -0.448 OA
BRANCH  21  22
ATOM     22  C   UNL     1      33.082 -20.369 -20.540  0.00  0.00    +0.186 C 
BRANCH  22  23
ATOM     23  C   UNL     1      34.428 -19.734 -20.848  0.00  0.00    -0.029 C 
BRANCH  23  24
ATOM     24  N   UNL     1      34.275 -18.637 -21.804  0.00  0.00    +0.389 N 
ATOM     25  C   UNL     1      34.794 -17.384 -21.237  0.00  0.00    -0.077 C 
ATOM     26  C   UNL     1      34.944 -18.963 -23.071  0.00  0.00    -0.077 C 
ATOM     27  C   UNL     1      34.596 -16.217 -22.205  0.00  0.00    -0.023 C 
ATOM     28  C   UNL     1      34.752 -17.848 -24.101  0.00  0.00    -0.023 C 
ATOM     29  C   UNL     1      35.234 -16.506 -23.559  0.00  0.00    -0.004 C 
ATOM     30  H   UNL     1      33.282 -18.509 -21.998  0.00  0.00    -0.080 HD
ENDBRANCH  23  24
ENDBRANCH  22  23
ENDBRANCH  21  22
ENDBRANCH  20  21
ENDBRANCH   3  20
TORSDOF 6
ENDMDL
MODEL 3
REMARK VINA RESULT:     -10.7      2.859      9.863
REMARK  Name = 3354
REMARK  6 active torsions:
REMARK  status: ('A' for Active; 'I' for Inactive)
REMARK    1  A    between atoms: C_3  and  C_20
REMARK    2  A    between atoms: C_7  and  C_13
REMARK    3  A    between atoms: C_20  and  O_21
REMARK    4  A    between atoms: O_21  and  C_22
REMARK    5  A    between atoms: C_22  and  C_23
REMARK    6  A    between atoms: C_23  and  N_24
REMARK                            x       y       z     vdW  Elec       q    Type
REMARK                         _______ _______ _______ _____ _____    ______ ____
ROOT
ATOM      1  O   UNL     1      32.716  -9.384 -22.896  0.00  0.00    -0.453 OA
ATOM      2  O   UNL     1      31.595  -8.130 -19.189  0.00  0.00    -0.287 OA
ATOM      3  C   UNL     1      32.450 -11.646 -22.281  0.00  0.00    +0.110 C 
ATOM      4  C   UNL     1      32.384 -10.297 -21.932  0.00  0.00    +0.154 A 
ATOM      5  C   UNL     1      31.994  -9.927 -20.649  0.00  0.00    +0.073 A 
ATOM      6  C   UNL     1      32.299  -7.532 -21.383  0.00  0.00    +0.052 A 
ATOM      7  C   UNL     1      32.665  -8.037 -22.579  0.00  0.00    +0.144 A 
ATOM      8  C   UNL     1      31.932  -8.497 -20.307  0.00  0.00    +0.197 A 
ATOM      9  C   UNL     1      32.123 -12.623 -21.341  0.00  0.00    +0.010 C 
ATOM     10  C   UNL     1      31.667 -10.903 -19.704  0.00  0.00    +0.006 C 
ATOM     11  C   UNL     1      31.732 -12.252 -20.055  0.00  0.00    +0.001 C 
ATOM     12  C   UNL     1      32.210  -6.079 -21.013  0.00  0.00    +0.038 C 
ENDROOT
BRANCH   7  13
ATOM     13  C   UNL     1      33.055  -7.189 -23.713  0.00  0.00    +0.034 C 
ATOM     14  C   UNL     1      34.366  -7.220 -24.190  0.00  0.00    +0.003 C 
ATOM     15  C   UNL     1      32.114  -6.353 -24.316  0.00  0.00    +0.003 C 
ATOM     16  C   UNL     1      34.735  -6.416 -25.268  0.00  0.00    +0.000 C 
ATOM     17  C   UNL     1      32.484  -5.548 -25.394  0.00  0.00    +0.000 C 
ATOM     18  C   UNL     1      33.795  -5.579 -25.870  0.00  0.00    +0.000 C 
ENDBRANCH   7  13
BRANCH   3  20
ATOM     19  O   UNL     1      33.546 -11.383 -24.382  0.00  0.00    -0.245 OA
ATOM     20  C   UNL     1      32.855 -12.065 -23.617  0.00  0.00    +0.344 C 
BRANCH  20  21
ATOM     21  O   UNL     1      32.375 -13.309 -23.917  0.00  0.00    -0.448 OA
BRANCH  21  22
ATOM     22  C   UNL     1      33.249 -14.178 -24.646  0.00  0.00    +0.186 C 
BRANCH  22  23
ATOM     23  C   UNL     1      34.254 -14.783 -23.679  0.00  0.00    -0.029 C 
BRANCH  23  24
ATOM     24  N   UNL     1      34.140 -16.241 -23.661  0.00  0.00    +0.389 N 
ATOM     25  C   UNL     1      34.557 -16.805 -24.953  0.00  0.00    -0.077 C 
ATOM     26  C   UNL     1      34.930 -16.804 -22.557  0.00  0.00    -0.077 C 
ATOM     27  C   UNL     1      34.397 -18.326 -24.968  0.00  0.00    -0.023 C 
ATOM     28  C   UNL     1      34.782 -18.326 -22.493  0.00  0.00    -0.023 C 
ATOM     29  C   UNL     1      35.161 -18.975 -23.820  0.00  0.00    -0.004 C 
ATOM     30  H   UNL     1      33.163 -16.491 -23.508  0.00  0.00    -0.080 HD
ENDBRANCH  23  24
ENDBRANCH  22  23
ENDBRANCH  21  22
ENDBRANCH  20  21
ENDBRANCH   3  20
TORSDOF 6
ENDMDL
MODEL 4
REMARK VINA RESULT:     -10.2      6.179     10.637
REMARK  Name = 3354
REMARK  6 active torsions:
REMARK  status: ('A' for Active; 'I' for Inactive)
REMARK    1  A    between atoms: C_3  and  C_20
REMARK    2  A    between atoms: C_7  and  C_13
REMARK    3  A    between atoms: C_20  and  O_21
REMARK    4  A    between atoms: O_21  and  C_22
REMARK    5  A    between atoms: C_22  and  C_23
REMARK    6  A    between atoms: C_23  and  N_24
REMARK                            x       y       z     vdW  Elec       q    Type
REMARK                         _______ _______ _______ _____ _____    ______ ____
ROOT
ATOM      1  O   UNL     1      34.922 -23.942 -16.015  0.00  0.00    -0.453 OA
ATOM      2  O   UNL     1      32.558 -23.710 -12.710  0.00  0.00    -0.287 OA
ATOM      3  C   UNL     1      33.172 -23.175 -17.400  0.00  0.00    +0.110 C 
ATOM      4  C   UNL     1      33.625 -23.516 -16.125  0.00  0.00    +0.154 A 
ATOM      5  C   UNL     1      32.772 -23.417 -15.031  0.00  0.00    +0.073 A 
ATOM      6  C   UNL     1      34.694 -24.239 -13.617  0.00  0.00    +0.052 A 
ATOM      7  C   UNL     1      35.401 -24.291 -14.765  0.00  0.00    +0.144 A 
ATOM      8  C   UNL     1      33.277 -23.782 -13.698  0.00  0.00    +0.197 A 
ATOM      9  C   UNL     1      31.860 -22.734 -17.574  0.00  0.00    +0.010 C 
ATOM     10  C   UNL     1      31.457 -22.976 -15.203  0.00  0.00    +0.006 C 
ATOM     11  C   UNL     1      31.004 -22.635 -16.477  0.00  0.00    +0.001 C 
ATOM     12  C   UNL     1      35.188 -24.588 -12.243  0.00  0.00    +0.038 C 
ENDROOT
BRANCH   7  13
ATOM     13  C   UNL     1      36.802 -24.731 -14.814  0.00  0.00    +0.034 C 
ATOM     14  C   UNL     1      37.814 -23.806 -15.075  0.00  0.00    +0.003 C 
ATOM     15  C   UNL     1      37.122 -26.071 -14.599  0.00  0.00    +0.003 C 
ATOM     16  C   UNL     1      39.144 -24.223 -15.121  0.00  0.00    +0.000 C 
ATOM     17  C   UNL     1      38.453 -26.488 -14.646  0.00  0.00    +0.000 C 
ATOM     18  C   UNL     1      39.464 -25.564 -14.907  0.00  0.00    +0.000 C 
ENDBRANCH   7  13
BRANCH   3  20
ATOM     19  O   UNL     1      33.891 -24.078 -19.485  0.00  0.00    -0.245 OA
ATOM     20  C   UNL     1      34.042 -23.268 -18.564  0.00  0.00    +0.344 C 
BRANCH  20  21
ATOM     21  O   UNL     1      35.047 -22.342 -18.512  0.00  0.00    -0.448 OA
BRANCH  21  22
ATOM     22  C   UNL     1      35.679 -22.007 -19.753  0.00  0.00    +0.186 C 
BRANCH  22  23
ATOM     23  C   UNL     1      36.462 -20.717 -19.569  0.00  0.00    -0.029 C 
BRANCH  23  24
ATOM     24  N   UNL     1      35.800 -19.607 -20.254  0.00  0.00    +0.389 N 
ATOM     25  C   UNL     1      36.668 -19.062 -21.307  0.00  0.00    -0.077 C 
ATOM     26  C   UNL     1      34.508 -20.041 -20.803  0.00  0.00    -0.077 C 
ATOM     27  C   UNL     1      36.010 -17.869 -22.001  0.00  0.00    -0.023 C 
ATOM     28  C   UNL     1      33.778 -18.879 -21.481  0.00  0.00    -0.023 C 
ATOM     29  C   UNL     1      34.642 -18.239 -22.562  0.00  0.00    -0.004 C 
ATOM     30  H   UNL     1      35.621 -18.865 -19.578  0.00  0.00    -0.080 HD
ENDBRANCH  23  24
ENDBRANCH  22  23
ENDBRANCH  21  22
ENDBRANCH  20  21
ENDBRANCH   3  20
TORSDOF 6
ENDMDL
MODEL 5
REMARK VINA RESULT:      -9.9      2.713      8.537
REMARK  Name = 3354
REMARK  6 active torsions:
REMARK  status: ('A' for Active; 'I' for Inactive)
REMARK    1  A    between atoms: C_3  and  C_20
REMARK    2  A    between atoms: C_7  and  C_13
REMARK    3  A    between atoms: C_20  and  O_21
REMARK    4  A    between atoms: O_21  and  C_22
REMARK    5  A    between atoms: C_22  and  C_23
REMARK    6  A    between atoms: C_23  and  N_24
REMARK                            x       y       z     vdW  Elec       q    Type
REMARK                         _______ _______ _______ _____ _____    ______ ____
ROOT
ATOM      1  O   UNL     1      33.885 -13.562 -23.467  0.00  0.00    -0.453 OA
ATOM      2  O   UNL     1      31.409 -11.468 -21.007  0.00  0.00    -0.287 OA
ATOM      3  C   UNL     1      33.688 -15.494 -22.127  0.00  0.00    +0.110 C 
ATOM      4  C   UNL     1      33.348 -14.161 -22.359  0.00  0.00    +0.154 A 
ATOM      5  C   UNL     1      32.497 -13.495 -21.484  0.00  0.00    +0.073 A 
ATOM      6  C   UNL     1      32.756 -11.472 -22.970  0.00  0.00    +0.052 A 
ATOM      7  C   UNL     1      33.570 -12.239 -23.723  0.00  0.00    +0.144 A 
ATOM      8  C   UNL     1      32.154 -12.090 -21.753  0.00  0.00    +0.197 A 
ATOM      9  C   UNL     1      33.172 -16.158 -21.014  0.00  0.00    +0.010 C 
ATOM     10  C   UNL     1      31.979 -14.157 -20.367  0.00  0.00    +0.006 C 
ATOM     11  C   UNL     1      32.319 -15.490 -20.135  0.00  0.00    +0.001 C 
ATOM     12  C   UNL     1      32.374 -10.044 -23.231  0.00  0.00    +0.038 C 
ENDROOT
BRANCH   7  13
ATOM     13  C   UNL     1      34.226 -11.742 -24.940  0.00  0.00    +0.034 C 
ATOM     14  C   UNL     1      33.979 -12.358 -26.168  0.00  0.00    +0.003 C 
ATOM     15  C   UNL     1      35.096 -10.654 -24.870  0.00  0.00    +0.003 C 
ATOM     16  C   UNL     1      34.600 -11.886 -27.323  0.00  0.00    +0.000 C 
ATOM     17  C   UNL     1      35.718 -10.181 -26.027  0.00  0.00    +0.000 C 
ATOM     18  C   UNL     1      35.470 -10.798 -27.253  0.00  0.00    +0.000 C 
ENDBRANCH   7  13
BRANCH   3  20
ATOM     19  O   UNL     1      34.436 -16.272 -24.253  0.00  0.00    -0.245 OA
ATOM     20  C   UNL     1      34.577 -16.218 -23.026  0.00  0.00    +0.344 C 
BRANCH  20  21
ATOM     21  O   UNL     1      35.591 -16.830 -22.341  0.00  0.00    -0.448 OA
BRANCH  21  22
ATOM     22  C   UNL     1      35.770 -18.231 -22.573  0.00  0.00    +0.186 C 
BRANCH  22  23
ATOM     23  C   UNL     1      36.451 -18.844 -21.360  0.00  0.00    -0.029 C 
BRANCH  23  24
ATOM     24  N   UNL     1      35.475 -19.523 -20.508  0.00  0.00    +0.389 N 
ATOM     25  C   UNL     1      34.181 -19.635 -21.197  0.00  0.00    -0.077 C 
ATOM     26  C   UNL     1      35.977 -20.843 -20.103  0.00  0.00    -0.077 C 
ATOM     27  C   UNL     1      33.135 -20.299 -20.301  0.00  0.00    -0.023 C 
ATOM     28  C   UNL     1      34.990 -21.547 -19.170  0.00  0.00    -0.023 C 
ATOM     29  C   UNL     1      33.610 -21.662 -19.810  0.00  0.00    -0.004 C 
ATOM     30  H   UNL     1      35.335 -18.967 -19.664  0.00  0.00    -0.080 HD
ENDBRANCH  23  24
ENDBRANCH  22  23
ENDBRANCH  21  22
ENDBRANCH  20  21
ENDBRANCH   3  20
TORSDOF 6
ENDMDL
MODEL 6
REMARK VINA RESULT:      -9.8      2.710      8.365
REMARK  Name = 3354
REMARK  6 active torsions:
REMARK  status: ('A' for Active; 'I' for Inactive)
REMARK    1  A    between atoms: C_3  and  C_20
REMARK    2  A    between atoms: C_7  and  C_13
REMARK    3  A    between atoms: C_20  and  O_21
REMARK    4  A    between atoms: O_21  and  C_22
REMARK    5  A    between atoms: C_22  and  C_23
REMARK    6  A    between atoms: C_23  and  N_24
REMARK                            x       y       z     vdW  Elec       q    Type
REMARK                         _______ _______ _______ _____ _____    ______ ____
ROOT
ATOM      1  O   UNL     1      33.065 -11.122 -22.865  0.00  0.00    -0.453 OA
ATOM      2  O   UNL     1      32.623  -7.267 -21.638  0.00  0.00    -0.287 OA
ATOM      3  C   UNL     1      32.001 -11.931 -20.920  0.00  0.00    +0.110 C 
ATOM      4  C   UNL     1      32.453 -10.846 -21.672  0.00  0.00    +0.154 A 
ATOM      5  C   UNL     1      32.275  -9.549 -21.202  0.00  0.00    +0.073 A 
ATOM      6  C   UNL     1      33.419  -8.763 -23.309  0.00  0.00    +0.052 A 
ATOM      7  C   UNL     1      33.528 -10.068 -23.632  0.00  0.00    +0.144 A 
ATOM      8  C   UNL     1      32.759  -8.423 -22.015  0.00  0.00    +0.197 A 
ATOM      9  C   UNL     1      31.370 -11.712 -19.696  0.00  0.00    +0.010 C 
ATOM     10  C   UNL     1      31.643  -9.326 -19.975  0.00  0.00    +0.006 C 
ATOM     11  C   UNL     1      31.191 -10.412 -19.224  0.00  0.00    +0.001 C 
ATOM     12  C   UNL     1      33.887  -7.594 -24.128  0.00  0.00    +0.038 C 
ENDROOT
BRANCH   7  13
ATOM     13  C   UNL     1      34.162 -10.527 -24.875  0.00  0.00    +0.034 C 
ATOM     14  C   UNL     1      33.611 -11.594 -25.586  0.00  0.00    +0.003 C 
ATOM     15  C   UNL     1      35.314  -9.897 -25.346  0.00  0.00    +0.003 C 
ATOM     16  C   UNL     1      34.212 -12.030 -26.767  0.00  0.00    +0.000 C 
ATOM     17  C   UNL     1      35.916 -10.333 -26.527  0.00  0.00    +0.000 C 
ATOM     18  C   UNL     1      35.365 -11.400 -27.237  0.00  0.00    +0.000 C 
ENDBRANCH   7  13
BRANCH   3  20
ATOM     19  O   UNL     1      31.894 -13.691 -22.525  0.00  0.00    -0.245 OA
ATOM     20  C   UNL     1      32.174 -13.301 -21.386  0.00  0.00    +0.344 C 
BRANCH  20  21
ATOM     21  O   UNL     1      32.688 -14.102 -20.404  0.00  0.00    -0.448 OA
BRANCH  21  22
ATOM     22  C   UNL     1      33.032 -15.440 -20.779  0.00  0.00    +0.186 C 
BRANCH  22  23
ATOM     23  C   UNL     1      34.544 -15.592 -20.711  0.00  0.00    -0.029 C 
BRANCH  23  24
ATOM     24  N   UNL     1      35.010 -16.563 -21.700  0.00  0.00    +0.389 N 
ATOM     25  C   UNL     1      34.654 -17.928 -21.288  0.00  0.00    -0.077 C 
ATOM     26  C   UNL     1      34.461 -16.249 -23.027  0.00  0.00    -0.077 C 
ATOM     27  C   UNL     1      35.178 -18.960 -22.288  0.00  0.00    -0.023 C 
ATOM     28  C   UNL     1      34.978 -17.227 -24.084  0.00  0.00    -0.023 C 
ATOM     29  C   UNL     1      34.677 -18.671 -23.698  0.00  0.00    -0.004 C 
ATOM     30  H   UNL     1      36.027 -16.507 -21.760  0.00  0.00    -0.080 HD
ENDBRANCH  23  24
ENDBRANCH  22  23
ENDBRANCH  21  22
ENDBRANCH  20  21
ENDBRANCH   3  20
TORSDOF 6
ENDMDL
MODEL 7
REMARK VINA RESULT:      -9.7      2.724      9.214
REMARK  Name = 3354
REMARK  6 active torsions:
REMARK  status: ('A' for Active; 'I' for Inactive)
REMARK    1  A    between atoms: C_3  and  C_20
REMARK    2  A    between atoms: C_7  and  C_13
REMARK    3  A    between atoms: C_20  and  O_21
REMARK    4  A    between atoms: O_21  and  C_22
REMARK    5  A    between atoms: C_22  and  C_23
REMARK    6  A    between atoms: C_23  and  N_24
REMARK                            x       y       z     vdW  Elec       q    Type
REMARK                         _______ _______ _______ _____ _____    ______ ____
ROOT
ATOM      1  O   UNL     1      32.576 -10.602 -22.879  0.00  0.00    -0.453 OA
ATOM      2  O   UNL     1      31.504 -10.543 -18.953  0.00  0.00    -0.287 OA
ATOM      3  C   UNL     1      32.686 -12.959 -22.880  0.00  0.00    +0.110 C 
ATOM      4  C   UNL     1      32.441 -11.774 -22.185  0.00  0.00    +0.154 A 
ATOM      5  C   UNL     1      32.078 -11.815 -20.843  0.00  0.00    +0.073 A 
ATOM      6  C   UNL     1      31.979  -9.295 -20.923  0.00  0.00    +0.052 A 
ATOM      7  C   UNL     1      32.344  -9.409 -22.217  0.00  0.00    +0.144 A 
ATOM      8  C   UNL     1      31.825 -10.551 -20.134  0.00  0.00    +0.197 A 
ATOM      9  C   UNL     1      32.565 -14.185 -22.225  0.00  0.00    +0.010 C 
ATOM     10  C   UNL     1      31.957 -13.042 -20.184  0.00  0.00    +0.006 C 
ATOM     11  C   UNL     1      32.202 -14.226 -20.880  0.00  0.00    +0.001 C 
ATOM     12  C   UNL     1      31.696  -8.021 -20.181  0.00  0.00    +0.038 C 
ENDROOT
BRANCH   7  13
ATOM     13  C   UNL     1      32.533  -8.246 -23.094  0.00  0.00    +0.034 C 
ATOM     14  C   UNL     1      31.425  -7.561 -23.594  0.00  0.00    +0.003 C 
ATOM     15  C   UNL     1      33.820  -7.824 -23.426  0.00  0.00    +0.003 C 
ATOM     16  C   UNL     1      31.604  -6.456 -24.425  0.00  0.00    +0.000 C 
ATOM     17  C   UNL     1      34.000  -6.718 -24.259  0.00  0.00    +0.000 C 
ATOM     18  C   UNL     1      32.891  -6.034 -24.758  0.00  0.00    +0.000 C 
ENDBRANCH   7  13
BRANCH   3  20
ATOM     19  O   UNL     1      33.634 -12.004 -24.848  0.00  0.00    -0.245 OA
ATOM     20  C   UNL     1      33.068 -12.948 -24.286  0.00  0.00    +0.344 C 
BRANCH  20  21
ATOM     21  O   UNL     1      32.724 -14.118 -24.906  0.00  0.00    -0.448 OA
BRANCH  21  22
ATOM     22  C   UNL     1      33.657 -14.641 -25.857  0.00  0.00    +0.186 C 
BRANCH  22  23
ATOM     23  C   UNL     1      33.446 -16.142 -25.973  0.00  0.00    -0.029 C 
BRANCH  23  24
ATOM     24  N   UNL     1      33.875 -16.820 -24.750  0.00  0.00    +0.389 N 
ATOM     25  C   UNL     1      34.256 -18.210 -25.040  0.00  0.00    -0.077 C 
ATOM     26  C   UNL     1      34.981 -16.088 -24.118  0.00  0.00    -0.077 C 
ATOM     27  C   UNL     1      34.661 -18.948 -23.763  0.00  0.00    -0.023 C 
ATOM     28  C   UNL     1      35.410 -16.756 -22.810  0.00  0.00    -0.023 C 
ATOM     29  C   UNL     1      35.782 -18.218 -23.033  0.00  0.00    -0.004 C 
ATOM     30  H   UNL     1      33.094 -16.838 -24.094  0.00  0.00    -0.080 HD
ENDBRANCH  23  24
ENDBRANCH  22  23
ENDBRANCH  21  22
ENDBRANCH  20  21
ENDBRANCH   3  20
TORSDOF 6
ENDMDL
MODEL 8
REMARK VINA RESULT:      -9.3      2.789      8.354
REMARK  Name = 3354
REMARK  6 active torsions:
REMARK  status: ('A' for Active; 'I' for Inactive)
REMARK    1  A    between atoms: C_3  and  C_20
REMARK    2  A    between atoms: C_7  and  C_13
REMARK    3  A    between atoms: C_20  and  O_21
REMARK    4  A    between atoms: O_21  and  C_22
REMARK    5  A    between atoms: C_22  and  C_23
REMARK    6  A    between atoms: C_23  and  N_24
REMARK                            x       y       z     vdW  Elec       q    Type
REMARK                         _______ _______ _______ _____ _____    ______ ____
ROOT
ATOM      1  O   UNL     1      33.818 -15.715 -22.520  0.00  0.00    -0.453 OA
ATOM      2  O   UNL     1      33.499 -15.682 -26.577  0.00  0.00    -0.287 OA
ATOM      3  C   UNL     1      34.925 -17.799 -22.560  0.00  0.00    +0.110 C 
ATOM      4  C   UNL     1      34.317 -16.755 -23.258  0.00  0.00    +0.154 A 
ATOM      5  C   UNL     1      34.236 -16.797 -24.646  0.00  0.00    +0.073 A 
ATOM      6  C   UNL     1      33.062 -14.568 -24.520  0.00  0.00    +0.052 A 
ATOM      7  C   UNL     1      33.205 -14.666 -23.183  0.00  0.00    +0.144 A 
ATOM      8  C   UNL     1      33.591 -15.683 -25.357  0.00  0.00    +0.197 A 
ATOM      9  C   UNL     1      35.451 -18.886 -23.257  0.00  0.00    +0.010 C 
ATOM     10  C   UNL     1      34.762 -17.886 -25.348  0.00  0.00    +0.006 C 
ATOM     11  C   UNL     1      35.370 -18.929 -24.649  0.00  0.00    +0.001 C 
ATOM     12  C   UNL     1      32.425 -13.435 -25.273  0.00  0.00    +0.038 C 
ENDROOT
BRANCH   7  13
ATOM     13  C   UNL     1      32.720 -13.636 -22.255  0.00  0.00    +0.034 C 
ATOM     14  C   UNL     1      32.305 -12.396 -22.743  0.00  0.00    +0.003 C 
ATOM     15  C   UNL     1      32.672 -13.896 -20.885  0.00  0.00    +0.003 C 
ATOM     16  C   UNL     1      31.843 -11.419 -21.863  0.00  0.00    +0.000 C 
ATOM     17  C   UNL     1      32.210 -12.917 -20.004  0.00  0.00    +0.000 C 
ATOM     18  C   UNL     1      31.795 -11.678 -20.493  0.00  0.00    +0.000 C 
ENDBRANCH   7  13
BRANCH   3  20
ATOM     19  O   UNL     1      35.152 -16.757 -20.427  0.00  0.00    -0.245 OA
ATOM     20  C   UNL     1      35.024 -17.782 -21.106  0.00  0.00    +0.344 C 
BRANCH  20  21
ATOM     21  O   UNL     1      34.956 -19.045 -20.586  0.00  0.00    -0.448 OA
BRANCH  21  22
ATOM     22  C   UNL     1      36.200 -19.682 -20.275  0.00  0.00    +0.186 C 
BRANCH  22  23
ATOM     23  C   UNL     1      35.971 -21.182 -20.184  0.00  0.00    -0.029 C 
BRANCH  23  24
ATOM     24  N   UNL     1      35.284 -21.525 -18.939  0.00  0.00    +0.389 N 
ATOM     25  C   UNL     1      34.202 -22.486 -19.197  0.00  0.00    -0.077 C 
ATOM     26  C   UNL     1      36.239 -22.053 -17.955  0.00  0.00    -0.077 C 
ATOM     27  C   UNL     1      33.442 -22.817 -17.912  0.00  0.00    -0.023 C 
ATOM     28  C   UNL     1      35.546 -22.371 -16.628  0.00  0.00    -0.023 C 
ATOM     29  C   UNL     1      34.382 -23.335 -16.829  0.00  0.00    -0.004 C 
ATOM     30  H   UNL     1      34.869 -20.679 -18.551  0.00  0.00    -0.080 HD
ENDBRANCH  23  24
ENDBRANCH  22  23
ENDBRANCH  21  22
ENDBRANCH  20  21
ENDBRANCH   3  20
TORSDOF 6
ENDMDL
MODEL 9
REMARK VINA RESULT:      -9.3      4.858     11.428
REMARK  Name = 3354
REMARK  6 active torsions:
REMARK  status: ('A' for Active; 'I' for Inactive)
REMARK    1  A    between atoms: C_3  and  C_20
REMARK    2  A    between atoms: C_7  and  C_13
REMARK    3  A    between atoms: C_20  and  O_21
REMARK    4  A    between atoms: O_21  and  C_22
REMARK    5  A    between atoms: C_22  and  C_23
REMARK    6  A    between atoms: C_23  and  N_24
REMARK                            x       y       z     vdW  Elec       q    Type
REMARK                         _______ _______ _______ _____ _____    ______ ____
ROOT
ATOM      1  O   UNL     1      33.133  -6.190 -24.748  0.00  0.00    -0.453 OA
ATOM      2  O   UNL     1      30.628  -3.638 -22.804  0.00  0.00    -0.287 OA
ATOM      3  C   UNL     1      33.112  -7.696 -22.932  0.00  0.00    +0.110 C 
ATOM      4  C   UNL     1      32.679  -6.494 -23.493  0.00  0.00    +0.154 A 
ATOM      5  C   UNL     1      31.822  -5.660 -22.781  0.00  0.00    +0.073 A 
ATOM      6  C   UNL     1      31.894  -4.103 -24.765  0.00  0.00    +0.052 A 
ATOM      7  C   UNL     1      32.725  -5.003 -25.330  0.00  0.00    +0.144 A 
ATOM      8  C   UNL     1      31.380  -4.400 -23.397  0.00  0.00    +0.197 A 
ATOM      9  C   UNL     1      32.684  -8.060 -21.655  0.00  0.00    +0.010 C 
ATOM     10  C   UNL     1      31.392  -6.022 -21.501  0.00  0.00    +0.006 C 
ATOM     11  C   UNL     1      31.825  -7.224 -20.942  0.00  0.00    +0.001 C 
ATOM     12  C   UNL     1      31.412  -2.819 -25.377  0.00  0.00    +0.038 C 
ENDROOT
BRANCH   7  13
ATOM     13  C   UNL     1      33.300  -4.819 -26.670  0.00  0.00    +0.034 C 
ATOM     14  C   UNL     1      34.683  -4.870 -26.848  0.00  0.00    +0.003 C 
ATOM     15  C   UNL     1      32.464  -4.597 -27.764  0.00  0.00    +0.003 C 
ATOM     16  C   UNL     1      35.229  -4.698 -28.119  0.00  0.00    +0.000 C 
ATOM     17  C   UNL     1      33.011  -4.423 -29.037  0.00  0.00    +0.000 C 
ATOM     18  C   UNL     1      34.394  -4.474 -29.214  0.00  0.00    +0.000 C 
ENDBRANCH   7  13
BRANCH   3  20
ATOM     19  O   UNL     1      35.241  -8.482 -23.663  0.00  0.00    -0.245 OA
ATOM     20  C   UNL     1      34.009  -8.589 -23.652  0.00  0.00    +0.344 C 
BRANCH  20  21
ATOM     21  O   UNL     1      33.317  -9.565 -24.315  0.00  0.00    -0.448 OA
BRANCH  21  22
ATOM     22  C   UNL     1      32.956 -10.725 -23.558  0.00  0.00    +0.186 C 
BRANCH  22  23
ATOM     23  C   UNL     1      33.739 -11.916 -24.088  0.00  0.00    -0.029 C 
BRANCH  23  24
ATOM     24  N   UNL     1      33.848 -12.958 -23.067  0.00  0.00    +0.389 N 
ATOM     25  C   UNL     1      32.600 -13.056 -22.296  0.00  0.00    -0.077 C 
ATOM     26  C   UNL     1      34.194 -14.247 -23.682  0.00  0.00    -0.077 C 
ATOM     27  C   UNL     1      32.715 -14.107 -21.192  0.00  0.00    -0.023 C 
ATOM     28  C   UNL     1      34.361 -15.338 -22.623  0.00  0.00    -0.023 C 
ATOM     29  C   UNL     1      33.112 -15.465 -21.758  0.00  0.00    -0.004 C 
ATOM     30  H   UNL     1      34.598 -12.707 -22.422  0.00  0.00    -0.080 HD
ENDBRANCH  23  24
ENDBRANCH  22  23
ENDBRANCH  21  22
ENDBRANCH  20  21
ENDBRANCH   3  20
TORSDOF 6
ENDMDL
