MODEL 1
REMARK VINA RESULT:      -8.5      0.000      0.000
REMARK  Name = 4139
REMARK  2 active torsions:
REMARK  status: ('A' for Active; 'I' for Inactive)
REMARK    1  A    between atoms: N_2  and  C_8
REMARK    2  A    between atoms: C_9  and  N_18
REMARK                            x       y       z     vdW  Elec       q    Type
REMARK                         _______ _______ _______ _____ _____    ______ ____
ROOT
ATOM      1  S   UNL     1      32.800 -15.551 -20.857  0.00  0.00    -0.082 S 
ATOM      2  N   UNL     1      34.576 -15.549 -23.484  0.00  0.00    -0.409 NA
ATOM      3  C   UNL     1      33.014 -14.279 -21.997  0.00  0.00    +0.056 C 
ATOM      4  C   UNL     1      33.814 -16.846 -21.520  0.00  0.00    +0.056 C 
ATOM      5  C   UNL     1      33.902 -14.486 -23.176  0.00  0.00    +0.119 C 
ATOM      6  C   UNL     1      34.552 -16.708 -22.699  0.00  0.00    +0.119 C 
ATOM      7  C   UNL     1      32.527 -11.991 -22.758  0.00  0.00    +0.045 C 
ATOM      8  C   UNL     1      34.637 -19.123 -21.266  0.00  0.00    +0.045 C 
ATOM      9  C   UNL     1      32.377 -13.114 -21.811  0.00  0.00    +0.023 C 
ATOM     10  C   UNL     1      33.863 -18.057 -20.810  0.00  0.00    +0.023 C 
ATOM     11  C   UNL     1      34.032 -13.334 -24.112  0.00  0.00    +0.087 C 
ATOM     12  C   UNL     1      35.327 -17.791 -23.146  0.00  0.00    +0.087 C 
ATOM     13  C   UNL     1      33.398 -12.176 -23.927  0.00  0.00    -0.004 C 
ATOM     14  C   UNL     1      35.371 -18.990 -22.437  0.00  0.00    -0.004 C 
ENDROOT
BRANCH   7  15
ATOM     15  N   UNL     1      31.908 -10.882 -22.568  0.00  0.00    -0.304 N 
ATOM     16  C   UNL     1      30.737 -10.791 -21.658  0.00  0.00    +0.112 C 
ATOM     17  C   UNL     1      32.331  -9.630 -23.247  0.00  0.00    +0.112 C 
ENDBRANCH   7  15
BRANCH   8  18
ATOM     18  N   UNL     1      34.674 -20.332 -20.541  0.00  0.00    -0.304 N 
ATOM     19  C   UNL     1      35.939 -20.985 -20.266  0.00  0.00    +0.112 C 
ATOM     20  C   UNL     1      33.449 -20.931 -20.049  0.00  0.00    +0.112 C 
ENDBRANCH   8  18
TORSDOF 2
ENDMDL
MODEL 2
REMARK VINA RESULT:      -8.5      4.106      9.309
REMARK  Name = 4139
REMARK  2 active torsions:
REMARK  status: ('A' for Active; 'I' for Inactive)
REMARK    1  A    between atoms: N_2  and  C_8
REMARK    2  A    between atoms: C_9  and  N_18
REMARK                            x       y       z     vdW  Elec       q    Type
REMARK                         _______ _______ _______ _____ _____    ______ ____
ROOT
ATOM      1  S   UNL     1      33.835 -21.334 -19.748  0.00  0.00    -0.082 S 
ATOM      2  N   UNL     1      36.854 -20.595 -19.121  0.00  0.00    -0.409 NA
ATOM      3  C   UNL     1      34.817 -21.882 -18.444  0.00  0.00    +0.056 C 
ATOM      4  C   UNL     1      34.930 -20.262 -20.640  0.00  0.00    +0.056 C 
ATOM      5  C   UNL     1      36.225 -21.408 -18.332  0.00  0.00    +0.119 C 
ATOM      6  C   UNL     1      36.250 -20.025 -20.247  0.00  0.00    +0.119 C 
ATOM      7  C   UNL     1      35.100 -23.231 -16.407  0.00  0.00    +0.045 C 
ATOM      8  C   UNL     1      35.224 -18.778 -22.547  0.00  0.00    +0.045 C 
ATOM      9  C   UNL     1      34.302 -22.730 -17.543  0.00  0.00    +0.023 C 
ATOM     10  C   UNL     1      34.426 -19.635 -21.791  0.00  0.00    +0.023 C 
ATOM     11  C   UNL     1      37.005 -21.932 -17.175  0.00  0.00    +0.087 C 
ATOM     12  C   UNL     1      37.043 -19.158 -21.019  0.00  0.00    +0.087 C 
ATOM     13  C   UNL     1      36.492 -22.775 -16.278  0.00  0.00    -0.004 C 
ATOM     14  C   UNL     1      36.536 -18.538 -22.160  0.00  0.00    -0.004 C 
ENDROOT
BRANCH   7  15
ATOM     15  N   UNL     1      34.592 -24.040 -15.550  0.00  0.00    -0.304 N 
ATOM     16  C   UNL     1      35.359 -25.201 -15.027  0.00  0.00    +0.112 C 
ATOM     17  C   UNL     1      33.211 -23.858 -15.033  0.00  0.00    +0.112 C 
ENDBRANCH   7  15
BRANCH   8  18
ATOM     18  N   UNL     1      34.702 -18.156 -23.700  0.00  0.00    -0.304 N 
ATOM     19  C   UNL     1      34.553 -16.715 -23.753  0.00  0.00    +0.112 C 
ATOM     20  C   UNL     1      34.318 -18.948 -24.852  0.00  0.00    +0.112 C 
ENDBRANCH   8  18
TORSDOF 2
ENDMDL
MODEL 3
REMARK VINA RESULT:      -8.5      5.793      9.450
REMARK  Name = 4139
REMARK  2 active torsions:
REMARK  status: ('A' for Active; 'I' for Inactive)
REMARK    1  A    between atoms: N_2  and  C_8
REMARK    2  A    between atoms: C_9  and  N_18
REMARK                            x       y       z     vdW  Elec       q    Type
REMARK                         _______ _______ _______ _____ _____    ______ ____
ROOT
ATOM      1  S   UNL     1      37.193 -21.924 -17.112  0.00  0.00    -0.082 S 
ATOM      2  N   UNL     1      34.226 -23.041 -17.172  0.00  0.00    -0.409 NA
ATOM      3  C   UNL     1      35.957 -21.605 -18.269  0.00  0.00    +0.056 C 
ATOM      4  C   UNL     1      36.392 -23.024 -15.975  0.00  0.00    +0.056 C 
ATOM      5  C   UNL     1      34.618 -22.238 -18.110  0.00  0.00    +0.119 C 
ATOM      6  C   UNL     1      35.065 -23.439 -16.125  0.00  0.00    +0.119 C 
ATOM      7  C   UNL     1      35.193 -20.483 -20.319  0.00  0.00    +0.045 C 
ATOM      8  C   UNL     1      36.586 -24.354 -13.945  0.00  0.00    +0.045 C 
ATOM      9  C   UNL     1      36.216 -20.789 -19.300  0.00  0.00    +0.023 C 
ATOM     10  C   UNL     1      37.144 -23.486 -14.884  0.00  0.00    +0.023 C 
ATOM     11  C   UNL     1      33.608 -21.910 -19.155  0.00  0.00    +0.087 C 
ATOM     12  C   UNL     1      34.516 -24.313 -15.171  0.00  0.00    +0.087 C 
ATOM     13  C   UNL     1      33.864 -21.097 -20.180  0.00  0.00    -0.004 C 
ATOM     14  C   UNL     1      35.268 -24.768 -14.089  0.00  0.00    -0.004 C 
ENDROOT
BRANCH   7  15
ATOM     15  N   UNL     1      35.454 -19.696 -21.300  0.00  0.00    -0.304 N 
ATOM     16  C   UNL     1      34.488 -19.492 -22.411  0.00  0.00    +0.112 C 
ATOM     17  C   UNL     1      36.734 -18.947 -21.375  0.00  0.00    +0.112 C 
ENDBRANCH   7  15
BRANCH   8  18
ATOM     18  N   UNL     1      37.355 -24.807 -12.855  0.00  0.00    -0.304 N 
ATOM     19  C   UNL     1      37.432 -26.222 -12.548  0.00  0.00    +0.112 C 
ATOM     20  C   UNL     1      38.092 -23.867 -12.033  0.00  0.00    +0.112 C 
ENDBRANCH   8  18
TORSDOF 2
ENDMDL
MODEL 4
REMARK VINA RESULT:      -8.4      4.088      6.956
REMARK  Name = 4139
REMARK  2 active torsions:
REMARK  status: ('A' for Active; 'I' for Inactive)
REMARK    1  A    between atoms: N_2  and  C_8
REMARK    2  A    between atoms: C_9  and  N_18
REMARK                            x       y       z     vdW  Elec       q    Type
REMARK                         _______ _______ _______ _____ _____    ______ ____
ROOT
ATOM      1  S   UNL     1      33.829 -21.307 -19.734  0.00  0.00    -0.082 S 
ATOM      2  N   UNL     1      36.861 -20.554 -19.191  0.00  0.00    -0.409 NA
ATOM      3  C   UNL     1      34.848 -20.263 -20.649  0.00  0.00    +0.056 C 
ATOM      4  C   UNL     1      34.896 -21.848 -18.425  0.00  0.00    +0.056 C 
ATOM      5  C   UNL     1      36.257 -20.043 -20.217  0.00  0.00    +0.119 C 
ATOM      6  C   UNL     1      36.226 -21.432 -18.305  0.00  0.00    +0.119 C 
ATOM      7  C   UNL     1      35.191 -18.757 -22.563  0.00  0.00    +0.045 C 
ATOM      8  C   UNL     1      35.134 -23.204 -16.417  0.00  0.00    +0.045 C 
ATOM      9  C   UNL     1      34.361 -19.661 -21.743  0.00  0.00    +0.023 C 
ATOM     10  C   UNL     1      34.359 -22.733 -17.476  0.00  0.00    +0.023 C 
ATOM     11  C   UNL     1      37.069 -19.126 -21.065  0.00  0.00    +0.087 C 
ATOM     12  C   UNL     1      36.994 -21.915 -17.233  0.00  0.00    +0.087 C 
ATOM     13  C   UNL     1      36.584 -18.527 -22.153  0.00  0.00    -0.004 C 
ATOM     14  C   UNL     1      36.455 -22.794 -16.295  0.00  0.00    -0.004 C 
ENDROOT
BRANCH   7  15
ATOM     15  N   UNL     1      34.712 -18.189 -23.610  0.00  0.00    -0.304 N 
ATOM     16  C   UNL     1      34.518 -16.717 -23.676  0.00  0.00    +0.112 C 
ATOM     17  C   UNL     1      34.326 -18.973 -24.811  0.00  0.00    +0.112 C 
ENDBRANCH   7  15
BRANCH   8  18
ATOM     18  N   UNL     1      34.579 -24.094 -15.475  0.00  0.00    -0.304 N 
ATOM     19  C   UNL     1      35.348 -25.221 -14.987  0.00  0.00    +0.112 C 
ATOM     20  C   UNL     1      33.236 -23.885 -14.971  0.00  0.00    +0.112 C 
ENDBRANCH   8  18
TORSDOF 2
ENDMDL
MODEL 5
REMARK VINA RESULT:      -8.4      5.781     11.255
REMARK  Name = 4139
REMARK  2 active torsions:
REMARK  status: ('A' for Active; 'I' for Inactive)
REMARK    1  A    between atoms: N_2  and  C_8
REMARK    2  A    between atoms: C_9  and  N_18
REMARK                            x       y       z     vdW  Elec       q    Type
REMARK                         _______ _______ _______ _____ _____    ______ ____
ROOT
ATOM      1  S   UNL     1      37.230 -21.892 -17.077  0.00  0.00    -0.082 S 
ATOM      2  N   UNL     1      34.296 -23.094 -17.123  0.00  0.00    -0.409 NA
ATOM      3  C   UNL     1      36.505 -22.976 -15.952  0.00  0.00    +0.056 C 
ATOM      4  C   UNL     1      35.932 -21.624 -18.255  0.00  0.00    +0.056 C 
ATOM      5  C   UNL     1      35.099 -23.423 -16.160  0.00  0.00    +0.119 C 
ATOM      6  C   UNL     1      34.673 -22.224 -18.151  0.00  0.00    +0.119 C 
ATOM      7  C   UNL     1      36.642 -24.334 -13.906  0.00  0.00    +0.045 C 
ATOM      8  C   UNL     1      35.235 -20.503 -20.301  0.00  0.00    +0.045 C 
ATOM      9  C   UNL     1      37.216 -23.405 -14.900  0.00  0.00    +0.023 C 
ATOM     10  C   UNL     1      36.204 -20.764 -19.332  0.00  0.00    +0.023 C 
ATOM     11  C   UNL     1      34.548 -24.359 -15.140  0.00  0.00    +0.087 C 
ATOM     12  C   UNL     1      33.708 -21.950 -19.135  0.00  0.00    +0.087 C 
ATOM     13  C   UNL     1      35.256 -24.787 -14.094  0.00  0.00    -0.004 C 
ATOM     14  C   UNL     1      33.984 -21.097 -20.202  0.00  0.00    -0.004 C 
ENDROOT
BRANCH   7  15
ATOM     15  N   UNL     1      37.336 -24.740 -12.905  0.00  0.00    -0.304 N 
ATOM     16  C   UNL     1      37.425 -26.181 -12.554  0.00  0.00    +0.112 C 
ATOM     17  C   UNL     1      38.089 -23.790 -12.046  0.00  0.00    +0.112 C 
ENDBRANCH   7  15
BRANCH   8  18
ATOM     18  N   UNL     1      35.525 -19.638 -21.376  0.00  0.00    -0.304 N 
ATOM     19  C   UNL     1      34.573 -19.461 -22.453  0.00  0.00    +0.112 C 
ATOM     20  C   UNL     1      36.775 -18.904 -21.412  0.00  0.00    +0.112 C 
ENDBRANCH   8  18
TORSDOF 2
ENDMDL
MODEL 6
REMARK VINA RESULT:      -8.4      0.822      7.415
REMARK  Name = 4139
REMARK  2 active torsions:
REMARK  status: ('A' for Active; 'I' for Inactive)
REMARK    1  A    between atoms: N_2  and  C_8
REMARK    2  A    between atoms: C_9  and  N_18
REMARK                            x       y       z     vdW  Elec       q    Type
REMARK                         _______ _______ _______ _____ _____    ______ ____
ROOT
ATOM      1  S   UNL     1      32.823 -14.838 -20.977  0.00  0.00    -0.082 S 
ATOM      2  N   UNL     1      34.369 -14.975 -23.742  0.00  0.00    -0.409 NA
ATOM      3  C   UNL     1      33.649 -16.180 -21.670  0.00  0.00    +0.056 C 
ATOM      4  C   UNL     1      33.056 -13.565 -22.190  0.00  0.00    +0.056 C 
ATOM      5  C   UNL     1      34.317 -16.031 -22.994  0.00  0.00    +0.119 C 
ATOM      6  C   UNL     1      33.767 -13.766 -23.377  0.00  0.00    +0.119 C 
ATOM      7  C   UNL     1      34.375 -18.527 -21.559  0.00  0.00    +0.045 C 
ATOM      8  C   UNL     1      32.630 -11.255 -22.829  0.00  0.00    +0.045 C 
ATOM      9  C   UNL     1      33.681 -17.346 -21.009  0.00  0.00    +0.023 C 
ATOM     10  C   UNL     1      32.491 -12.307 -21.924  0.00  0.00    +0.023 C 
ATOM     11  C   UNL     1      35.008 -17.242 -23.521  0.00  0.00    +0.087 C 
ATOM     12  C   UNL     1      33.898 -12.696 -24.279  0.00  0.00    +0.087 C 
ATOM     13  C   UNL     1      35.041 -18.401 -22.863  0.00  0.00    -0.004 C 
ATOM     14  C   UNL     1      33.335 -11.449 -24.009  0.00  0.00    -0.004 C 
ENDROOT
BRANCH   7  15
ATOM     15  N   UNL     1      34.401 -19.637 -20.913  0.00  0.00    -0.304 N 
ATOM     16  C   UNL     1      35.682 -20.302 -20.561  0.00  0.00    +0.112 C 
ATOM     17  C   UNL     1      33.150 -20.312 -20.480  0.00  0.00    +0.112 C 
ENDBRANCH   7  15
BRANCH   8  18
ATOM     18  N   UNL     1      32.057  -9.998 -22.546  0.00  0.00    -0.304 N 
ATOM     19  C   UNL     1      31.666  -9.657 -21.193  0.00  0.00    +0.112 C 
ATOM     20  C   UNL     1      31.862  -9.025 -23.602  0.00  0.00    +0.112 C 
ENDBRANCH   8  18
TORSDOF 2
ENDMDL
MODEL 7
REMARK VINA RESULT:      -8.4      4.653     10.175
REMARK  Name = 4139
REMARK  2 active torsions:
REMARK  status: ('A' for Active; 'I' for Inactive)
REMARK    1  A    between atoms: N_2  and  C_8
REMARK    2  A    between atoms: C_9  and  N_18
REMARK                            x       y       z     vdW  Elec       q    Type
REMARK                         _______ _______ _______ _____ _____    ______ ____
ROOT
ATOM      1  S   UNL     1      36.656 -21.327 -18.568  0.00  0.00    -0.082 S 
ATOM      2  N   UNL     1      33.589 -22.111 -18.389  0.00  0.00    -0.409 NA
ATOM      3  C   UNL     1      35.880 -22.339 -17.410  0.00  0.00    +0.056 C 
ATOM      4  C   UNL     1      35.317 -20.842 -19.624  0.00  0.00    +0.056 C 
ATOM      5  C   UNL     1      34.413 -22.580 -17.507  0.00  0.00    +0.119 C 
ATOM      6  C   UNL     1      33.999 -21.266 -19.427  0.00  0.00    +0.119 C 
ATOM      7  C   UNL     1      35.992 -23.773 -15.415  0.00  0.00    +0.045 C 
ATOM      8  C   UNL     1      34.619 -19.565 -21.576  0.00  0.00    +0.045 C 
ATOM      9  C   UNL     1      36.608 -22.898 -16.433  0.00  0.00    +0.023 C 
ATOM     10  C   UNL     1      35.617 -19.991 -20.700  0.00  0.00    +0.023 C 
ATOM     11  C   UNL     1      33.822 -23.466 -16.465  0.00  0.00    +0.087 C 
ATOM     12  C   UNL     1      33.004 -20.828 -20.317  0.00  0.00    +0.087 C 
ATOM     13  C   UNL     1      34.546 -24.024 -15.493  0.00  0.00    -0.004 C 
ATOM     14  C   UNL     1      33.309 -19.984 -21.384  0.00  0.00    -0.004 C 
ENDROOT
BRANCH   7  15
ATOM     15  N   UNL     1      36.702 -24.304 -14.487  0.00  0.00    -0.304 N 
ATOM     16  C   UNL     1      36.938 -23.610 -13.194  0.00  0.00    +0.112 C 
ATOM     17  C   UNL     1      37.325 -25.643 -14.655  0.00  0.00    +0.112 C 
ENDBRANCH   7  15
BRANCH   8  18
ATOM     18  N   UNL     1      34.939 -18.712 -22.652  0.00  0.00    -0.304 N 
ATOM     19  C   UNL     1      35.377 -17.353 -22.406  0.00  0.00    +0.112 C 
ATOM     20  C   UNL     1      34.846 -19.187 -24.019  0.00  0.00    +0.112 C 
ENDBRANCH   8  18
TORSDOF 2
ENDMDL
MODEL 8
REMARK VINA RESULT:      -8.3      4.866      8.024
REMARK  Name = 4139
REMARK  2 active torsions:
REMARK  status: ('A' for Active; 'I' for Inactive)
REMARK    1  A    between atoms: N_2  and  C_8
REMARK    2  A    between atoms: C_9  and  N_18
REMARK                            x       y       z     vdW  Elec       q    Type
REMARK                         _______ _______ _______ _____ _____    ______ ____
ROOT
ATOM      1  S   UNL     1      36.195 -21.648 -18.517  0.00  0.00    -0.082 S 
ATOM      2  N   UNL     1      33.040 -21.959 -18.578  0.00  0.00    -0.409 NA
ATOM      3  C   UNL     1      35.078 -20.966 -19.638  0.00  0.00    +0.056 C 
ATOM      4  C   UNL     1      35.142 -22.557 -17.418  0.00  0.00    +0.056 C 
ATOM      5  C   UNL     1      33.622 -21.239 -19.485  0.00  0.00    +0.119 C 
ATOM      6  C   UNL     1      33.752 -22.609 -17.564  0.00  0.00    +0.119 C 
ATOM      7  C   UNL     1      34.620 -19.588 -21.622  0.00  0.00    +0.045 C 
ATOM      8  C   UNL     1      34.994 -23.988 -15.454  0.00  0.00    +0.045 C 
ATOM      9  C   UNL     1      35.534 -20.196 -20.635  0.00  0.00    +0.023 C 
ATOM     10  C   UNL     1      35.754 -23.250 -16.361  0.00  0.00    +0.023 C 
ATOM     11  C   UNL     1      32.726 -20.613 -20.497  0.00  0.00    +0.087 C 
ATOM     12  C   UNL     1      33.000 -23.357 -16.642  0.00  0.00    +0.087 C 
ATOM     13  C   UNL     1      33.179 -19.845 -21.489  0.00  0.00    -0.004 C 
ATOM     14  C   UNL     1      33.614 -24.041 -15.594  0.00  0.00    -0.004 C 
ENDROOT
BRANCH   7  15
ATOM     15  N   UNL     1      35.072 -18.849 -22.571  0.00  0.00    -0.304 N 
ATOM     16  C   UNL     1      34.941 -19.248 -23.996  0.00  0.00    +0.112 C 
ATOM     17  C   UNL     1      35.747 -17.555 -22.293  0.00  0.00    +0.112 C 
ENDBRANCH   7  15
BRANCH   8  18
ATOM     18  N   UNL     1      35.625 -24.676 -14.397  0.00  0.00    -0.304 N 
ATOM     19  C   UNL     1      36.620 -25.693 -14.674  0.00  0.00    +0.112 C 
ATOM     20  C   UNL     1      35.298 -24.366 -13.020  0.00  0.00    +0.112 C 
ENDBRANCH   8  18
TORSDOF 2
ENDMDL
MODEL 9
REMARK VINA RESULT:      -8.2      2.195      8.035
REMARK  Name = 4139
REMARK  2 active torsions:
REMARK  status: ('A' for Active; 'I' for Inactive)
REMARK    1  A    between atoms: N_2  and  C_8
REMARK    2  A    between atoms: C_9  and  N_18
REMARK                            x       y       z     vdW  Elec       q    Type
REMARK                         _______ _______ _______ _____ _____    ______ ____
ROOT
ATOM      1  S   UNL     1      33.543 -12.652 -23.786  0.00  0.00    -0.082 S 
ATOM      2  N   UNL     1      32.422 -13.425 -20.922  0.00  0.00    -0.409 NA
ATOM      3  C   UNL     1      33.632 -14.172 -22.982  0.00  0.00    +0.056 C 
ATOM      4  C   UNL     1      32.673 -11.641 -22.618  0.00  0.00    +0.056 C 
ATOM      5  C   UNL     1      33.035 -14.325 -21.625  0.00  0.00    +0.119 C 
ATOM      6  C   UNL     1      32.233 -12.116 -21.378  0.00  0.00    +0.119 C 
ATOM      7  C   UNL     1      34.342 -16.527 -22.942  0.00  0.00    +0.045 C 
ATOM      8  C   UNL     1      31.751  -9.445 -22.110  0.00  0.00    +0.045 C 
ATOM      9  C   UNL     1      34.238 -15.203 -23.588  0.00  0.00    +0.023 C 
ATOM     10  C   UNL     1      32.429 -10.305 -22.975  0.00  0.00    +0.023 C 
ATOM     11  C   UNL     1      33.157 -15.672 -21.001  0.00  0.00    +0.087 C 
ATOM     12  C   UNL     1      31.552 -11.238 -20.518  0.00  0.00    +0.087 C 
ATOM     13  C   UNL     1      33.759 -16.698 -21.604  0.00  0.00    -0.004 C 
ATOM     14  C   UNL     1      31.311  -9.913 -20.879  0.00  0.00    -0.004 C 
ENDROOT
BRANCH   7  15
ATOM     15  N   UNL     1      34.924 -17.505 -23.536  0.00  0.00    -0.304 N 
ATOM     16  C   UNL     1      35.849 -18.414 -22.812  0.00  0.00    +0.112 C 
ATOM     17  C   UNL     1      34.699 -17.782 -24.979  0.00  0.00    +0.112 C 
ENDBRANCH   7  15
BRANCH   8  18
ATOM     18  N   UNL     1      31.513  -8.107 -22.485  0.00  0.00    -0.304 N 
ATOM     19  C   UNL     1      31.864  -7.021 -21.592  0.00  0.00    +0.112 C 
ATOM     20  C   UNL     1      30.926  -7.799 -23.774  0.00  0.00    +0.112 C 
ENDBRANCH   8  18
TORSDOF 2
ENDMDL
