MODEL 1
REMARK VINA RESULT:     -10.4      0.000      0.000
REMARK  Name = 445650
REMARK  8 active torsions:
REMARK  status: ('A' for Active; 'I' for Inactive)
REMARK    1  A    between atoms: C_1  and  N_8
REMARK    2  A    between atoms: C_2  and  C_18
REMARK    3  A    between atoms: C_9  and  C_11
REMARK    4  A    between atoms: C_11  and  C_12
REMARK    5  A    between atoms: C_12  and  C_13
REMARK    6  A    between atoms: C_13  and  C_15
REMARK    7  A    between atoms: C_15  and  O_16
REMARK    8  A    between atoms: C_19  and  C_20
REMARK                            x       y       z     vdW  Elec       q    Type
REMARK                         _______ _______ _______ _____ _____    ______ ____
ROOT
ATOM      1  C   UNL     1      35.626 -22.403 -17.666  0.00  0.00    +0.050 C 
ATOM      2  C   UNL     1      35.046 -20.932 -19.940  0.00  0.00    +0.000 C 
ATOM      3  C   UNL     1      36.638 -21.690 -18.288  0.00  0.00    +0.015 C 
ATOM      4  C   UNL     1      34.331 -22.397 -18.157  0.00  0.00    +0.015 C 
ATOM      5  C   UNL     1      36.345 -20.948 -19.433  0.00  0.00    +0.001 C 
ATOM      6  C   UNL     1      34.039 -21.656 -19.301  0.00  0.00    +0.001 C 
ENDROOT
BRANCH   1   8
ATOM      7  O   UNL     1      37.983 -22.265 -15.809  0.00  0.00    -0.275 OA
ATOM      8  N   UNL     1      35.922 -23.153 -16.503  0.00  0.00    -0.284 N 
ATOM      9  C   UNL     1      37.040 -23.038 -15.680  0.00  0.00    +0.226 C 
ATOM     10  H   UNL     1      35.261 -23.836 -16.246  0.00  0.00    +0.155 HD
BRANCH   9  11
ATOM     11  C   UNL     1      36.964 -24.039 -14.535  0.00  0.00    +0.086 C 
BRANCH  11  12
ATOM     12  C   UNL     1      37.858 -25.258 -14.762  0.00  0.00    +0.021 C 
BRANCH  12  13
ATOM     13  C   UNL     1      39.201 -25.141 -14.050  0.00  0.00    +0.110 C 
BRANCH  13  15
ATOM     14  O   UNL     1      41.103 -26.625 -14.149  0.00  0.00    -0.250 OA
ATOM     15  C   UNL     1      40.274 -25.945 -14.741  0.00  0.00    +0.314 C 
BRANCH  15  16
ATOM     16  O   UNL     1      40.245 -25.817 -16.090  0.00  0.00    -0.480 OA
ATOM     17  H   UNL     1      39.981 -25.006 -16.478  0.00  0.00    +0.295 HD
ENDBRANCH  15  16
ENDBRANCH  13  15
ENDBRANCH  12  13
ENDBRANCH  11  12
ENDBRANCH   9  11
ENDBRANCH   1   8
BRANCH   2  18
ATOM     18  C   UNL     1      34.741 -20.159 -21.134  0.00  0.00    +0.000 C 
ATOM     19  C   UNL     1      35.403 -19.048 -21.534  0.00  0.00    +0.000 C 
BRANCH  19  20
ATOM     20  C   UNL     1      35.107 -18.276 -22.754  0.00  0.00    +0.000 C 
ATOM     21  C   UNL     1      35.237 -16.896 -22.732  0.00  0.00    +0.000 C 
ATOM     22  C   UNL     1      34.706 -18.944 -23.899  0.00  0.00    +0.000 C 
ATOM     23  C   UNL     1      34.956 -16.166 -23.887  0.00  0.00    +0.000 C 
ATOM     24  C   UNL     1      34.427 -18.214 -25.054  0.00  0.00    +0.000 C 
ATOM     25  C   UNL     1      34.552 -16.824 -25.048  0.00  0.00    +0.000 C 
ENDBRANCH  19  20
ENDBRANCH   2  18
TORSDOF 8
ENDMDL
MODEL 2
REMARK VINA RESULT:     -10.4      0.554      1.528
REMARK  Name = 445650
REMARK  8 active torsions:
REMARK  status: ('A' for Active; 'I' for Inactive)
REMARK    1  A    between atoms: C_1  and  N_8
REMARK    2  A    between atoms: C_2  and  C_18
REMARK    3  A    between atoms: C_9  and  C_11
REMARK    4  A    between atoms: C_11  and  C_12
REMARK    5  A    between atoms: C_12  and  C_13
REMARK    6  A    between atoms: C_13  and  C_15
REMARK    7  A    between atoms: C_15  and  O_16
REMARK    8  A    between atoms: C_19  and  C_20
REMARK                            x       y       z     vdW  Elec       q    Type
REMARK                         _______ _______ _______ _____ _____    ______ ____
ROOT
ATOM      1  C   UNL     1      35.621 -22.393 -17.596  0.00  0.00    +0.050 C 
ATOM      2  C   UNL     1      35.242 -20.982 -19.949  0.00  0.00    +0.000 C 
ATOM      3  C   UNL     1      34.367 -22.380 -18.183  0.00  0.00    +0.015 C 
ATOM      4  C   UNL     1      36.690 -21.716 -18.160  0.00  0.00    +0.015 C 
ATOM      5  C   UNL     1      34.176 -21.670 -19.369  0.00  0.00    +0.001 C 
ATOM      6  C   UNL     1      36.499 -21.006 -19.344  0.00  0.00    +0.001 C 
ENDROOT
BRANCH   1   8
ATOM      7  O   UNL     1      38.089 -22.759 -15.924  0.00  0.00    -0.275 OA
ATOM      8  N   UNL     1      35.816 -23.116 -16.395  0.00  0.00    -0.284 N 
ATOM      9  C   UNL     1      36.994 -23.245 -15.664  0.00  0.00    +0.226 C 
ATOM     10  H   UNL     1      35.027 -23.581 -16.034  0.00  0.00    +0.155 HD
BRANCH   9  11
ATOM     11  C   UNL     1      36.765 -24.112 -14.432  0.00  0.00    +0.086 C 
BRANCH  11  12
ATOM     12  C   UNL     1      38.067 -24.459 -13.710  0.00  0.00    +0.021 C 
BRANCH  12  13
ATOM     13  C   UNL     1      38.730 -25.713 -14.269  0.00  0.00    +0.110 C 
BRANCH  13  15
ATOM     14  O   UNL     1      40.967 -24.804 -14.228  0.00  0.00    -0.250 OA
ATOM     15  C   UNL     1      40.098 -25.420 -14.833  0.00  0.00    +0.314 C 
BRANCH  15  16
ATOM     16  O   UNL     1      40.261 -25.887 -16.095  0.00  0.00    -0.480 OA
ATOM     17  H   UNL     1      40.767 -25.398 -16.714  0.00  0.00    +0.295 HD
ENDBRANCH  15  16
ENDBRANCH  13  15
ENDBRANCH  12  13
ENDBRANCH  11  12
ENDBRANCH   9  11
ENDBRANCH   1   8
BRANCH   2  18
ATOM     18  C   UNL     1      35.043 -20.241 -21.184  0.00  0.00    +0.000 C 
ATOM     19  C   UNL     1      35.157 -18.897 -21.315  0.00  0.00    +0.000 C 
BRANCH  19  20
ATOM     20  C   UNL     1      34.976 -18.148 -22.571  0.00  0.00    +0.000 C 
ATOM     21  C   UNL     1      34.683 -18.838 -23.736  0.00  0.00    +0.000 C 
ATOM     22  C   UNL     1      35.101 -16.768 -22.562  0.00  0.00    +0.000 C 
ATOM     23  C   UNL     1      34.511 -18.128 -24.925  0.00  0.00    +0.000 C 
ATOM     24  C   UNL     1      34.928 -16.059 -23.750  0.00  0.00    +0.000 C 
ATOM     25  C   UNL     1      34.633 -16.739 -24.932  0.00  0.00    +0.000 C 
ENDBRANCH  19  20
ENDBRANCH   2  18
TORSDOF 8
ENDMDL
MODEL 3
REMARK VINA RESULT:     -10.3      1.338      1.789
REMARK  Name = 445650
REMARK  8 active torsions:
REMARK  status: ('A' for Active; 'I' for Inactive)
REMARK    1  A    between atoms: C_1  and  N_8
REMARK    2  A    between atoms: C_2  and  C_18
REMARK    3  A    between atoms: C_9  and  C_11
REMARK    4  A    between atoms: C_11  and  C_12
REMARK    5  A    between atoms: C_12  and  C_13
REMARK    6  A    between atoms: C_13  and  C_15
REMARK    7  A    between atoms: C_15  and  O_16
REMARK    8  A    between atoms: C_19  and  C_20
REMARK                            x       y       z     vdW  Elec       q    Type
REMARK                         _______ _______ _______ _____ _____    ______ ____
ROOT
ATOM      1  C   UNL     1      35.913 -22.703 -16.609  0.00  0.00    +0.050 C 
ATOM      2  C   UNL     1      35.464 -21.478 -19.052  0.00  0.00    +0.000 C 
ATOM      3  C   UNL     1      36.927 -21.961 -17.191  0.00  0.00    +0.015 C 
ATOM      4  C   UNL     1      34.679 -22.846 -17.222  0.00  0.00    +0.015 C 
ATOM      5  C   UNL     1      36.701 -21.343 -18.421  0.00  0.00    +0.001 C 
ATOM      6  C   UNL     1      34.453 -22.230 -18.452  0.00  0.00    +0.001 C 
ENDROOT
BRANCH   1   8
ATOM      7  O   UNL     1      35.759 -25.599 -15.824  0.00  0.00    -0.275 OA
ATOM      8  N   UNL     1      36.141 -23.328 -15.360  0.00  0.00    -0.284 N 
ATOM      9  C   UNL     1      36.053 -24.685 -15.061  0.00  0.00    +0.226 C 
ATOM     10  H   UNL     1      36.390 -22.734 -14.615  0.00  0.00    +0.155 HD
BRANCH   9  11
ATOM     11  C   UNL     1      36.378 -24.930 -13.593  0.00  0.00    +0.086 C 
BRANCH  11  12
ATOM     12  C   UNL     1      37.848 -24.664 -13.266  0.00  0.00    +0.021 C 
BRANCH  12  13
ATOM     13  C   UNL     1      38.775 -25.740 -13.821  0.00  0.00    +0.110 C 
BRANCH  13  15
ATOM     14  O   UNL     1      40.926 -25.573 -14.906  0.00  0.00    -0.250 OA
ATOM     15  C   UNL     1      39.774 -25.171 -14.798  0.00  0.00    +0.314 C 
BRANCH  15  16
ATOM     16  O   UNL     1      39.272 -24.146 -15.529  0.00  0.00    -0.480 OA
ATOM     17  H   UNL     1      39.458 -23.261 -15.284  0.00  0.00    +0.295 HD
ENDBRANCH  15  16
ENDBRANCH  13  15
ENDBRANCH  12  13
ENDBRANCH  11  12
ENDBRANCH   9  11
ENDBRANCH   1   8
BRANCH   2  18
ATOM     18  C   UNL     1      35.228 -20.835 -20.335  0.00  0.00    +0.000 C 
ATOM     19  C   UNL     1      35.434 -19.522 -20.599  0.00  0.00    +0.000 C 
BRANCH  19  20
ATOM     20  C   UNL     1      35.214 -18.874 -21.904  0.00  0.00    +0.000 C 
ATOM     21  C   UNL     1      34.883 -19.653 -23.001  0.00  0.00    +0.000 C 
ATOM     22  C   UNL     1      35.343 -17.498 -22.008  0.00  0.00    +0.000 C 
ATOM     23  C   UNL     1      34.675 -19.038 -24.236  0.00  0.00    +0.000 C 
ATOM     24  C   UNL     1      35.134 -16.885 -23.243  0.00  0.00    +0.000 C 
ATOM     25  C   UNL     1      34.799 -17.655 -24.357  0.00  0.00    +0.000 C 
ENDBRANCH  19  20
ENDBRANCH   2  18
TORSDOF 8
ENDMDL
MODEL 4
REMARK VINA RESULT:     -10.2      5.102     10.369
REMARK  Name = 445650
REMARK  8 active torsions:
REMARK  status: ('A' for Active; 'I' for Inactive)
REMARK    1  A    between atoms: C_1  and  N_8
REMARK    2  A    between atoms: C_2  and  C_18
REMARK    3  A    between atoms: C_9  and  C_11
REMARK    4  A    between atoms: C_11  and  C_12
REMARK    5  A    between atoms: C_12  and  C_13
REMARK    6  A    between atoms: C_13  and  C_15
REMARK    7  A    between atoms: C_15  and  O_16
REMARK    8  A    between atoms: C_19  and  C_20
REMARK                            x       y       z     vdW  Elec       q    Type
REMARK                         _______ _______ _______ _____ _____    ______ ____
ROOT
ATOM      1  C   UNL     1      34.534 -20.307 -20.777  0.00  0.00    +0.050 C 
ATOM      2  C   UNL     1      33.677 -21.983 -18.745  0.00  0.00    +0.000 C 
ATOM      3  C   UNL     1      33.191 -20.334 -20.443  0.00  0.00    +0.015 C 
ATOM      4  C   UNL     1      35.459 -21.099 -20.117  0.00  0.00    +0.015 C 
ATOM      5  C   UNL     1      32.759 -21.178 -19.419  0.00  0.00    +0.001 C 
ATOM      6  C   UNL     1      35.028 -21.943 -19.095  0.00  0.00    +0.001 C 
ENDROOT
BRANCH   1   8
ATOM      7  O   UNL     1      35.370 -17.423 -20.694  0.00  0.00    -0.275 OA
ATOM      8  N   UNL     1      34.973 -19.449 -21.814  0.00  0.00    -0.284 N 
ATOM      9  C   UNL     1      35.349 -18.112 -21.708  0.00  0.00    +0.226 C 
ATOM     10  H   UNL     1      35.016 -19.842 -22.715  0.00  0.00    +0.155 HD
BRANCH   9  11
ATOM     11  C   UNL     1      35.754 -17.562 -23.069  0.00  0.00    +0.086 C 
BRANCH  11  12
ATOM     12  C   UNL     1      34.702 -17.831 -24.145  0.00  0.00    +0.021 C 
BRANCH  12  13
ATOM     13  C   UNL     1      34.857 -16.919 -25.357  0.00  0.00    +0.110 C 
BRANCH  13  15
ATOM     14  O   UNL     1      33.410 -15.258 -24.366  0.00  0.00    -0.250 OA
ATOM     15  C   UNL     1      33.817 -15.826 -25.372  0.00  0.00    +0.314 C 
BRANCH  15  16
ATOM     16  O   UNL     1      33.355 -15.553 -26.617  0.00  0.00    -0.480 OA
ATOM     17  H   UNL     1      33.678 -16.036 -27.352  0.00  0.00    +0.295 HD
ENDBRANCH  15  16
ENDBRANCH  13  15
ENDBRANCH  12  13
ENDBRANCH  11  12
ENDBRANCH   9  11
ENDBRANCH   1   8
BRANCH   2  18
ATOM     18  C   UNL     1      33.228 -22.863 -17.678  0.00  0.00    +0.000 C 
ATOM     19  C   UNL     1      32.096 -22.695 -16.954  0.00  0.00    +0.000 C 
BRANCH  19  20
ATOM     20  C   UNL     1      31.629 -23.597 -15.886  0.00  0.00    +0.000 C 
ATOM     21  C   UNL     1      30.334 -24.087 -15.930  0.00  0.00    +0.000 C 
ATOM     22  C   UNL     1      32.495 -23.938 -14.859  0.00  0.00    +0.000 C 
ATOM     23  C   UNL     1      29.893 -24.941 -14.918  0.00  0.00    +0.000 C 
ATOM     24  C   UNL     1      32.054 -24.792 -13.850  0.00  0.00    +0.000 C 
ATOM     25  C   UNL     1      30.752 -25.294 -13.879  0.00  0.00    +0.000 C 
ENDBRANCH  19  20
ENDBRANCH   2  18
TORSDOF 8
ENDMDL
MODEL 5
REMARK VINA RESULT:     -10.1      2.082      2.772
REMARK  Name = 445650
REMARK  8 active torsions:
REMARK  status: ('A' for Active; 'I' for Inactive)
REMARK    1  A    between atoms: C_1  and  N_8
REMARK    2  A    between atoms: C_2  and  C_18
REMARK    3  A    between atoms: C_9  and  C_11
REMARK    4  A    between atoms: C_11  and  C_12
REMARK    5  A    between atoms: C_12  and  C_13
REMARK    6  A    between atoms: C_13  and  C_15
REMARK    7  A    between atoms: C_15  and  O_16
REMARK    8  A    between atoms: C_19  and  C_20
REMARK                            x       y       z     vdW  Elec       q    Type
REMARK                         _______ _______ _______ _____ _____    ______ ____
ROOT
ATOM      1  C   UNL     1      34.307 -22.622 -17.866  0.00  0.00    +0.050 C 
ATOM      2  C   UNL     1      34.102 -20.873 -20.004  0.00  0.00    +0.000 C 
ATOM      3  C   UNL     1      33.053 -22.284 -18.347  0.00  0.00    +0.015 C 
ATOM      4  C   UNL     1      35.461 -22.105 -18.431  0.00  0.00    +0.015 C 
ATOM      5  C   UNL     1      32.949 -21.404 -19.425  0.00  0.00    +0.001 C 
ATOM      6  C   UNL     1      35.357 -21.225 -19.508  0.00  0.00    +0.001 C 
ENDROOT
BRANCH   1   8
ATOM      7  O   UNL     1      35.808 -22.366 -15.277  0.00  0.00    -0.275 OA
ATOM      8  N   UNL     1      34.411 -23.517 -16.775  0.00  0.00    -0.284 N 
ATOM      9  C   UNL     1      35.128 -23.336 -15.595  0.00  0.00    +0.226 C 
ATOM     10  H   UNL     1      33.921 -24.367 -16.860  0.00  0.00    +0.155 HD
BRANCH   9  11
ATOM     11  C   UNL     1      34.972 -24.548 -14.685  0.00  0.00    +0.086 C 
BRANCH  11  12
ATOM     12  C   UNL     1      36.204 -24.787 -13.812  0.00  0.00    +0.021 C 
BRANCH  12  13
ATOM     13  C   UNL     1      36.026 -24.265 -12.391  0.00  0.00    +0.110 C 
BRANCH  13  15
ATOM     14  O   UNL     1      37.220 -22.781 -10.907  0.00  0.00    -0.250 OA
ATOM     15  C   UNL     1      37.083 -23.250 -12.030  0.00  0.00    +0.314 C 
BRANCH  15  16
ATOM     16  O   UNL     1      37.851 -22.889 -13.086  0.00  0.00    -0.480 OA
ATOM     17  H   UNL     1      38.199 -22.021 -13.137  0.00  0.00    +0.295 HD
ENDBRANCH  15  16
ENDBRANCH  13  15
ENDBRANCH  12  13
ENDBRANCH  11  12
ENDBRANCH   9  11
ENDBRANCH   1   8
BRANCH   2  18
ATOM     18  C   UNL     1      33.995 -19.955 -21.127  0.00  0.00    +0.000 C 
ATOM     19  C   UNL     1      35.023 -19.256 -21.664  0.00  0.00    +0.000 C 
BRANCH  19  20
ATOM     20  C   UNL     1      34.920 -18.341 -22.814  0.00  0.00    +0.000 C 
ATOM     21  C   UNL     1      34.643 -18.859 -24.069  0.00  0.00    +0.000 C 
ATOM     22  C   UNL     1      35.102 -16.982 -22.618  0.00  0.00    +0.000 C 
ATOM     23  C   UNL     1      34.545 -17.992 -25.158  0.00  0.00    +0.000 C 
ATOM     24  C   UNL     1      35.003 -16.116 -23.707  0.00  0.00    +0.000 C 
ATOM     25  C   UNL     1      34.724 -16.621 -24.977  0.00  0.00    +0.000 C 
ENDBRANCH  19  20
ENDBRANCH   2  18
TORSDOF 8
ENDMDL
MODEL 6
REMARK VINA RESULT:     -10.1      1.660      2.076
REMARK  Name = 445650
REMARK  8 active torsions:
REMARK  status: ('A' for Active; 'I' for Inactive)
REMARK    1  A    between atoms: C_1  and  N_8
REMARK    2  A    between atoms: C_2  and  C_18
REMARK    3  A    between atoms: C_9  and  C_11
REMARK    4  A    between atoms: C_11  and  C_12
REMARK    5  A    between atoms: C_12  and  C_13
REMARK    6  A    between atoms: C_13  and  C_15
REMARK    7  A    between atoms: C_15  and  O_16
REMARK    8  A    between atoms: C_19  and  C_20
REMARK                            x       y       z     vdW  Elec       q    Type
REMARK                         _______ _______ _______ _____ _____    ______ ____
ROOT
ATOM      1  C   UNL     1      34.213 -22.592 -17.963  0.00  0.00    +0.050 C 
ATOM      2  C   UNL     1      34.035 -20.805 -20.071  0.00  0.00    +0.000 C 
ATOM      3  C   UNL     1      32.965 -22.212 -18.424  0.00  0.00    +0.015 C 
ATOM      4  C   UNL     1      35.376 -22.098 -18.532  0.00  0.00    +0.015 C 
ATOM      5  C   UNL     1      32.875 -21.312 -19.487  0.00  0.00    +0.001 C 
ATOM      6  C   UNL     1      35.286 -21.199 -19.593  0.00  0.00    +0.001 C 
ENDROOT
BRANCH   1   8
ATOM      7  O   UNL     1      35.193 -22.197 -15.151  0.00  0.00    -0.275 OA
ATOM      8  N   UNL     1      34.305 -23.506 -16.886  0.00  0.00    -0.284 N 
ATOM      9  C   UNL     1      34.770 -23.257 -15.598  0.00  0.00    +0.226 C 
ATOM     10  H   UNL     1      34.004 -24.426 -17.070  0.00  0.00    +0.155 HD
BRANCH   9  11
ATOM     11  C   UNL     1      34.699 -24.521 -14.751  0.00  0.00    +0.086 C 
BRANCH  11  12
ATOM     12  C   UNL     1      36.020 -24.830 -14.046  0.00  0.00    +0.021 C 
BRANCH  12  13
ATOM     13  C   UNL     1      37.126 -25.216 -15.021  0.00  0.00    +0.110 C 
BRANCH  13  15
ATOM     14  O   UNL     1      37.831 -27.381 -14.215  0.00  0.00    -0.250 OA
ATOM     15  C   UNL     1      37.309 -26.713 -15.098  0.00  0.00    +0.314 C 
BRANCH  15  16
ATOM     16  O   UNL     1      36.858 -27.241 -16.262  0.00  0.00    -0.480 OA
ATOM     17  H   UNL     1      36.276 -27.975 -16.249  0.00  0.00    +0.295 HD
ENDBRANCH  15  16
ENDBRANCH  13  15
ENDBRANCH  12  13
ENDBRANCH  11  12
ENDBRANCH   9  11
ENDBRANCH   1   8
BRANCH   2  18
ATOM     18  C   UNL     1      33.943 -19.867 -21.179  0.00  0.00    +0.000 C 
ATOM     19  C   UNL     1      34.995 -19.254 -21.773  0.00  0.00    +0.000 C 
BRANCH  19  20
ATOM     20  C   UNL     1      34.903 -18.319 -22.908  0.00  0.00    +0.000 C 
ATOM     21  C   UNL     1      35.117 -16.967 -22.691  0.00  0.00    +0.000 C 
ATOM     22  C   UNL     1      34.605 -18.809 -24.168  0.00  0.00    +0.000 C 
ATOM     23  C   UNL     1      35.030 -16.082 -23.766  0.00  0.00    +0.000 C 
ATOM     24  C   UNL     1      34.520 -17.924 -25.242  0.00  0.00    +0.000 C 
ATOM     25  C   UNL     1      34.733 -16.560 -25.041  0.00  0.00    +0.000 C 
ENDBRANCH  19  20
ENDBRANCH   2  18
TORSDOF 8
ENDMDL
MODEL 7
REMARK VINA RESULT:      -9.9      7.339     11.030
REMARK  Name = 445650
REMARK  8 active torsions:
REMARK  status: ('A' for Active; 'I' for Inactive)
REMARK    1  A    between atoms: C_1  and  N_8
REMARK    2  A    between atoms: C_2  and  C_18
REMARK    3  A    between atoms: C_9  and  C_11
REMARK    4  A    between atoms: C_11  and  C_12
REMARK    5  A    between atoms: C_12  and  C_13
REMARK    6  A    between atoms: C_13  and  C_15
REMARK    7  A    between atoms: C_15  and  O_16
REMARK    8  A    between atoms: C_19  and  C_20
REMARK                            x       y       z     vdW  Elec       q    Type
REMARK                         _______ _______ _______ _____ _____    ______ ____
ROOT
ATOM      1  C   UNL     1      33.297 -14.464 -22.395  0.00  0.00    +0.050 C 
ATOM      2  C   UNL     1      32.596 -11.815 -22.799  0.00  0.00    +0.000 C 
ATOM      3  C   UNL     1      33.897 -13.753 -23.421  0.00  0.00    +0.015 C 
ATOM      4  C   UNL     1      32.354 -13.879 -21.567  0.00  0.00    +0.015 C 
ATOM      5  C   UNL     1      33.545 -12.419 -23.624  0.00  0.00    +0.001 C 
ATOM      6  C   UNL     1      32.001 -12.546 -21.770  0.00  0.00    +0.001 C 
ENDROOT
BRANCH   1   8
ATOM      7  O   UNL     1      34.982 -15.722 -20.250  0.00  0.00    -0.275 OA
ATOM      8  N   UNL     1      33.657 -15.817 -22.188  0.00  0.00    -0.284 N 
ATOM      9  C   UNL     1      34.446 -16.338 -21.165  0.00  0.00    +0.226 C 
ATOM     10  H   UNL     1      33.309 -16.465 -22.842  0.00  0.00    +0.155 HD
BRANCH   9  11
ATOM     11  C   UNL     1      34.585 -17.847 -21.315  0.00  0.00    +0.086 C 
BRANCH  11  12
ATOM     12  C   UNL     1      35.647 -18.238 -22.342  0.00  0.00    +0.021 C 
BRANCH  12  13
ATOM     13  C   UNL     1      35.046 -18.853 -23.601  0.00  0.00    +0.110 C 
BRANCH  13  15
ATOM     14  O   UNL     1      33.924 -17.958 -25.544  0.00  0.00    -0.250 OA
ATOM     15  C   UNL     1      34.744 -17.807 -24.646  0.00  0.00    +0.314 C 
BRANCH  15  16
ATOM     16  O   UNL     1      35.496 -16.688 -24.507  0.00  0.00    -0.480 OA
ATOM     17  H   UNL     1      35.401 -16.152 -23.745  0.00  0.00    +0.295 HD
ENDBRANCH  15  16
ENDBRANCH  13  15
ENDBRANCH  12  13
ENDBRANCH  11  12
ENDBRANCH   9  11
ENDBRANCH   1   8
BRANCH   2  18
ATOM     18  C   UNL     1      32.227 -10.424 -23.011  0.00  0.00    +0.000 C 
ATOM     19  C   UNL     1      32.181  -9.474 -22.046  0.00  0.00    +0.000 C 
BRANCH  19  20
ATOM     20  C   UNL     1      31.827  -8.060 -22.263  0.00  0.00    +0.000 C 
ATOM     21  C   UNL     1      31.327  -7.668 -23.494  0.00  0.00    +0.000 C 
ATOM     22  C   UNL     1      32.002  -7.151 -21.232  0.00  0.00    +0.000 C 
ATOM     23  C   UNL     1      30.992  -6.329 -23.699  0.00  0.00    +0.000 C 
ATOM     24  C   UNL     1      31.667  -5.814 -21.437  0.00  0.00    +0.000 C 
ATOM     25  C   UNL     1      31.161  -5.402 -22.671  0.00  0.00    +0.000 C 
ENDBRANCH  19  20
ENDBRANCH   2  18
TORSDOF 8
ENDMDL
MODEL 8
REMARK VINA RESULT:      -9.9      8.285     12.864
REMARK  Name = 445650
REMARK  8 active torsions:
REMARK  status: ('A' for Active; 'I' for Inactive)
REMARK    1  A    between atoms: C_1  and  N_8
REMARK    2  A    between atoms: C_2  and  C_18
REMARK    3  A    between atoms: C_9  and  C_11
REMARK    4  A    between atoms: C_11  and  C_12
REMARK    5  A    between atoms: C_12  and  C_13
REMARK    6  A    between atoms: C_13  and  C_15
REMARK    7  A    between atoms: C_15  and  O_16
REMARK    8  A    between atoms: C_19  and  C_20
REMARK                            x       y       z     vdW  Elec       q    Type
REMARK                         _______ _______ _______ _____ _____    ______ ____
ROOT
ATOM      1  C   UNL     1      32.316 -12.064 -22.328  0.00  0.00    +0.050 C 
ATOM      2  C   UNL     1      32.857 -14.674 -21.574  0.00  0.00    +0.000 C 
ATOM      3  C   UNL     1      32.800 -12.954 -23.271  0.00  0.00    +0.015 C 
ATOM      4  C   UNL     1      32.095 -12.449 -21.016  0.00  0.00    +0.015 C 
ATOM      5  C   UNL     1      33.072 -14.269 -22.892  0.00  0.00    +0.001 C 
ATOM      6  C   UNL     1      32.368 -13.763 -20.637  0.00  0.00    +0.001 C 
ENDROOT
BRANCH   1   8
ATOM      7  O   UNL     1      34.020 -10.062 -23.780  0.00  0.00    -0.275 OA
ATOM      8  N   UNL     1      32.037 -10.731 -22.713  0.00  0.00    -0.284 N 
ATOM      9  C   UNL     1      32.876  -9.850 -23.391  0.00  0.00    +0.226 C 
ATOM     10  H   UNL     1      31.146 -10.386 -22.475  0.00  0.00    +0.155 HD
BRANCH   9  11
ATOM     11  C   UNL     1      32.183  -8.511 -23.606  0.00  0.00    +0.086 C 
BRANCH  11  12
ATOM     12  C   UNL     1      32.778  -7.398 -22.744  0.00  0.00    +0.021 C 
BRANCH  12  13
ATOM     13  C   UNL     1      31.966  -7.140 -21.479  0.00  0.00    +0.110 C 
BRANCH  13  15
ATOM     14  O   UNL     1      32.140  -9.104 -20.085  0.00  0.00    -0.250 OA
ATOM     15  C   UNL     1      32.475  -7.947 -20.311  0.00  0.00    +0.314 C 
BRANCH  15  16
ATOM     16  O   UNL     1      33.324  -7.251 -19.517  0.00  0.00    -0.480 OA
ATOM     17  H   UNL     1      33.822  -7.695 -18.859  0.00  0.00    +0.295 HD
ENDBRANCH  15  16
ENDBRANCH  13  15
ENDBRANCH  12  13
ENDBRANCH  11  12
ENDBRANCH   9  11
ENDBRANCH   1   8
BRANCH   2  18
ATOM     18  C   UNL     1      33.141 -16.044 -21.178  0.00  0.00    +0.000 C 
ATOM     19  C   UNL     1      34.216 -16.765 -21.578  0.00  0.00    +0.000 C 
BRANCH  19  20
ATOM     20  C   UNL     1      34.515 -18.146 -21.161  0.00  0.00    +0.000 C 
ATOM     21  C   UNL     1      33.469 -19.008 -20.873  0.00  0.00    +0.000 C 
ATOM     22  C   UNL     1      35.835 -18.555 -21.066  0.00  0.00    +0.000 C 
ATOM     23  C   UNL     1      33.753 -20.316 -20.478  0.00  0.00    +0.000 C 
ATOM     24  C   UNL     1      36.118 -19.863 -20.672  0.00  0.00    +0.000 C 
ATOM     25  C   UNL     1      35.077 -20.744 -20.379  0.00  0.00    +0.000 C 
ENDBRANCH  19  20
ENDBRANCH   2  18
TORSDOF 8
ENDMDL
MODEL 9
REMARK VINA RESULT:      -9.8      3.186      4.297
REMARK  Name = 445650
REMARK  8 active torsions:
REMARK  status: ('A' for Active; 'I' for Inactive)
REMARK    1  A    between atoms: C_1  and  N_8
REMARK    2  A    between atoms: C_2  and  C_18
REMARK    3  A    between atoms: C_9  and  C_11
REMARK    4  A    between atoms: C_11  and  C_12
REMARK    5  A    between atoms: C_12  and  C_13
REMARK    6  A    between atoms: C_13  and  C_15
REMARK    7  A    between atoms: C_15  and  O_16
REMARK    8  A    between atoms: C_19  and  C_20
REMARK                            x       y       z     vdW  Elec       q    Type
REMARK                         _______ _______ _______ _____ _____    ______ ____
ROOT
ATOM      1  C   UNL     1      34.194 -22.618 -17.922  0.00  0.00    +0.050 C 
ATOM      2  C   UNL     1      34.032 -20.800 -20.005  0.00  0.00    +0.000 C 
ATOM      3  C   UNL     1      32.949 -22.219 -18.377  0.00  0.00    +0.015 C 
ATOM      4  C   UNL     1      35.361 -22.129 -18.486  0.00  0.00    +0.015 C 
ATOM      5  C   UNL     1      32.867 -21.303 -19.427  0.00  0.00    +0.001 C 
ATOM      6  C   UNL     1      35.279 -21.214 -19.534  0.00  0.00    +0.001 C 
ENDROOT
BRANCH   1   8
ATOM      7  O   UNL     1      35.298 -22.307 -15.146  0.00  0.00    -0.275 OA
ATOM      8  N   UNL     1      34.277 -23.549 -16.859  0.00  0.00    -0.284 N 
ATOM      9  C   UNL     1      34.803 -23.339 -15.586  0.00  0.00    +0.226 C 
ATOM     10  H   UNL     1      33.922 -24.449 -17.040  0.00  0.00    +0.155 HD
BRANCH   9  11
ATOM     11  C   UNL     1      34.697 -24.608 -14.750  0.00  0.00    +0.086 C 
BRANCH  11  12
ATOM     12  C   UNL     1      33.597 -24.520 -13.691  0.00  0.00    +0.021 C 
BRANCH  12  13
ATOM     13  C   UNL     1      32.284 -23.989 -14.255  0.00  0.00    +0.110 C 
BRANCH  13  15
ATOM     14  O   UNL     1      30.646 -25.692 -14.756  0.00  0.00    -0.250 OA
ATOM     15  C   UNL     1      31.128 -24.909 -13.947  0.00  0.00    +0.314 C 
BRANCH  15  16
ATOM     16  O   UNL     1      30.657 -24.761 -12.685  0.00  0.00    -0.480 OA
ATOM     17  H   UNL     1      30.054 -25.387 -12.333  0.00  0.00    +0.295 HD
ENDBRANCH  15  16
ENDBRANCH  13  15
ENDBRANCH  12  13
ENDBRANCH  11  12
ENDBRANCH   9  11
ENDBRANCH   1   8
BRANCH   2  18
ATOM     18  C   UNL     1      33.948 -19.846 -21.099  0.00  0.00    +0.000 C 
ATOM     19  C   UNL     1      35.004 -19.365 -21.798  0.00  0.00    +0.000 C 
BRANCH  19  20
ATOM     20  C   UNL     1      34.918 -18.413 -22.920  0.00  0.00    +0.000 C 
ATOM     21  C   UNL     1      35.145 -17.067 -22.685  0.00  0.00    +0.000 C 
ATOM     22  C   UNL     1      34.611 -18.883 -24.186  0.00  0.00    +0.000 C 
ATOM     23  C   UNL     1      35.063 -16.166 -23.747  0.00  0.00    +0.000 C 
ATOM     24  C   UNL     1      34.530 -17.982 -25.248  0.00  0.00    +0.000 C 
ATOM     25  C   UNL     1      34.757 -16.623 -25.028  0.00  0.00    +0.000 C 
ENDBRANCH  19  20
ENDBRANCH   2  18
TORSDOF 8
ENDMDL
