MODEL 1
REMARK VINA RESULT:      -8.9      0.000      0.000
REMARK  Name = 398148
REMARK  4 active torsions:
REMARK  status: ('A' for Active; 'I' for Inactive)
REMARK    1  A    between atoms: C_4  and  O_15
REMARK    2  A    between atoms: C_5  and  N_14
REMARK    3  A    between atoms: O_15  and  C_16
REMARK    4  A    between atoms: C_16  and  C_17
REMARK                            x       y       z     vdW  Elec       q    Type
REMARK                         _______ _______ _______ _____ _____    ______ ____
ROOT
ATOM      1  N   UNL     1      32.645 -23.222 -15.634  0.00  0.00    -0.293 NA
ATOM      2  N   UNL     1      33.128 -24.030 -13.416  0.00  0.00    -0.316 NA
ATOM      3  N   UNL     1      31.019 -23.148 -13.944  0.00  0.00    -0.283 N 
ATOM      4  C   UNL     1      33.902 -23.555 -15.987  0.00  0.00    +0.292 C 
ATOM      5  C   UNL     1      34.819 -24.121 -15.126  0.00  0.00    +0.261 C 
ATOM      6  C   UNL     1      34.372 -24.338 -13.839  0.00  0.00    +0.196 C 
ATOM      7  C   UNL     1      32.329 -23.483 -14.351  0.00  0.00    +0.200 C 
ATOM      8  H   UNL     1      30.392 -22.744 -14.587  0.00  0.00    +0.156 HD
ATOM      9  H   UNL     1      30.733 -23.316 -13.017  0.00  0.00    +0.156 HD
ATOM     10  N   UNL     1      35.255 -24.917 -12.894  0.00  0.00    -0.334 N 
ATOM     11  H   UNL     1      34.952 -25.078 -11.971  0.00  0.00    +0.144 HD
ATOM     12  H   UNL     1      36.172 -25.157 -13.159  0.00  0.00    +0.144 HD
ENDROOT
BRANCH   5  14
ATOM     13  O   UNL     1      36.322 -25.660 -15.533  0.00  0.00    -0.099 OA
ATOM     14  N   UNL     1      36.091 -24.442 -15.536  0.00  0.00    -0.030 NA
ENDBRANCH   5  14
BRANCH   4  15
ATOM     15  O   UNL     1      34.244 -23.296 -17.292  0.00  0.00    -0.453 OA
BRANCH  15  16
ATOM     16  C   UNL     1      33.228 -22.778 -18.132  0.00  0.00    +0.208 C 
BRANCH  16  17
ATOM     17  C   UNL     1      33.889 -22.110 -19.336  0.00  0.00    +0.044 C 
ATOM     18  C   UNL     1      33.139 -20.829 -19.724  0.00  0.00    +0.004 C 
ATOM     19  C   UNL     1      35.367 -21.812 -19.048  0.00  0.00    +0.004 C 
ATOM     20  C   UNL     1      33.812 -20.113 -20.893  0.00  0.00    +0.000 C 
ATOM     21  C   UNL     1      36.035 -21.095 -20.218  0.00  0.00    +0.000 C 
ATOM     22  C   UNL     1      35.283 -19.826 -20.607  0.00  0.00    +0.000 C 
ENDBRANCH  16  17
ENDBRANCH  15  16
ENDBRANCH   4  15
TORSDOF 4
ENDMDL
MODEL 2
REMARK VINA RESULT:      -8.8      2.146      3.655
REMARK  Name = 398148
REMARK  4 active torsions:
REMARK  status: ('A' for Active; 'I' for Inactive)
REMARK    1  A    between atoms: C_4  and  O_15
REMARK    2  A    between atoms: C_5  and  N_14
REMARK    3  A    between atoms: O_15  and  C_16
REMARK    4  A    between atoms: C_16  and  C_17
REMARK                            x       y       z     vdW  Elec       q    Type
REMARK                         _______ _______ _______ _____ _____    ______ ____
ROOT
ATOM      1  N   UNL     1      32.670 -23.598 -15.653  0.00  0.00    -0.293 NA
ATOM      2  N   UNL     1      30.875 -24.474 -14.306  0.00  0.00    -0.316 NA
ATOM      3  N   UNL     1      33.113 -24.762 -13.664  0.00  0.00    -0.283 N 
ATOM      4  C   UNL     1      31.744 -23.126 -16.511  0.00  0.00    +0.292 C 
ATOM      5  C   UNL     1      30.386 -23.285 -16.340  0.00  0.00    +0.261 C 
ATOM      6  C   UNL     1      30.004 -23.975 -15.209  0.00  0.00    +0.196 C 
ATOM      7  C   UNL     1      32.173 -24.253 -14.587  0.00  0.00    +0.200 C 
ATOM      8  H   UNL     1      34.076 -24.630 -13.820  0.00  0.00    +0.156 HD
ATOM      9  H   UNL     1      32.806 -25.250 -12.867  0.00  0.00    +0.156 HD
ATOM     10  N   UNL     1      28.623 -24.180 -14.961  0.00  0.00    -0.334 N 
ATOM     11  H   UNL     1      28.334 -24.670 -14.157  0.00  0.00    +0.144 HD
ATOM     12  H   UNL     1      27.953 -23.832 -15.592  0.00  0.00    +0.144 HD
ENDROOT
BRANCH   5  14
ATOM     13  O   UNL     1      28.714 -21.937 -16.767  0.00  0.00    -0.099 OA
ATOM     14  N   UNL     1      29.481 -22.784 -17.247  0.00  0.00    -0.030 NA
ENDBRANCH   5  14
BRANCH   4  15
ATOM     15  O   UNL     1      32.233 -22.455 -17.606  0.00  0.00    -0.453 OA
BRANCH  15  16
ATOM     16  C   UNL     1      33.503 -22.851 -18.090  0.00  0.00    +0.208 C 
BRANCH  16  17
ATOM     17  C   UNL     1      33.806 -22.059 -19.359  0.00  0.00    +0.044 C 
ATOM     18  C   UNL     1      32.777 -20.939 -19.558  0.00  0.00    +0.004 C 
ATOM     19  C   UNL     1      35.231 -21.490 -19.315  0.00  0.00    +0.004 C 
ATOM     20  C   UNL     1      33.090 -20.098 -20.794  0.00  0.00    +0.000 C 
ATOM     21  C   UNL     1      35.540 -20.649 -20.552  0.00  0.00    +0.000 C 
ATOM     22  C   UNL     1      34.510 -19.541 -20.751  0.00  0.00    +0.000 C 
ENDBRANCH  16  17
ENDBRANCH  15  16
ENDBRANCH   4  15
TORSDOF 4
ENDMDL
MODEL 3
REMARK VINA RESULT:      -8.8      7.121      9.749
REMARK  Name = 398148
REMARK  4 active torsions:
REMARK  status: ('A' for Active; 'I' for Inactive)
REMARK    1  A    between atoms: C_4  and  O_15
REMARK    2  A    between atoms: C_5  and  N_14
REMARK    3  A    between atoms: O_15  and  C_16
REMARK    4  A    between atoms: C_16  and  C_17
REMARK                            x       y       z     vdW  Elec       q    Type
REMARK                         _______ _______ _______ _____ _____    ______ ____
ROOT
ATOM      1  N   UNL     1      34.783 -16.190 -21.892  0.00  0.00    -0.293 NA
ATOM      2  N   UNL     1      33.581 -14.558 -23.195  0.00  0.00    -0.316 NA
ATOM      3  N   UNL     1      33.871 -14.277 -20.885  0.00  0.00    -0.283 N 
ATOM      4  C   UNL     1      34.973 -16.897 -23.024  0.00  0.00    +0.292 C 
ATOM      5  C   UNL     1      34.504 -16.509 -24.261  0.00  0.00    +0.261 C 
ATOM      6  C   UNL     1      33.807 -15.319 -24.288  0.00  0.00    +0.196 C 
ATOM      7  C   UNL     1      34.089 -15.046 -22.048  0.00  0.00    +0.200 C 
ATOM      8  H   UNL     1      34.220 -14.586 -20.018  0.00  0.00    +0.156 HD
ATOM      9  H   UNL     1      33.369 -13.432 -20.940  0.00  0.00    +0.156 HD
ATOM     10  N   UNL     1      33.293 -14.851 -25.523  0.00  0.00    -0.334 N 
ATOM     11  H   UNL     1      32.794 -14.003 -25.560  0.00  0.00    +0.144 HD
ATOM     12  H   UNL     1      33.436 -15.373 -26.345  0.00  0.00    +0.144 HD
ENDROOT
BRANCH   5  14
ATOM     13  O   UNL     1      33.747 -17.955 -25.721  0.00  0.00    -0.099 OA
ATOM     14  N   UNL     1      34.724 -17.268 -25.386  0.00  0.00    -0.030 NA
ENDBRANCH   5  14
BRANCH   4  15
ATOM     15  O   UNL     1      35.679 -18.067 -22.884  0.00  0.00    -0.453 OA
BRANCH  15  16
ATOM     16  C   UNL     1      36.012 -18.464 -21.567  0.00  0.00    +0.208 C 
BRANCH  16  17
ATOM     17  C   UNL     1      35.253 -19.748 -21.241  0.00  0.00    +0.044 C 
ATOM     18  C   UNL     1      35.989 -20.555 -20.163  0.00  0.00    +0.004 C 
ATOM     19  C   UNL     1      33.816 -19.433 -20.801  0.00  0.00    +0.004 C 
ATOM     20  C   UNL     1      35.222 -21.820 -19.782  0.00  0.00    +0.000 C 
ATOM     21  C   UNL     1      33.053 -20.699 -20.420  0.00  0.00    +0.000 C 
ATOM     22  C   UNL     1      33.792 -21.503 -19.354  0.00  0.00    +0.000 C 
ENDBRANCH  16  17
ENDBRANCH  15  16
ENDBRANCH   4  15
TORSDOF 4
ENDMDL
MODEL 4
REMARK VINA RESULT:      -8.8      1.301      2.063
REMARK  Name = 398148
REMARK  4 active torsions:
REMARK  status: ('A' for Active; 'I' for Inactive)
REMARK    1  A    between atoms: C_4  and  O_15
REMARK    2  A    between atoms: C_5  and  N_14
REMARK    3  A    between atoms: O_15  and  C_16
REMARK    4  A    between atoms: C_16  and  C_17
REMARK                            x       y       z     vdW  Elec       q    Type
REMARK                         _______ _______ _______ _____ _____    ______ ____
ROOT
ATOM      1  N   UNL     1      32.369 -22.809 -17.479  0.00  0.00    -0.293 NA
ATOM      2  N   UNL     1      31.766 -23.627 -15.294  0.00  0.00    -0.316 NA
ATOM      3  N   UNL     1      30.140 -22.759 -16.745  0.00  0.00    -0.283 N 
ATOM      4  C   UNL     1      33.648 -23.130 -17.204  0.00  0.00    +0.292 C 
ATOM      5  C   UNL     1      34.061 -23.694 -16.015  0.00  0.00    +0.261 C 
ATOM      6  C   UNL     1      33.067 -23.922 -15.087  0.00  0.00    +0.196 C 
ATOM      7  C   UNL     1      31.492 -23.081 -16.493  0.00  0.00    +0.200 C 
ATOM      8  H   UNL     1      29.882 -22.357 -17.606  0.00  0.00    +0.156 HD
ATOM      9  H   UNL     1      29.456 -22.935 -16.060  0.00  0.00    +0.156 HD
ATOM     10  N   UNL     1      33.412 -24.500 -13.839  0.00  0.00    -0.334 N 
ATOM     11  H   UNL     1      32.714 -24.669 -13.165  0.00  0.00    +0.144 HD
ATOM     12  H   UNL     1      34.348 -24.731 -13.645  0.00  0.00    +0.144 HD
ENDROOT
BRANCH   5  14
ATOM     13  O   UNL     1      35.603 -25.220 -15.716  0.00  0.00    -0.099 OA
ATOM     14  N   UNL     1      35.381 -24.002 -15.783  0.00  0.00    -0.030 NA
ENDBRANCH   5  14
BRANCH   4  15
ATOM     15  O   UNL     1      34.558 -22.860 -18.197  0.00  0.00    -0.453 OA
BRANCH  15  16
ATOM     16  C   UNL     1      34.042 -22.415 -19.438  0.00  0.00    +0.208 C 
BRANCH  16  17
ATOM     17  C   UNL     1      34.570 -21.008 -19.706  0.00  0.00    +0.044 C 
ATOM     18  C   UNL     1      36.019 -21.059 -20.208  0.00  0.00    +0.004 C 
ATOM     19  C   UNL     1      33.670 -20.272 -20.708  0.00  0.00    +0.004 C 
ATOM     20  C   UNL     1      36.553 -19.666 -20.534  0.00  0.00    +0.000 C 
ATOM     21  C   UNL     1      34.207 -18.881 -21.032  0.00  0.00    +0.000 C 
ATOM     22  C   UNL     1      35.651 -18.934 -21.524  0.00  0.00    +0.000 C 
ENDBRANCH  16  17
ENDBRANCH  15  16
ENDBRANCH   4  15
TORSDOF 4
ENDMDL
MODEL 5
REMARK VINA RESULT:      -8.6      7.098      9.671
REMARK  Name = 398148
REMARK  4 active torsions:
REMARK  status: ('A' for Active; 'I' for Inactive)
REMARK    1  A    between atoms: C_4  and  O_15
REMARK    2  A    between atoms: C_5  and  N_14
REMARK    3  A    between atoms: O_15  and  C_16
REMARK    4  A    between atoms: C_16  and  C_17
REMARK                            x       y       z     vdW  Elec       q    Type
REMARK                         _______ _______ _______ _____ _____    ______ ____
ROOT
ATOM      1  N   UNL     1      34.454 -16.411 -24.287  0.00  0.00    -0.293 NA
ATOM      2  N   UNL     1      33.040 -14.505 -23.870  0.00  0.00    -0.316 NA
ATOM      3  N   UNL     1      33.440 -15.252 -26.058  0.00  0.00    -0.283 N 
ATOM      4  C   UNL     1      34.637 -16.519 -22.956  0.00  0.00    +0.292 C 
ATOM      5  C   UNL     1      34.065 -15.671 -22.031  0.00  0.00    +0.261 C 
ATOM      6  C   UNL     1      33.268 -14.672 -22.550  0.00  0.00    +0.196 C 
ATOM      7  C   UNL     1      33.655 -15.396 -24.670  0.00  0.00    +0.200 C 
ATOM      8  H   UNL     1      33.866 -15.875 -26.689  0.00  0.00    +0.156 HD
ATOM      9  H   UNL     1      32.865 -14.527 -26.394  0.00  0.00    +0.156 HD
ATOM     10  N   UNL     1      32.644 -13.760 -21.662  0.00  0.00    -0.334 N 
ATOM     11  H   UNL     1      32.072 -13.041 -22.016  0.00  0.00    +0.144 HD
ATOM     12  H   UNL     1      32.782 -13.845 -20.692  0.00  0.00    +0.144 HD
ENDROOT
BRANCH   5  14
ATOM     13  O   UNL     1      34.956 -14.910 -20.181  0.00  0.00    -0.099 OA
ATOM     14  N   UNL     1      34.284 -15.824 -20.682  0.00  0.00    -0.030 NA
ENDBRANCH   5  14
BRANCH   4  15
ATOM     15  O   UNL     1      35.449 -17.548 -22.547  0.00  0.00    -0.453 OA
BRANCH  15  16
ATOM     16  C   UNL     1      34.937 -18.861 -22.675  0.00  0.00    +0.208 C 
BRANCH  16  17
ATOM     17  C   UNL     1      34.658 -19.411 -21.278  0.00  0.00    +0.044 C 
ATOM     18  C   UNL     1      33.220 -19.938 -21.180  0.00  0.00    +0.004 C 
ATOM     19  C   UNL     1      35.668 -20.509 -20.916  0.00  0.00    +0.004 C 
ATOM     20  C   UNL     1      32.933 -20.542 -19.807  0.00  0.00    +0.000 C 
ATOM     21  C   UNL     1      35.376 -21.112 -19.544  0.00  0.00    +0.000 C 
ATOM     22  C   UNL     1      33.943 -21.627 -19.447  0.00  0.00    +0.000 C 
ENDBRANCH  16  17
ENDBRANCH  15  16
ENDBRANCH   4  15
TORSDOF 4
ENDMDL
MODEL 6
REMARK VINA RESULT:      -8.4      3.622      5.432
REMARK  Name = 398148
REMARK  4 active torsions:
REMARK  status: ('A' for Active; 'I' for Inactive)
REMARK    1  A    between atoms: C_4  and  O_15
REMARK    2  A    between atoms: C_5  and  N_14
REMARK    3  A    between atoms: O_15  and  C_16
REMARK    4  A    between atoms: C_16  and  C_17
REMARK                            x       y       z     vdW  Elec       q    Type
REMARK                         _______ _______ _______ _____ _____    ______ ____
ROOT
ATOM      1  N   UNL     1      36.672 -24.420 -15.211  0.00  0.00    -0.293 NA
ATOM      2  N   UNL     1      38.244 -23.966 -13.443  0.00  0.00    -0.316 NA
ATOM      3  N   UNL     1      38.969 -24.240 -15.657  0.00  0.00    -0.283 N 
ATOM      4  C   UNL     1      35.686 -24.380 -14.293  0.00  0.00    +0.292 C 
ATOM      5  C   UNL     1      35.895 -24.144 -12.951  0.00  0.00    +0.261 C 
ATOM      6  C   UNL     1      37.207 -23.942 -12.578  0.00  0.00    +0.196 C 
ATOM      7  C   UNL     1      37.909 -24.207 -14.724  0.00  0.00    +0.200 C 
ATOM      8  H   UNL     1      38.782 -24.413 -16.608  0.00  0.00    +0.156 HD
ATOM      9  H   UNL     1      39.895 -24.092 -15.356  0.00  0.00    +0.156 HD
ATOM     10  N   UNL     1      37.504 -23.691 -11.215  0.00  0.00    -0.334 N 
ATOM     11  H   UNL     1      38.436 -23.545 -10.932  0.00  0.00    +0.144 HD
ATOM     12  H   UNL     1      36.778 -23.664 -10.550  0.00  0.00    +0.144 HD
ENDROOT
BRANCH   5  14
ATOM     13  O   UNL     1      34.955 -24.954 -11.148  0.00  0.00    -0.099 OA
ATOM     14  N   UNL     1      34.853 -24.115 -12.054  0.00  0.00    -0.030 NA
ENDBRANCH   5  14
BRANCH   4  15
ATOM     15  O   UNL     1      34.417 -24.595 -14.772  0.00  0.00    -0.453 OA
BRANCH  15  16
ATOM     16  C   UNL     1      33.814 -23.538 -15.495  0.00  0.00    +0.208 C 
BRANCH  16  17
ATOM     17  C   UNL     1      32.368 -23.394 -15.028  0.00  0.00    +0.044 C 
ATOM     18  C   UNL     1      31.431 -23.183 -16.225  0.00  0.00    +0.004 C 
ATOM     19  C   UNL     1      31.938 -24.619 -14.208  0.00  0.00    +0.004 C 
ATOM     20  C   UNL     1      29.970 -23.089 -15.789  0.00  0.00    +0.000 C 
ATOM     21  C   UNL     1      30.477 -24.522 -13.775  0.00  0.00    +0.000 C 
ATOM     22  C   UNL     1      29.549 -24.303 -14.966  0.00  0.00    +0.000 C 
ENDBRANCH  16  17
ENDBRANCH  15  16
ENDBRANCH   4  15
TORSDOF 4
ENDMDL
MODEL 7
REMARK VINA RESULT:      -8.4      2.949      6.039
REMARK  Name = 398148
REMARK  4 active torsions:
REMARK  status: ('A' for Active; 'I' for Inactive)
REMARK    1  A    between atoms: C_4  and  O_15
REMARK    2  A    between atoms: C_5  and  N_14
REMARK    3  A    between atoms: O_15  and  C_16
REMARK    4  A    between atoms: C_16  and  C_17
REMARK                            x       y       z     vdW  Elec       q    Type
REMARK                         _______ _______ _______ _____ _____    ______ ____
ROOT
ATOM      1  N   UNL     1      35.324 -22.989 -16.726  0.00  0.00    -0.293 NA
ATOM      2  N   UNL     1      36.549 -21.701 -18.352  0.00  0.00    -0.316 NA
ATOM      3  N   UNL     1      37.603 -22.516 -16.422  0.00  0.00    -0.283 N 
ATOM      4  C   UNL     1      34.229 -22.853 -17.499  0.00  0.00    +0.292 C 
ATOM      5  C   UNL     1      34.213 -22.167 -18.695  0.00  0.00    +0.261 C 
ATOM      6  C   UNL     1      35.413 -21.605 -19.076  0.00  0.00    +0.196 C 
ATOM      7  C   UNL     1      36.435 -22.396 -17.205  0.00  0.00    +0.200 C 
ATOM      8  H   UNL     1      37.577 -23.014 -15.572  0.00  0.00    +0.156 HD
ATOM      9  H   UNL     1      38.443 -22.102 -16.724  0.00  0.00    +0.156 HD
ATOM     10  N   UNL     1      35.479 -20.883 -20.295  0.00  0.00    -0.334 N 
ATOM     11  H   UNL     1      36.328 -20.475 -20.581  0.00  0.00    +0.144 HD
ATOM     12  H   UNL     1      34.675 -20.789 -20.854  0.00  0.00    +0.144 HD
ENDROOT
BRANCH   5  14
ATOM     13  O   UNL     1      32.587 -20.915 -19.458  0.00  0.00    -0.099 OA
ATOM     14  N   UNL     1      33.068 -22.057 -19.448  0.00  0.00    -0.030 NA
ENDBRANCH   5  14
BRANCH   4  15
ATOM     15  O   UNL     1      33.087 -23.452 -17.026  0.00  0.00    -0.453 OA
BRANCH  15  16
ATOM     16  C   UNL     1      32.895 -23.453 -15.624  0.00  0.00    +0.208 C 
BRANCH  16  17
ATOM     17  C   UNL     1      31.397 -23.377 -15.339  0.00  0.00    +0.044 C 
ATOM     18  C   UNL     1      30.644 -22.805 -16.548  0.00  0.00    +0.004 C 
ATOM     19  C   UNL     1      30.847 -24.758 -14.957  0.00  0.00    +0.004 C 
ATOM     20  C   UNL     1      29.136 -22.768 -16.307  0.00  0.00    +0.000 C 
ATOM     21  C   UNL     1      29.339 -24.718 -14.719  0.00  0.00    +0.000 C 
ATOM     22  C   UNL     1      28.595 -24.141 -15.919  0.00  0.00    +0.000 C 
ENDBRANCH  16  17
ENDBRANCH  15  16
ENDBRANCH   4  15
TORSDOF 4
ENDMDL
MODEL 8
REMARK VINA RESULT:      -8.3      1.494      3.048
REMARK  Name = 398148
REMARK  4 active torsions:
REMARK  status: ('A' for Active; 'I' for Inactive)
REMARK    1  A    between atoms: C_4  and  O_15
REMARK    2  A    between atoms: C_5  and  N_14
REMARK    3  A    between atoms: O_15  and  C_16
REMARK    4  A    between atoms: C_16  and  C_17
REMARK                            x       y       z     vdW  Elec       q    Type
REMARK                         _______ _______ _______ _____ _____    ______ ____
ROOT
ATOM      1  N   UNL     1      35.595 -22.995 -16.746  0.00  0.00    -0.293 NA
ATOM      2  N   UNL     1      35.906 -23.915 -14.541  0.00  0.00    -0.316 NA
ATOM      3  N   UNL     1      37.746 -23.281 -15.850  0.00  0.00    -0.283 N 
ATOM      4  C   UNL     1      34.265 -23.125 -16.571  0.00  0.00    +0.292 C 
ATOM      5  C   UNL     1      33.686 -23.634 -15.428  0.00  0.00    +0.261 C 
ATOM      6  C   UNL     1      34.564 -24.017 -14.435  0.00  0.00    +0.196 C 
ATOM      7  C   UNL     1      36.346 -23.403 -15.705  0.00  0.00    +0.200 C 
ATOM      8  H   UNL     1      38.124 -22.914 -16.682  0.00  0.00    +0.156 HD
ATOM      9  H   UNL     1      38.343 -23.565 -15.122  0.00  0.00    +0.156 HD
ATOM     10  N   UNL     1      34.045 -24.550 -13.228  0.00  0.00    -0.334 N 
ATOM     11  H   UNL     1      34.658 -24.829 -12.509  0.00  0.00    +0.144 HD
ATOM     12  H   UNL     1      33.073 -24.642 -13.108  0.00  0.00    +0.144 HD
ENDROOT
BRANCH   5  14
ATOM     13  O   UNL     1      31.825 -22.919 -14.524  0.00  0.00    -0.099 OA
ATOM     14  N   UNL     1      32.322 -23.747 -15.300  0.00  0.00    -0.030 NA
ENDBRANCH   5  14
BRANCH   4  15
ATOM     15  O   UNL     1      33.483 -22.714 -17.622  0.00  0.00    -0.453 OA
BRANCH  15  16
ATOM     16  C   UNL     1      34.064 -22.756 -18.912  0.00  0.00    +0.208 C 
BRANCH  16  17
ATOM     17  C   UNL     1      34.246 -21.324 -19.409  0.00  0.00    +0.044 C 
ATOM     18  C   UNL     1      35.558 -21.186 -20.195  0.00  0.00    +0.004 C 
ATOM     19  C   UNL     1      33.049 -20.891 -20.266  0.00  0.00    +0.004 C 
ATOM     20  C   UNL     1      35.737 -19.774 -20.748  0.00  0.00    +0.000 C 
ATOM     21  C   UNL     1      33.233 -19.479 -20.818  0.00  0.00    +0.000 C 
ATOM     22  C   UNL     1      34.541 -19.343 -21.591  0.00  0.00    +0.000 C 
ENDBRANCH  16  17
ENDBRANCH  15  16
ENDBRANCH   4  15
TORSDOF 4
ENDMDL
MODEL 9
REMARK VINA RESULT:      -8.3      4.215      5.442
REMARK  Name = 398148
REMARK  4 active torsions:
REMARK  status: ('A' for Active; 'I' for Inactive)
REMARK    1  A    between atoms: C_4  and  O_15
REMARK    2  A    between atoms: C_5  and  N_14
REMARK    3  A    between atoms: O_15  and  C_16
REMARK    4  A    between atoms: C_16  and  C_17
REMARK                            x       y       z     vdW  Elec       q    Type
REMARK                         _______ _______ _______ _____ _____    ______ ____
ROOT
ATOM      1  N   UNL     1      35.601 -23.731 -12.475  0.00  0.00    -0.293 NA
ATOM      2  N   UNL     1      37.889 -23.748 -13.230  0.00  0.00    -0.316 NA
ATOM      3  N   UNL     1      37.301 -22.744 -11.193  0.00  0.00    -0.283 N 
ATOM      4  C   UNL     1      35.266 -24.398 -13.597  0.00  0.00    +0.292 C 
ATOM      5  C   UNL     1      36.170 -24.770 -14.570  0.00  0.00    +0.261 C 
ATOM      6  C   UNL     1      37.481 -24.415 -14.331  0.00  0.00    +0.196 C 
ATOM      7  C   UNL     1      36.911 -23.442 -12.357  0.00  0.00    +0.200 C 
ATOM      8  H   UNL     1      36.626 -22.494 -10.520  0.00  0.00    +0.156 HD
ATOM      9  H   UNL     1      38.245 -22.506 -11.055  0.00  0.00    +0.156 HD
ATOM     10  N   UNL     1      38.472 -24.762 -15.284  0.00  0.00    -0.334 N 
ATOM     11  H   UNL     1      39.413 -24.515 -15.129  0.00  0.00    +0.144 HD
ATOM     12  H   UNL     1      38.219 -25.248 -16.101  0.00  0.00    +0.144 HD
ENDROOT
BRANCH   5  14
ATOM     13  O   UNL     1      36.152 -26.630 -15.724  0.00  0.00    -0.099 OA
ATOM     14  N   UNL     1      35.777 -25.449 -15.698  0.00  0.00    -0.030 NA
ENDBRANCH   5  14
BRANCH   4  15
ATOM     15  O   UNL     1      33.933 -24.702 -13.735  0.00  0.00    -0.453 OA
BRANCH  15  16
ATOM     16  C   UNL     1      33.035 -23.615 -13.857  0.00  0.00    +0.208 C 
BRANCH  16  17
ATOM     17  C   UNL     1      31.875 -24.042 -14.754  0.00  0.00    +0.044 C 
ATOM     18  C   UNL     1      30.989 -25.071 -14.039  0.00  0.00    +0.004 C 
ATOM     19  C   UNL     1      31.052 -22.824 -15.194  0.00  0.00    +0.004 C 
ATOM     20  C   UNL     1      29.790 -25.475 -14.895  0.00  0.00    +0.000 C 
ATOM     21  C   UNL     1      29.855 -23.232 -16.049  0.00  0.00    +0.000 C 
ATOM     22  C   UNL     1      28.980 -24.261 -15.339  0.00  0.00    +0.000 C 
ENDBRANCH  16  17
ENDBRANCH  15  16
ENDBRANCH   4  15
TORSDOF 4
ENDMDL
