MODEL 1
REMARK VINA RESULT:      -6.0      0.000      0.000
REMARK  Name = 17754161
REMARK  10 active torsions:
REMARK  status: ('A' for Active; 'I' for Inactive)
REMARK    1  A    between atoms: C_1  and  O_2
REMARK    2  A    between atoms: C_1  and  C_11
REMARK    3  A    between atoms: O_2  and  P_3
REMARK    4  A    between atoms: P_3  and  O_5
REMARK    5  A    between atoms: P_3  and  O_8
REMARK    6  A    between atoms: O_5  and  C_6
REMARK    7  A    between atoms: O_8  and  C_9
REMARK    8  A    between atoms: C_11  and  N_12
REMARK    9  A    between atoms: C_11  and  C_17
REMARK   10  A    between atoms: C_17  and  O_18
REMARK                            x       y       z     vdW  Elec       q    Type
REMARK                         _______ _______ _______ _____ _____    ______ ____
ROOT
ATOM      1  C   UNK     1      36.310 -23.181 -12.948  0.00  0.00    +0.143 C 
ENDROOT
BRANCH   1   2
ATOM      2  O   UNK     1      35.820 -24.308 -13.654  0.00  0.00    -0.275 OA
BRANCH   2   3
ATOM      3  P   UNK     1      36.514 -24.761 -15.046  0.00  0.00    +0.480 P 
ATOM      4  O   UNK     1      36.063 -26.101 -15.558  0.00  0.00    -0.227 OA
BRANCH   3   5
ATOM      5  O   UNK     1      36.237 -23.525 -16.057  0.00  0.00    -0.273 OA
BRANCH   5   6
ATOM      6  C   UNK     1      37.272 -22.580 -16.268  0.00  0.00    +0.154 C 
ATOM      7  C   UNK     1      36.904 -21.700 -17.444  0.00  0.00    +0.035 C 
ENDBRANCH   5   6
ENDBRANCH   3   5
BRANCH   3   8
ATOM      8  O   UNK     1      38.105 -24.648 -14.762  0.00  0.00    -0.273 OA
BRANCH   8   9
ATOM      9  C   UNK     1      38.860 -25.844 -14.665  0.00  0.00    +0.154 C 
ATOM     10  C   UNK     1      40.314 -25.492 -14.441  0.00  0.00    +0.035 C 
ENDBRANCH   8   9
ENDBRANCH   3   8
ENDBRANCH   2   3
ENDBRANCH   1   2
BRANCH   1  11
ATOM     11  C   UNK     1      36.844 -23.626 -11.590  0.00  0.00    +0.066 C 
BRANCH  11  12
ATOM     12  N   UNK     1      38.281 -23.880 -11.681  0.00  0.00    +0.390 N 
ATOM     13  H   UNK     1      38.474 -24.841 -11.396  0.00  0.00    -0.088 HD
ATOM     14  H   UNK     1      38.780 -23.236 -11.067  0.00  0.00    -0.088 HD
ATOM     15  H   UNK     1      38.590 -23.744 -12.643  0.00  0.00    -0.088 HD
ENDBRANCH  11  12
BRANCH  11  17
ATOM     16  O   UNK     1      35.211 -25.022 -10.416  0.00  0.00    -0.253 OA
ATOM     17  C   UNK     1      36.182 -24.919 -11.153  0.00  0.00    +0.295 C 
BRANCH  17  18
ATOM     18  O   UNK     1      36.826 -25.988 -11.690  0.00  0.00    -0.482 OA
ATOM     19  H   UNK     1      37.761 -25.988 -11.754  0.00  0.00    +0.295 HD
ENDBRANCH  17  18
ENDBRANCH  11  17
ENDBRANCH   1  11
TORSDOF 10
ENDMDL
MODEL 2
REMARK VINA RESULT:      -5.9      9.248     11.945
REMARK  Name = 17754161
REMARK  10 active torsions:
REMARK  status: ('A' for Active; 'I' for Inactive)
REMARK    1  A    between atoms: C_1  and  O_2
REMARK    2  A    between atoms: C_1  and  C_11
REMARK    3  A    between atoms: O_2  and  P_3
REMARK    4  A    between atoms: P_3  and  O_5
REMARK    5  A    between atoms: P_3  and  O_8
REMARK    6  A    between atoms: O_5  and  C_6
REMARK    7  A    between atoms: O_8  and  C_9
REMARK    8  A    between atoms: C_11  and  N_12
REMARK    9  A    between atoms: C_11  and  C_17
REMARK   10  A    between atoms: C_17  and  O_18
REMARK                            x       y       z     vdW  Elec       q    Type
REMARK                         _______ _______ _______ _____ _____    ______ ____
ROOT
ATOM      1  C   UNK     1      34.637 -16.082 -20.998  0.00  0.00    +0.143 C 
ENDROOT
BRANCH   1   2
ATOM      2  O   UNK     1      34.062 -17.326 -21.359  0.00  0.00    -0.275 OA
BRANCH   2   3
ATOM      3  P   UNK     1      34.997 -18.640 -21.518  0.00  0.00    +0.480 P 
ATOM      4  O   UNK     1      36.060 -18.777 -20.464  0.00  0.00    -0.227 OA
BRANCH   3   5
ATOM      5  O   UNK     1      33.951 -19.876 -21.585  0.00  0.00    -0.273 OA
BRANCH   5   6
ATOM      6  C   UNK     1      32.989 -20.004 -20.552  0.00  0.00    +0.154 C 
ATOM      7  C   UNK     1      33.387 -21.151 -19.646  0.00  0.00    +0.035 C 
ENDBRANCH   5   6
ENDBRANCH   3   5
BRANCH   3   8
ATOM      8  O   UNK     1      35.558 -18.556 -23.035  0.00  0.00    -0.273 OA
BRANCH   8   9
ATOM      9  C   UNK     1      34.940 -19.356 -24.029  0.00  0.00    +0.154 C 
ATOM     10  C   UNK     1      34.290 -18.453 -25.055  0.00  0.00    +0.035 C 
ENDBRANCH   8   9
ENDBRANCH   3   8
ENDBRANCH   2   3
ENDBRANCH   1   2
BRANCH   1  11
ATOM     11  C   UNK     1      34.015 -14.972 -21.840  0.00  0.00    +0.066 C 
BRANCH  11  12
ATOM     12  N   UNK     1      32.567 -14.950 -21.639  0.00  0.00    +0.390 N 
ATOM     13  H   UNK     1      32.099 -14.986 -22.545  0.00  0.00    -0.088 HD
ATOM     14  H   UNK     1      32.304 -14.093 -21.154  0.00  0.00    -0.088 HD
ATOM     15  H   UNK     1      32.289 -15.758 -21.082  0.00  0.00    -0.088 HD
ENDBRANCH  11  12
BRANCH  11  17
ATOM     16  O   UNK     1      33.472 -15.018 -24.226  0.00  0.00    -0.253 OA
ATOM     17  C   UNK     1      34.264 -15.217 -23.316  0.00  0.00    +0.295 C 
BRANCH  17  18
ATOM     18  O   UNK     1      35.515 -15.711 -23.512  0.00  0.00    -0.482 OA
ATOM     19  H   UNK     1      35.838 -15.834 -24.383  0.00  0.00    +0.295 HD
ENDBRANCH  17  18
ENDBRANCH  11  17
ENDBRANCH   1  11
TORSDOF 10
ENDMDL
MODEL 3
REMARK VINA RESULT:      -5.9      1.424      1.755
REMARK  Name = 17754161
REMARK  10 active torsions:
REMARK  status: ('A' for Active; 'I' for Inactive)
REMARK    1  A    between atoms: C_1  and  O_2
REMARK    2  A    between atoms: C_1  and  C_11
REMARK    3  A    between atoms: O_2  and  P_3
REMARK    4  A    between atoms: P_3  and  O_5
REMARK    5  A    between atoms: P_3  and  O_8
REMARK    6  A    between atoms: O_5  and  C_6
REMARK    7  A    between atoms: O_8  and  C_9
REMARK    8  A    between atoms: C_11  and  N_12
REMARK    9  A    between atoms: C_11  and  C_17
REMARK   10  A    between atoms: C_17  and  O_18
REMARK                            x       y       z     vdW  Elec       q    Type
REMARK                         _______ _______ _______ _____ _____    ______ ____
ROOT
ATOM      1  C   UNK     1      37.785 -25.124 -12.137  0.00  0.00    +0.143 C 
ENDROOT
BRANCH   1   2
ATOM      2  O   UNK     1      37.275 -26.096 -13.033  0.00  0.00    -0.275 OA
BRANCH   2   3
ATOM      3  P   UNK     1      37.399 -25.873 -14.633  0.00  0.00    +0.480 P 
ATOM      4  O   UNK     1      37.572 -27.140 -15.425  0.00  0.00    -0.227 OA
BRANCH   3   5
ATOM      5  O   UNK     1      36.086 -25.009 -15.024  0.00  0.00    -0.273 OA
BRANCH   5   6
ATOM      6  C   UNK     1      36.266 -23.686 -15.502  0.00  0.00    +0.154 C 
ATOM      7  C   UNK     1      34.997 -22.896 -15.256  0.00  0.00    +0.035 C 
ENDBRANCH   5   6
ENDBRANCH   3   5
BRANCH   3   8
ATOM      8  O   UNK     1      38.602 -24.802 -14.801  0.00  0.00    -0.273 OA
BRANCH   8   9
ATOM      9  C   UNK     1      39.841 -25.255 -15.320  0.00  0.00    +0.154 C 
ATOM     10  C   UNK     1      40.611 -25.954 -14.221  0.00  0.00    +0.035 C 
ENDBRANCH   8   9
ENDBRANCH   3   8
ENDBRANCH   2   3
ENDBRANCH   1   2
BRANCH   1  11
ATOM     11  C   UNK     1      36.720 -24.063 -11.879  0.00  0.00    +0.066 C 
BRANCH  11  12
ATOM     12  N   UNK     1      37.204 -23.107 -10.885  0.00  0.00    +0.390 N 
ATOM     13  H   UNK     1      36.939 -22.162 -11.166  0.00  0.00    -0.088 HD
ATOM     14  H   UNK     1      38.219 -23.170 -10.817  0.00  0.00    -0.088 HD
ATOM     15  H   UNK     1      36.787 -23.319  -9.978  0.00  0.00    -0.088 HD
ENDBRANCH  11  12
BRANCH  11  17
ATOM     16  O   UNK     1      35.250 -24.985 -10.151  0.00  0.00    -0.253 OA
ATOM     17  C   UNK     1      35.460 -24.697 -11.321  0.00  0.00    +0.295 C 
BRANCH  17  18
ATOM     18  O   UNK     1      34.560 -24.922 -12.316  0.00  0.00    -0.482 OA
ATOM     19  H   UNK     1      34.747 -25.555 -12.981  0.00  0.00    +0.295 HD
ENDBRANCH  17  18
ENDBRANCH  11  17
ENDBRANCH   1  11
TORSDOF 10
ENDMDL
MODEL 4
REMARK VINA RESULT:      -5.9      1.381      3.360
REMARK  Name = 17754161
REMARK  10 active torsions:
REMARK  status: ('A' for Active; 'I' for Inactive)
REMARK    1  A    between atoms: C_1  and  O_2
REMARK    2  A    between atoms: C_1  and  C_11
REMARK    3  A    between atoms: O_2  and  P_3
REMARK    4  A    between atoms: P_3  and  O_5
REMARK    5  A    between atoms: P_3  and  O_8
REMARK    6  A    between atoms: O_5  and  C_6
REMARK    7  A    between atoms: O_8  and  C_9
REMARK    8  A    between atoms: C_11  and  N_12
REMARK    9  A    between atoms: C_11  and  C_17
REMARK   10  A    between atoms: C_17  and  O_18
REMARK                            x       y       z     vdW  Elec       q    Type
REMARK                         _______ _______ _______ _____ _____    ______ ____
ROOT
ATOM      1  C   UNK     1      36.160 -23.304 -13.172  0.00  0.00    +0.143 C 
ENDROOT
BRANCH   1   2
ATOM      2  O   UNK     1      37.287 -22.896 -13.928  0.00  0.00    -0.275 OA
BRANCH   2   3
ATOM      3  P   UNK     1      37.591 -23.577 -15.367  0.00  0.00    +0.480 P 
ATOM      4  O   UNK     1      39.037 -23.545 -15.776  0.00  0.00    -0.227 OA
BRANCH   3   5
ATOM      5  O   UNK     1      36.955 -25.063 -15.255  0.00  0.00    -0.273 OA
BRANCH   5   6
ATOM      6  C   UNK     1      37.792 -26.126 -14.831  0.00  0.00    +0.154 C 
ATOM      7  C   UNK     1      37.099 -26.886 -13.720  0.00  0.00    +0.035 C 
ENDBRANCH   5   6
ENDBRANCH   3   5
BRANCH   3   8
ATOM      8  O   UNK     1      36.584 -22.826 -16.390  0.00  0.00    -0.273 OA
BRANCH   8   9
ATOM      9  C   UNK     1      37.023 -21.632 -17.015  0.00  0.00    +0.154 C 
ATOM     10  C   UNK     1      36.525 -21.611 -18.444  0.00  0.00    +0.035 C 
ENDBRANCH   8   9
ENDBRANCH   3   8
ENDBRANCH   2   3
ENDBRANCH   1   2
BRANCH   1  11
ATOM     11  C   UNK     1      36.552 -23.425 -11.702  0.00  0.00    +0.066 C 
BRANCH  11  12
ATOM     12  N   UNK     1      37.882 -24.022 -11.591  0.00  0.00    +0.390 N 
ATOM     13  H   UNK     1      38.008 -24.397 -10.651  0.00  0.00    -0.088 HD
ATOM     14  H   UNK     1      38.590 -23.310 -11.772  0.00  0.00    -0.088 HD
ATOM     15  H   UNK     1      37.975 -24.776 -12.272  0.00  0.00    -0.088 HD
ENDBRANCH  11  12
BRANCH  11  17
ATOM     16  O   UNK     1      35.551 -24.526  -9.758  0.00  0.00    -0.253 OA
ATOM     17  C   UNK     1      35.586 -24.333 -10.965  0.00  0.00    +0.295 C 
BRANCH  17  18
ATOM     18  O   UNK     1      34.738 -24.936 -11.840  0.00  0.00    -0.482 OA
ATOM     19  H   UNK     1      33.812 -24.863 -11.719  0.00  0.00    +0.295 HD
ENDBRANCH  17  18
ENDBRANCH  11  17
ENDBRANCH   1  11
TORSDOF 10
ENDMDL
MODEL 5
REMARK VINA RESULT:      -5.8      6.900      9.315
REMARK  Name = 17754161
REMARK  10 active torsions:
REMARK  status: ('A' for Active; 'I' for Inactive)
REMARK    1  A    between atoms: C_1  and  O_2
REMARK    2  A    between atoms: C_1  and  C_11
REMARK    3  A    between atoms: O_2  and  P_3
REMARK    4  A    between atoms: P_3  and  O_5
REMARK    5  A    between atoms: P_3  and  O_8
REMARK    6  A    between atoms: O_5  and  C_6
REMARK    7  A    between atoms: O_8  and  C_9
REMARK    8  A    between atoms: C_11  and  N_12
REMARK    9  A    between atoms: C_11  and  C_17
REMARK   10  A    between atoms: C_17  and  O_18
REMARK                            x       y       z     vdW  Elec       q    Type
REMARK                         _______ _______ _______ _____ _____    ______ ____
ROOT
ATOM      1  C   UNK     1      35.853 -21.067 -20.304  0.00  0.00    +0.143 C 
ENDROOT
BRANCH   1   2
ATOM      2  O   UNK     1      36.017 -19.660 -20.345  0.00  0.00    -0.275 OA
BRANCH   2   3
ATOM      3  P   UNK     1      35.011 -18.750 -21.230  0.00  0.00    +0.480 P 
ATOM      4  O   UNK     1      33.577 -19.200 -21.200  0.00  0.00    -0.227 OA
BRANCH   3   5
ATOM      5  O   UNK     1      35.254 -17.240 -20.696  0.00  0.00    -0.273 OA
BRANCH   5   6
ATOM      6  C   UNK     1      34.763 -16.161 -21.472  0.00  0.00    +0.154 C 
ATOM      7  C   UNK     1      34.127 -15.140 -20.552  0.00  0.00    +0.035 C 
ENDBRANCH   5   6
ENDBRANCH   3   5
BRANCH   3   8
ATOM      8  O   UNK     1      35.679 -18.725 -22.706  0.00  0.00    -0.273 OA
BRANCH   8   9
ATOM      9  C   UNK     1      34.915 -19.200 -23.801  0.00  0.00    +0.154 C 
ATOM     10  C   UNK     1      34.609 -18.044 -24.728  0.00  0.00    +0.035 C 
ENDBRANCH   8   9
ENDBRANCH   3   8
ENDBRANCH   2   3
ENDBRANCH   1   2
BRANCH   1  11
ATOM     11  C   UNK     1      35.053 -21.448 -19.062  0.00  0.00    +0.066 C 
BRANCH  11  12
ATOM     12  N   UNK     1      35.928 -22.100 -18.088  0.00  0.00    +0.390 N 
ATOM     13  H   UNK     1      36.560 -21.408 -17.684  0.00  0.00    -0.088 HD
ATOM     14  H   UNK     1      36.472 -22.827 -18.553  0.00  0.00    -0.088 HD
ATOM     15  H   UNK     1      35.363 -22.516 -17.348  0.00  0.00    -0.088 HD
ENDBRANCH  11  12
BRANCH  11  17
ATOM     16  O   UNK     1      34.014 -23.651 -19.306  0.00  0.00    -0.253 OA
ATOM     17  C   UNK     1      33.956 -22.434 -19.415  0.00  0.00    +0.295 C 
BRANCH  17  18
ATOM     18  O   UNK     1      32.864 -21.780 -19.891  0.00  0.00    -0.482 OA
ATOM     19  H   UNK     1      32.943 -21.221 -20.639  0.00  0.00    +0.295 HD
ENDBRANCH  17  18
ENDBRANCH  11  17
ENDBRANCH   1  11
TORSDOF 10
ENDMDL
MODEL 6
REMARK VINA RESULT:      -5.8      2.338      4.203
REMARK  Name = 17754161
REMARK  10 active torsions:
REMARK  status: ('A' for Active; 'I' for Inactive)
REMARK    1  A    between atoms: C_1  and  O_2
REMARK    2  A    between atoms: C_1  and  C_11
REMARK    3  A    between atoms: O_2  and  P_3
REMARK    4  A    between atoms: P_3  and  O_5
REMARK    5  A    between atoms: P_3  and  O_8
REMARK    6  A    between atoms: O_5  and  C_6
REMARK    7  A    between atoms: O_8  and  C_9
REMARK    8  A    between atoms: C_11  and  N_12
REMARK    9  A    between atoms: C_11  and  C_17
REMARK   10  A    between atoms: C_17  and  O_18
REMARK                            x       y       z     vdW  Elec       q    Type
REMARK                         _______ _______ _______ _____ _____    ______ ____
ROOT
ATOM      1  C   UNK     1      37.665 -25.694 -15.014  0.00  0.00    +0.143 C 
ENDROOT
BRANCH   1   2
ATOM      2  O   UNK     1      37.514 -24.330 -15.364  0.00  0.00    -0.275 OA
BRANCH   2   3
ATOM      3  P   UNK     1      36.153 -23.537 -14.982  0.00  0.00    +0.480 P 
ATOM      4  O   UNK     1      35.866 -23.471 -13.508  0.00  0.00    -0.227 OA
BRANCH   3   5
ATOM      5  O   UNK     1      36.307 -22.095 -15.704  0.00  0.00    -0.273 OA
BRANCH   5   6
ATOM      6  C   UNK     1      37.328 -21.931 -16.675  0.00  0.00    +0.154 C 
ATOM      7  C   UNK     1      36.689 -21.646 -18.018  0.00  0.00    +0.035 C 
ENDBRANCH   5   6
ENDBRANCH   3   5
BRANCH   3   8
ATOM      8  O   UNK     1      35.002 -24.263 -15.862  0.00  0.00    -0.273 OA
BRANCH   8   9
ATOM      9  C   UNK     1      33.929 -23.475 -16.351  0.00  0.00    +0.154 C 
ATOM     10  C   UNK     1      32.870 -23.362 -15.276  0.00  0.00    +0.035 C 
ENDBRANCH   8   9
ENDBRANCH   3   8
ENDBRANCH   2   3
ENDBRANCH   1   2
BRANCH   1  11
ATOM     11  C   UNK     1      38.878 -25.853 -14.102  0.00  0.00    +0.066 C 
BRANCH  11  12
ATOM     12  N   UNK     1      38.697 -25.053 -12.892  0.00  0.00    +0.390 N 
ATOM     13  H   UNK     1      39.557 -25.070 -12.342  0.00  0.00    -0.088 HD
ATOM     14  H   UNK     1      37.932 -25.440 -12.340  0.00  0.00    -0.088 HD
ATOM     15  H   UNK     1      38.479 -24.090 -13.150  0.00  0.00    -0.088 HD
ENDBRANCH  11  12
BRANCH  11  17
ATOM     16  O   UNK     1      40.958 -24.580 -14.323  0.00  0.00    -0.253 OA
ATOM     17  C   UNK     1      40.133 -25.353 -14.791  0.00  0.00    +0.295 C 
BRANCH  17  18
ATOM     18  O   UNK     1      40.232 -25.879 -16.041  0.00  0.00    -0.482 OA
ATOM     19  H   UNK     1      40.358 -25.313 -16.777  0.00  0.00    +0.295 HD
ENDBRANCH  17  18
ENDBRANCH  11  17
ENDBRANCH   1  11
TORSDOF 10
ENDMDL
MODEL 7
REMARK VINA RESULT:      -5.7      6.907      9.642
REMARK  Name = 17754161
REMARK  10 active torsions:
REMARK  status: ('A' for Active; 'I' for Inactive)
REMARK    1  A    between atoms: C_1  and  O_2
REMARK    2  A    between atoms: C_1  and  C_11
REMARK    3  A    between atoms: O_2  and  P_3
REMARK    4  A    between atoms: P_3  and  O_5
REMARK    5  A    between atoms: P_3  and  O_8
REMARK    6  A    between atoms: O_5  and  C_6
REMARK    7  A    between atoms: O_8  and  C_9
REMARK    8  A    between atoms: C_11  and  N_12
REMARK    9  A    between atoms: C_11  and  C_17
REMARK   10  A    between atoms: C_17  and  O_18
REMARK                            x       y       z     vdW  Elec       q    Type
REMARK                         _______ _______ _______ _____ _____    ______ ____
ROOT
ATOM      1  C   UNK     1      33.492 -20.300 -20.153  0.00  0.00    +0.143 C 
ENDROOT
BRANCH   1   2
ATOM      2  O   UNK     1      34.170 -20.021 -21.365  0.00  0.00    -0.275 OA
BRANCH   2   3
ATOM      3  P   UNK     1      35.127 -18.718 -21.481  0.00  0.00    +0.480 P 
ATOM      4  O   UNK     1      36.264 -18.693 -20.498  0.00  0.00    -0.227 OA
BRANCH   3   5
ATOM      5  O   UNK     1      35.581 -18.685 -23.036  0.00  0.00    -0.273 OA
BRANCH   5   6
ATOM      6  C   UNK     1      34.604 -18.943 -24.030  0.00  0.00    +0.154 C 
ATOM      7  C   UNK     1      34.578 -17.788 -25.009  0.00  0.00    +0.035 C 
ENDBRANCH   5   6
ENDBRANCH   3   5
BRANCH   3   8
ATOM      8  O   UNK     1      34.112 -17.459 -21.372  0.00  0.00    -0.273 OA
BRANCH   8   9
ATOM      9  C   UNK     1      34.643 -16.193 -21.019  0.00  0.00    +0.154 C 
ATOM     10  C   UNK     1      34.531 -15.263 -22.207  0.00  0.00    +0.035 C 
ENDBRANCH   8   9
ENDBRANCH   3   8
ENDBRANCH   2   3
ENDBRANCH   1   2
BRANCH   1  11
ATOM     11  C   UNK     1      33.687 -21.769 -19.790  0.00  0.00    +0.066 C 
BRANCH  11  12
ATOM     12  N   UNK     1      32.699 -22.167 -18.788  0.00  0.00    +0.390 N 
ATOM     13  H   UNK     1      31.874 -21.572 -18.870  0.00  0.00    -0.088 HD
ATOM     14  H   UNK     1      33.100 -22.067 -17.856  0.00  0.00    -0.088 HD
ATOM     15  H   UNK     1      32.432 -23.140 -18.942  0.00  0.00    -0.088 HD
ENDBRANCH  11  12
BRANCH  11  17
ATOM     16  O   UNK     1      35.296 -22.397 -18.055  0.00  0.00    -0.253 OA
ATOM     17  C   UNK     1      35.060 -21.992 -19.185  0.00  0.00    +0.295 C 
BRANCH  17  18
ATOM     18  O   UNK     1      36.032 -21.669 -20.078  0.00  0.00    -0.482 OA
ATOM     19  H   UNK     1      36.120 -20.784 -20.373  0.00  0.00    +0.295 HD
ENDBRANCH  17  18
ENDBRANCH  11  17
ENDBRANCH   1  11
TORSDOF 10
ENDMDL
MODEL 8
REMARK VINA RESULT:      -5.7      1.982      3.474
REMARK  Name = 17754161
REMARK  10 active torsions:
REMARK  status: ('A' for Active; 'I' for Inactive)
REMARK    1  A    between atoms: C_1  and  O_2
REMARK    2  A    between atoms: C_1  and  C_11
REMARK    3  A    between atoms: O_2  and  P_3
REMARK    4  A    between atoms: P_3  and  O_5
REMARK    5  A    between atoms: P_3  and  O_8
REMARK    6  A    between atoms: O_5  and  C_6
REMARK    7  A    between atoms: O_8  and  C_9
REMARK    8  A    between atoms: C_11  and  N_12
REMARK    9  A    between atoms: C_11  and  C_17
REMARK   10  A    between atoms: C_17  and  O_18
REMARK                            x       y       z     vdW  Elec       q    Type
REMARK                         _______ _______ _______ _____ _____    ______ ____
ROOT
ATOM      1  C   UNK     1      37.059 -26.020 -14.548  0.00  0.00    +0.143 C 
ENDROOT
BRANCH   1   2
ATOM      2  O   UNK     1      36.605 -25.089 -15.515  0.00  0.00    -0.275 OA
BRANCH   2   3
ATOM      3  P   UNK     1      35.340 -24.130 -15.190  0.00  0.00    +0.480 P 
ATOM      4  O   UNK     1      34.628 -24.454 -13.906  0.00  0.00    -0.227 OA
BRANCH   3   5
ATOM      5  O   UNK     1      35.940 -22.627 -15.268  0.00  0.00    -0.273 OA
BRANCH   5   6
ATOM      6  C   UNK     1      37.214 -22.438 -15.860  0.00  0.00    +0.154 C 
ATOM      7  C   UNK     1      37.073 -21.509 -17.047  0.00  0.00    +0.035 C 
ENDBRANCH   5   6
ENDBRANCH   3   5
BRANCH   3   8
ATOM      8  O   UNK     1      34.413 -24.220 -16.516  0.00  0.00    -0.273 OA
BRANCH   8   9
ATOM      9  C   UNK     1      33.527 -23.149 -16.794  0.00  0.00    +0.154 C 
ATOM     10  C   UNK     1      33.669 -22.755 -18.248  0.00  0.00    +0.035 C 
ENDBRANCH   8   9
ENDBRANCH   3   8
ENDBRANCH   2   3
ENDBRANCH   1   2
BRANCH   1  11
ATOM     11  C   UNK     1      38.087 -25.349 -13.642  0.00  0.00    +0.066 C 
BRANCH  11  12
ATOM     12  N   UNK     1      39.343 -26.096 -13.679  0.00  0.00    +0.390 N 
ATOM     13  H   UNK     1      39.544 -26.375 -14.640  0.00  0.00    -0.088 HD
ATOM     14  H   UNK     1      39.262 -26.927 -13.093  0.00  0.00    -0.088 HD
ATOM     15  H   UNK     1      40.100 -25.507 -13.333  0.00  0.00    -0.088 HD
ENDBRANCH  11  12
BRANCH  11  17
ATOM     16  O   UNK     1      37.900 -24.520 -11.346  0.00  0.00    -0.253 OA
ATOM     17  C   UNK     1      37.607 -25.342 -12.203  0.00  0.00    +0.295 C 
BRANCH  17  18
ATOM     18  O   UNK     1      36.788 -26.401 -11.969  0.00  0.00    -0.482 OA
ATOM     19  H   UNK     1      37.135 -27.186 -11.592  0.00  0.00    +0.295 HD
ENDBRANCH  17  18
ENDBRANCH  11  17
ENDBRANCH   1  11
TORSDOF 10
ENDMDL
MODEL 9
REMARK VINA RESULT:      -5.7      1.964      3.713
REMARK  Name = 17754161
REMARK  10 active torsions:
REMARK  status: ('A' for Active; 'I' for Inactive)
REMARK    1  A    between atoms: C_1  and  O_2
REMARK    2  A    between atoms: C_1  and  C_11
REMARK    3  A    between atoms: O_2  and  P_3
REMARK    4  A    between atoms: P_3  and  O_5
REMARK    5  A    between atoms: P_3  and  O_8
REMARK    6  A    between atoms: O_5  and  C_6
REMARK    7  A    between atoms: O_8  and  C_9
REMARK    8  A    between atoms: C_11  and  N_12
REMARK    9  A    between atoms: C_11  and  C_17
REMARK   10  A    between atoms: C_17  and  O_18
REMARK                            x       y       z     vdW  Elec       q    Type
REMARK                         _______ _______ _______ _____ _____    ______ ____
ROOT
ATOM      1  C   UNK     1      37.375 -26.028 -13.299  0.00  0.00    +0.143 C 
ENDROOT
BRANCH   1   2
ATOM      2  O   UNK     1      36.609 -24.922 -13.745  0.00  0.00    -0.275 OA
BRANCH   2   3
ATOM      3  P   UNK     1      35.711 -25.042 -15.088  0.00  0.00    +0.480 P 
ATOM      4  O   UNK     1      35.852 -26.351 -15.814  0.00  0.00    -0.227 OA
BRANCH   3   5
ATOM      5  O   UNK     1      34.204 -24.700 -14.601  0.00  0.00    -0.273 OA
BRANCH   5   6
ATOM      6  C   UNK     1      33.602 -23.501 -15.058  0.00  0.00    +0.154 C 
ATOM      7  C   UNK     1      32.151 -23.481 -14.625  0.00  0.00    +0.035 C 
ENDBRANCH   5   6
ENDBRANCH   3   5
BRANCH   3   8
ATOM      8  O   UNK     1      36.115 -23.739 -15.963  0.00  0.00    -0.273 OA
BRANCH   8   9
ATOM      9  C   UNK     1      37.263 -23.000 -15.582  0.00  0.00    +0.154 C 
ATOM     10  C   UNK     1      37.350 -21.751 -16.432  0.00  0.00    +0.035 C 
ENDBRANCH   8   9
ENDBRANCH   3   8
ENDBRANCH   2   3
ENDBRANCH   1   2
BRANCH   1  11
ATOM     11  C   UNK     1      38.778 -25.557 -12.929  0.00  0.00    +0.066 C 
BRANCH  11  12
ATOM     12  N   UNK     1      38.712 -24.228 -12.323  0.00  0.00    +0.390 N 
ATOM     13  H   UNK     1      37.764 -24.057 -11.985  0.00  0.00    -0.088 HD
ATOM     14  H   UNK     1      38.956 -23.524 -13.019  0.00  0.00    -0.088 HD
ATOM     15  H   UNK     1      39.365 -24.177 -11.542  0.00  0.00    -0.088 HD
ENDBRANCH  11  12
BRANCH  11  17
ATOM     16  O   UNK     1      40.736 -24.891 -14.239  0.00  0.00    -0.253 OA
ATOM     17  C   UNK     1      39.649 -25.447 -14.166  0.00  0.00    +0.295 C 
BRANCH  17  18
ATOM     18  O   UNK     1      39.051 -26.055 -15.224  0.00  0.00    -0.482 OA
ATOM     19  H   UNK     1      38.151 -25.881 -15.416  0.00  0.00    +0.295 HD
ENDBRANCH  17  18
ENDBRANCH  11  17
ENDBRANCH   1  11
TORSDOF 10
ENDMDL
