MODEL 1
REMARK VINA RESULT:      -9.9      0.000      0.000
REMARK  Name = 10221335
REMARK  5 active torsions:
REMARK  status: ('A' for Active; 'I' for Inactive)
REMARK    1  A    between atoms: N_2  and  C_13
REMARK    2  A    between atoms: C_3  and  C_5
REMARK    3  A    between atoms: C_10  and  C_12
REMARK    4  A    between atoms: C_13  and  C_14
REMARK    5  A    between atoms: C_14  and  C_16
REMARK                            x       y       z     vdW  Elec       q    Type
REMARK                         _______ _______ _______ _____ _____    ______ ____
ROOT
ATOM      1  O   UNL     1      35.316 -17.420 -21.398  0.00  0.00    -0.270 OA
ATOM      2  N   UNL     1      35.053 -18.825 -23.224  0.00  0.00    -0.300 N 
ATOM      3  C   UNL     1      35.041 -18.544 -21.853  0.00  0.00    +0.246 C 
ATOM      4  H   UNL     1      34.825 -19.737 -23.514  0.00  0.00    +0.150 HD
ENDROOT
BRANCH   3   5
ATOM      5  C   UNL     1      34.711 -19.642 -20.957  0.00  0.00    +0.053 C 
ATOM      6  C   UNL     1      35.728 -20.430 -20.417  0.00  0.00    +0.005 C 
ATOM      7  C   UNL     1      33.380 -19.906 -20.638  0.00  0.00    +0.005 C 
ATOM      8  C   UNL     1      35.412 -21.484 -19.559  0.00  0.00    +0.010 C 
ATOM      9  C   UNL     1      33.064 -20.959 -19.779  0.00  0.00    +0.010 C 
ATOM     10  C   UNL     1      34.081 -21.748 -19.240  0.00  0.00    +0.068 C 
BRANCH  10  12
ATOM     11  N   UNL     1      33.493 -23.702 -17.644  0.00  0.00    -0.191 NA
ATOM     12  C   UNL     1      33.756 -22.826 -18.359  0.00  0.00    +0.100 C 
ENDBRANCH  10  12
ENDBRANCH   3   5
BRANCH   2  13
ATOM     13  C   UNL     1      35.383 -17.849 -24.236  0.00  0.00    +0.097 C 
BRANCH  13  14
ATOM     14  C   UNL     1      34.199 -17.522 -25.143  0.00  0.00    +0.080 C 
BRANCH  14  16
ATOM     15  N   UNL     1      33.657 -15.464 -26.296  0.00  0.00    -0.396 NA
ATOM     16  C   UNL     1      33.811 -16.065 -25.103  0.00  0.00    +0.111 C 
ATOM     17  C   UNL     1      33.643 -15.457 -23.878  0.00  0.00    +0.020 C 
ATOM     18  C   UNL     1      33.285 -14.114 -23.875  0.00  0.00    -0.033 C 
ATOM     19  C   UNL     1      33.113 -13.444 -25.083  0.00  0.00    +0.096 C 
ATOM     20  C   UNL     1      33.309 -14.158 -26.254  0.00  0.00    +0.157 C 
ATOM     21  C   UNL     1      33.087 -13.392 -22.586  0.00  0.00    +0.027 C 
ATOM     22  N   UNL     1      33.132 -13.462 -27.475  0.00  0.00    -0.336 N 
ATOM     23  H   UNL     1      33.261 -13.929 -28.331  0.00  0.00    +0.144 HD
ATOM     24  H   UNL     1      32.880 -12.510 -27.467  0.00  0.00    +0.144 HD
ENDBRANCH  14  16
ENDBRANCH  13  14
ENDBRANCH   2  13
TORSDOF 5
ENDMDL
MODEL 2
REMARK VINA RESULT:      -9.8      1.824      2.520
REMARK  Name = 10221335
REMARK  5 active torsions:
REMARK  status: ('A' for Active; 'I' for Inactive)
REMARK    1  A    between atoms: N_2  and  C_13
REMARK    2  A    between atoms: C_3  and  C_5
REMARK    3  A    between atoms: C_10  and  C_12
REMARK    4  A    between atoms: C_13  and  C_14
REMARK    5  A    between atoms: C_14  and  C_16
REMARK                            x       y       z     vdW  Elec       q    Type
REMARK                         _______ _______ _______ _____ _____    ______ ____
ROOT
ATOM      1  O   UNL     1      35.600 -18.412 -23.084  0.00  0.00    -0.270 OA
ATOM      2  N   UNL     1      34.575 -16.987 -21.569  0.00  0.00    -0.300 N 
ATOM      3  C   UNL     1      35.010 -18.245 -22.002  0.00  0.00    +0.246 C 
ATOM      4  H   UNL     1      34.114 -16.927 -20.702  0.00  0.00    +0.150 HD
ENDROOT
BRANCH   3   5
ATOM      5  C   UNL     1      34.722 -19.377 -21.136  0.00  0.00    +0.053 C 
ATOM      6  C   UNL     1      33.400 -19.698 -20.825  0.00  0.00    +0.005 C 
ATOM      7  C   UNL     1      35.766 -20.141 -20.616  0.00  0.00    +0.005 C 
ATOM      8  C   UNL     1      33.124 -20.784 -19.993  0.00  0.00    +0.010 C 
ATOM      9  C   UNL     1      35.489 -21.227 -19.785  0.00  0.00    +0.010 C 
ATOM     10  C   UNL     1      34.168 -21.548 -19.474  0.00  0.00    +0.068 C 
BRANCH  10  12
ATOM     11  N   UNL     1      33.656 -23.566 -17.932  0.00  0.00    -0.191 NA
ATOM     12  C   UNL     1      33.886 -22.661 -18.623  0.00  0.00    +0.100 C 
ENDBRANCH  10  12
ENDBRANCH   3   5
BRANCH   2  13
ATOM     13  C   UNL     1      34.764 -15.772 -22.328  0.00  0.00    +0.097 C 
BRANCH  13  14
ATOM     14  C   UNL     1      33.529 -15.389 -23.139  0.00  0.00    +0.080 C 
BRANCH  14  16
ATOM     15  N   UNL     1      33.982 -13.154 -23.952  0.00  0.00    -0.396 NA
ATOM     16  C   UNL     1      33.246 -13.907 -23.115  0.00  0.00    +0.111 C 
ATOM     17  C   UNL     1      32.277 -13.431 -22.260  0.00  0.00    +0.020 C 
ATOM     18  C   UNL     1      32.040 -12.061 -22.263  0.00  0.00    -0.033 C 
ATOM     19  C   UNL     1      32.774 -11.236 -23.109  0.00  0.00    +0.096 C 
ATOM     20  C   UNL     1      33.725 -11.827 -23.927  0.00  0.00    +0.157 C 
ATOM     21  C   UNL     1      31.006 -11.476 -21.363  0.00  0.00    +0.027 C 
ATOM     22  N   UNL     1      34.465 -10.974 -24.781  0.00  0.00    -0.336 N 
ATOM     23  H   UNL     1      35.151 -11.350 -25.379  0.00  0.00    +0.144 HD
ATOM     24  H   UNL     1      34.294 -10.004 -24.778  0.00  0.00    +0.144 HD
ENDBRANCH  14  16
ENDBRANCH  13  14
ENDBRANCH   2  13
TORSDOF 5
ENDMDL
MODEL 3
REMARK VINA RESULT:      -9.8      2.090      9.010
REMARK  Name = 10221335
REMARK  5 active torsions:
REMARK  status: ('A' for Active; 'I' for Inactive)
REMARK    1  A    between atoms: N_2  and  C_13
REMARK    2  A    between atoms: C_3  and  C_5
REMARK    3  A    between atoms: C_10  and  C_12
REMARK    4  A    between atoms: C_13  and  C_14
REMARK    5  A    between atoms: C_14  and  C_16
REMARK                            x       y       z     vdW  Elec       q    Type
REMARK                         _______ _______ _______ _____ _____    ______ ____
ROOT
ATOM      1  O   UNL     1      36.734 -19.324 -20.237  0.00  0.00    -0.270 OA
ATOM      2  N   UNL     1      34.784 -20.561 -20.445  0.00  0.00    -0.300 N 
ATOM      3  C   UNL     1      35.669 -19.550 -20.837  0.00  0.00    +0.246 C 
ATOM      4  H   UNL     1      33.958 -20.685 -20.965  0.00  0.00    +0.150 HD
ENDROOT
BRANCH   3   5
ATOM      5  C   UNL     1      35.280 -18.741 -21.982  0.00  0.00    +0.053 C 
ATOM      6  C   UNL     1      35.270 -17.350 -21.880  0.00  0.00    +0.005 C 
ATOM      7  C   UNL     1      34.917 -19.356 -23.180  0.00  0.00    +0.005 C 
ATOM      8  C   UNL     1      34.897 -16.573 -22.978  0.00  0.00    +0.010 C 
ATOM      9  C   UNL     1      34.545 -18.579 -24.277  0.00  0.00    +0.010 C 
ATOM     10  C   UNL     1      34.534 -17.188 -24.175  0.00  0.00    +0.068 C 
BRANCH  10  12
ATOM     11  N   UNL     1      33.843 -15.748 -26.215  0.00  0.00    -0.191 NA
ATOM     12  C   UNL     1      34.153 -16.393 -25.301  0.00  0.00    +0.100 C 
ENDBRANCH  10  12
ENDBRANCH   3   5
BRANCH   2  13
ATOM     13  C   UNL     1      35.017 -21.432 -19.316  0.00  0.00    +0.097 C 
BRANCH  13  14
ATOM     14  C   UNL     1      34.080 -22.637 -19.302  0.00  0.00    +0.080 C 
BRANCH  14  16
ATOM     15  N   UNL     1      32.080 -22.681 -17.940  0.00  0.00    -0.396 NA
ATOM     16  C   UNL     1      33.413 -22.850 -17.966  0.00  0.00    +0.111 C 
ATOM     17  C   UNL     1      34.192 -23.194 -16.883  0.00  0.00    +0.020 C 
ATOM     18  C   UNL     1      33.547 -23.383 -15.666  0.00  0.00    -0.033 C 
ATOM     19  C   UNL     1      32.168 -23.221 -15.585  0.00  0.00    +0.096 C 
ATOM     20  C   UNL     1      31.487 -22.873 -16.740  0.00  0.00    +0.157 C 
ATOM     21  C   UNL     1      34.328 -23.757 -14.453  0.00  0.00    +0.027 C 
ATOM     22  N   UNL     1      30.083 -22.709 -16.642  0.00  0.00    -0.336 N 
ATOM     23  H   UNL     1      29.559 -22.462 -17.437  0.00  0.00    +0.144 HD
ATOM     24  H   UNL     1      29.632 -22.843 -15.776  0.00  0.00    +0.144 HD
ENDBRANCH  14  16
ENDBRANCH  13  14
ENDBRANCH   2  13
TORSDOF 5
ENDMDL
MODEL 4
REMARK VINA RESULT:      -9.8      2.388      2.947
REMARK  Name = 10221335
REMARK  5 active torsions:
REMARK  status: ('A' for Active; 'I' for Inactive)
REMARK    1  A    between atoms: N_2  and  C_13
REMARK    2  A    between atoms: C_3  and  C_5
REMARK    3  A    between atoms: C_10  and  C_12
REMARK    4  A    between atoms: C_13  and  C_14
REMARK    5  A    between atoms: C_14  and  C_16
REMARK                            x       y       z     vdW  Elec       q    Type
REMARK                         _______ _______ _______ _____ _____    ______ ____
ROOT
ATOM      1  O   UNL     1      35.746 -17.896 -22.927  0.00  0.00    -0.270 OA
ATOM      2  N   UNL     1      34.433 -16.664 -21.465  0.00  0.00    -0.300 N 
ATOM      3  C   UNL     1      35.022 -17.851 -21.917  0.00  0.00    +0.246 C 
ATOM      4  H   UNL     1      33.871 -16.701 -20.659  0.00  0.00    +0.150 HD
ENDROOT
BRANCH   3   5
ATOM      5  C   UNL     1      34.732 -19.060 -21.163  0.00  0.00    +0.053 C 
ATOM      6  C   UNL     1      35.777 -19.859 -20.697  0.00  0.00    +0.005 C 
ATOM      7  C   UNL     1      33.410 -19.422 -20.906  0.00  0.00    +0.005 C 
ATOM      8  C   UNL     1      35.500 -21.019 -19.974  0.00  0.00    +0.010 C 
ATOM      9  C   UNL     1      33.133 -20.582 -20.182  0.00  0.00    +0.010 C 
ATOM     10  C   UNL     1      34.178 -21.380 -19.717  0.00  0.00    +0.068 C 
BRANCH  10  12
ATOM     11  N   UNL     1      33.661 -23.534 -18.372  0.00  0.00    -0.191 NA
ATOM     12  C   UNL     1      33.892 -22.569 -18.975  0.00  0.00    +0.100 C 
ENDBRANCH  10  12
ENDBRANCH   3   5
BRANCH   2  13
ATOM     13  C   UNL     1      34.606 -15.388 -22.120  0.00  0.00    +0.097 C 
BRANCH  13  14
ATOM     14  C   UNL     1      33.438 -15.037 -23.038  0.00  0.00    +0.080 C 
BRANCH  14  16
ATOM     15  N   UNL     1      32.062 -13.202 -22.265  0.00  0.00    -0.396 NA
ATOM     16  C   UNL     1      33.105 -13.566 -23.032  0.00  0.00    +0.111 C 
ATOM     17  C   UNL     1      33.870 -12.710 -23.792  0.00  0.00    +0.020 C 
ATOM     18  C   UNL     1      33.537 -11.360 -23.764  0.00  0.00    -0.033 C 
ATOM     19  C   UNL     1      32.466 -10.930 -22.987  0.00  0.00    +0.096 C 
ATOM     20  C   UNL     1      31.767 -11.882 -22.262  0.00  0.00    +0.157 C 
ATOM     21  C   UNL     1      34.321 -10.377 -24.563  0.00  0.00    +0.027 C 
ATOM     22  N   UNL     1      30.678 -11.430 -21.477  0.00  0.00    -0.336 N 
ATOM     23  H   UNL     1      30.154 -12.071 -20.947  0.00  0.00    +0.144 HD
ATOM     24  H   UNL     1      30.446 -10.473 -21.463  0.00  0.00    +0.144 HD
ENDBRANCH  14  16
ENDBRANCH  13  14
ENDBRANCH   2  13
TORSDOF 5
ENDMDL
MODEL 5
REMARK VINA RESULT:      -9.8      2.095      9.253
REMARK  Name = 10221335
REMARK  5 active torsions:
REMARK  status: ('A' for Active; 'I' for Inactive)
REMARK    1  A    between atoms: N_2  and  C_13
REMARK    2  A    between atoms: C_3  and  C_5
REMARK    3  A    between atoms: C_10  and  C_12
REMARK    4  A    between atoms: C_13  and  C_14
REMARK    5  A    between atoms: C_14  and  C_16
REMARK                            x       y       z     vdW  Elec       q    Type
REMARK                         _______ _______ _______ _____ _____    ______ ____
ROOT
ATOM      1  O   UNL     1      36.755 -19.361 -20.311  0.00  0.00    -0.270 OA
ATOM      2  N   UNL     1      34.800 -20.591 -20.524  0.00  0.00    -0.300 N 
ATOM      3  C   UNL     1      35.685 -19.576 -20.907  0.00  0.00    +0.246 C 
ATOM      4  H   UNL     1      33.970 -20.705 -21.041  0.00  0.00    +0.150 HD
ENDROOT
BRANCH   3   5
ATOM      5  C   UNL     1      35.290 -18.747 -22.036  0.00  0.00    +0.053 C 
ATOM      6  C   UNL     1      35.245 -17.360 -21.900  0.00  0.00    +0.005 C 
ATOM      7  C   UNL     1      34.955 -19.340 -23.253  0.00  0.00    +0.005 C 
ATOM      8  C   UNL     1      34.865 -16.565 -22.982  0.00  0.00    +0.010 C 
ATOM      9  C   UNL     1      34.576 -18.546 -24.335  0.00  0.00    +0.010 C 
ATOM     10  C   UNL     1      34.531 -17.158 -24.199  0.00  0.00    +0.068 C 
BRANCH  10  12
ATOM     11  N   UNL     1      33.828 -15.683 -26.210  0.00  0.00    -0.191 NA
ATOM     12  C   UNL     1      34.143 -16.344 -25.309  0.00  0.00    +0.100 C 
ENDBRANCH  10  12
ENDBRANCH   3   5
BRANCH   2  13
ATOM     13  C   UNL     1      35.039 -21.480 -19.411  0.00  0.00    +0.097 C 
BRANCH  13  14
ATOM     14  C   UNL     1      33.913 -22.492 -19.216  0.00  0.00    +0.080 C 
BRANCH  14  16
ATOM     15  N   UNL     1      34.816 -23.102 -17.055  0.00  0.00    -0.396 NA
ATOM     16  C   UNL     1      33.702 -22.867 -17.770  0.00  0.00    +0.111 C 
ATOM     17  C   UNL     1      32.415 -22.945 -17.287  0.00  0.00    +0.020 C 
ATOM     18  C   UNL     1      32.254 -23.293 -15.951  0.00  0.00    -0.033 C 
ATOM     19  C   UNL     1      33.375 -23.547 -15.165  0.00  0.00    +0.096 C 
ATOM     20  C   UNL     1      34.621 -23.439 -15.760  0.00  0.00    +0.157 C 
ATOM     21  C   UNL     1      30.890 -23.396 -15.360  0.00  0.00    +0.027 C 
ATOM     22  N   UNL     1      35.752 -23.702 -14.948  0.00  0.00    -0.336 N 
ATOM     23  H   UNL     1      36.657 -23.638 -15.329  0.00  0.00    +0.144 HD
ATOM     24  H   UNL     1      35.632 -23.950 -14.003  0.00  0.00    +0.144 HD
ENDBRANCH  14  16
ENDBRANCH  13  14
ENDBRANCH   2  13
TORSDOF 5
ENDMDL
MODEL 6
REMARK VINA RESULT:      -9.7      1.541      2.303
REMARK  Name = 10221335
REMARK  5 active torsions:
REMARK  status: ('A' for Active; 'I' for Inactive)
REMARK    1  A    between atoms: N_2  and  C_13
REMARK    2  A    between atoms: C_3  and  C_5
REMARK    3  A    between atoms: C_10  and  C_12
REMARK    4  A    between atoms: C_13  and  C_14
REMARK    5  A    between atoms: C_14  and  C_16
REMARK                            x       y       z     vdW  Elec       q    Type
REMARK                         _______ _______ _______ _____ _____    ______ ____
ROOT
ATOM      1  O   UNL     1      35.266 -17.799 -23.155  0.00  0.00    -0.270 OA
ATOM      2  N   UNL     1      34.294 -16.534 -21.472  0.00  0.00    -0.300 N 
ATOM      3  C   UNL     1      34.730 -17.739 -22.035  0.00  0.00    +0.246 C 
ATOM      4  H   UNL     1      33.878 -16.559 -20.581  0.00  0.00    +0.150 HD
ENDROOT
BRANCH   3   5
ATOM      5  C   UNL     1      34.509 -18.949 -21.257  0.00  0.00    +0.053 C 
ATOM      6  C   UNL     1      33.210 -19.342 -20.934  0.00  0.00    +0.005 C 
ATOM      7  C   UNL     1      35.595 -19.714 -20.833  0.00  0.00    +0.005 C 
ATOM      8  C   UNL     1      32.998 -20.501 -20.187  0.00  0.00    +0.010 C 
ATOM      9  C   UNL     1      35.383 -20.873 -20.087  0.00  0.00    +0.010 C 
ATOM     10  C   UNL     1      34.084 -21.266 -19.764  0.00  0.00    +0.068 C 
BRANCH  10  12
ATOM     11  N   UNL     1      33.692 -23.421 -18.380  0.00  0.00    -0.191 NA
ATOM     12  C   UNL     1      33.867 -22.455 -19.000  0.00  0.00    +0.100 C 
ENDBRANCH  10  12
ENDBRANCH   3   5
BRANCH   2  13
ATOM     13  C   UNL     1      34.421 -15.254 -22.131  0.00  0.00    +0.097 C 
BRANCH  13  14
ATOM     14  C   UNL     1      33.139 -14.832 -22.843  0.00  0.00    +0.080 C 
BRANCH  14  16
ATOM     15  N   UNL     1      33.269 -14.165 -25.166  0.00  0.00    -0.396 NA
ATOM     16  C   UNL     1      33.368 -13.766 -23.886  0.00  0.00    +0.111 C 
ATOM     17  C   UNL     1      33.657 -12.485 -23.472  0.00  0.00    +0.020 C 
ATOM     18  C   UNL     1      33.863 -11.526 -24.458  0.00  0.00    -0.033 C 
ATOM     19  C   UNL     1      33.773 -11.887 -25.799  0.00  0.00    +0.096 C 
ATOM     20  C   UNL     1      33.476 -13.207 -26.098  0.00  0.00    +0.157 C 
ATOM     21  C   UNL     1      34.180 -10.119 -24.083  0.00  0.00    +0.027 C 
ATOM     22  N   UNL     1      33.389 -13.559 -27.467  0.00  0.00    -0.336 N 
ATOM     23  H   UNL     1      33.181 -14.485 -27.725  0.00  0.00    +0.144 HD
ATOM     24  H   UNL     1      33.537 -12.875 -28.161  0.00  0.00    +0.144 HD
ENDBRANCH  14  16
ENDBRANCH  13  14
ENDBRANCH   2  13
TORSDOF 5
ENDMDL
MODEL 7
REMARK VINA RESULT:      -9.7      3.618      9.702
REMARK  Name = 10221335
REMARK  5 active torsions:
REMARK  status: ('A' for Active; 'I' for Inactive)
REMARK    1  A    between atoms: N_2  and  C_13
REMARK    2  A    between atoms: C_3  and  C_5
REMARK    3  A    between atoms: C_10  and  C_12
REMARK    4  A    between atoms: C_13  and  C_14
REMARK    5  A    between atoms: C_14  and  C_16
REMARK                            x       y       z     vdW  Elec       q    Type
REMARK                         _______ _______ _______ _____ _____    ______ ____
ROOT
ATOM      1  O   UNL     1      34.096 -23.722 -19.478  0.00  0.00    -0.270 OA
ATOM      2  N   UNL     1      33.088 -22.475 -17.802  0.00  0.00    -0.300 N 
ATOM      3  C   UNL     1      33.760 -22.614 -19.022  0.00  0.00    +0.246 C 
ATOM      4  H   UNL     1      32.851 -21.569 -17.501  0.00  0.00    +0.150 HD
ENDROOT
BRANCH   3   5
ATOM      5  C   UNL     1      34.078 -21.392 -19.743  0.00  0.00    +0.053 C 
ATOM      6  C   UNL     1      35.408 -21.070 -20.016  0.00  0.00    +0.005 C 
ATOM      7  C   UNL     1      33.055 -20.542 -20.160  0.00  0.00    +0.005 C 
ATOM      8  C   UNL     1      35.714 -19.897 -20.706  0.00  0.00    +0.010 C 
ATOM      9  C   UNL     1      33.361 -19.369 -20.852  0.00  0.00    +0.010 C 
ATOM     10  C   UNL     1      34.691 -19.047 -21.124  0.00  0.00    +0.068 C 
BRANCH  10  12
ATOM     11  N   UNL     1      35.257 -16.870 -22.409  0.00  0.00    -0.191 NA
ATOM     12  C   UNL     1      35.003 -17.846 -21.834  0.00  0.00    +0.100 C 
ENDBRANCH  10  12
ENDBRANCH   3   5
BRANCH   2  13
ATOM     13  C   UNL     1      32.723 -23.591 -16.960  0.00  0.00    +0.097 C 
BRANCH  13  14
ATOM     14  C   UNL     1      33.309 -23.481 -15.554  0.00  0.00    +0.080 C 
BRANCH  14  16
ATOM     15  N   UNL     1      35.415 -22.383 -16.024  0.00  0.00    -0.396 NA
ATOM     16  C   UNL     1      34.818 -23.488 -15.543  0.00  0.00    +0.111 C 
ATOM     17  C   UNL     1      35.472 -24.596 -15.054  0.00  0.00    +0.020 C 
ATOM     18  C   UNL     1      36.862 -24.571 -15.057  0.00  0.00    -0.033 C 
ATOM     19  C   UNL     1      37.530 -23.452 -15.545  0.00  0.00    +0.096 C 
ATOM     20  C   UNL     1      36.767 -22.394 -16.012  0.00  0.00    +0.157 C 
ATOM     21  C   UNL     1      37.635 -25.737 -14.542  0.00  0.00    +0.027 C 
ATOM     22  N   UNL     1      37.461 -21.263 -16.507  0.00  0.00    -0.336 N 
ATOM     23  H   UNL     1      36.960 -20.489 -16.850  0.00  0.00    +0.144 HD
ATOM     24  H   UNL     1      38.446 -21.252 -16.508  0.00  0.00    +0.144 HD
ENDBRANCH  14  16
ENDBRANCH  13  14
ENDBRANCH   2  13
TORSDOF 5
ENDMDL
MODEL 8
REMARK VINA RESULT:      -9.5      3.302      9.881
REMARK  Name = 10221335
REMARK  5 active torsions:
REMARK  status: ('A' for Active; 'I' for Inactive)
REMARK    1  A    between atoms: N_2  and  C_13
REMARK    2  A    between atoms: C_3  and  C_5
REMARK    3  A    between atoms: C_10  and  C_12
REMARK    4  A    between atoms: C_13  and  C_14
REMARK    5  A    between atoms: C_14  and  C_16
REMARK                            x       y       z     vdW  Elec       q    Type
REMARK                         _______ _______ _______ _____ _____    ______ ____
ROOT
ATOM      1  O   UNL     1      36.010 -22.344 -18.635  0.00  0.00    -0.270 OA
ATOM      2  N   UNL     1      33.701 -22.345 -18.859  0.00  0.00    -0.300 N 
ATOM      3  C   UNL     1      34.981 -21.842 -19.121  0.00  0.00    +0.246 C 
ATOM      4  H   UNL     1      32.931 -21.899 -19.276  0.00  0.00    +0.150 HD
ENDROOT
BRANCH   3   5
ATOM      5  C   UNL     1      35.066 -20.672 -19.981  0.00  0.00    +0.053 C 
ATOM      6  C   UNL     1      33.904 -20.107 -20.507  0.00  0.00    +0.005 C 
ATOM      7  C   UNL     1      36.309 -20.116 -20.281  0.00  0.00    +0.005 C 
ATOM      8  C   UNL     1      33.986 -18.986 -21.333  0.00  0.00    +0.010 C 
ATOM      9  C   UNL     1      36.391 -18.994 -21.106  0.00  0.00    +0.010 C 
ATOM     10  C   UNL     1      35.228 -18.429 -21.632  0.00  0.00    +0.068 C 
BRANCH  10  12
ATOM     11  N   UNL     1      35.382 -16.345 -23.163  0.00  0.00    -0.191 NA
ATOM     12  C   UNL     1      35.313 -17.279 -22.477  0.00  0.00    +0.100 C 
ENDBRANCH  10  12
ENDBRANCH   3   5
BRANCH   2  13
ATOM     13  C   UNL     1      33.451 -23.485 -18.006  0.00  0.00    +0.097 C 
BRANCH  13  14
ATOM     14  C   UNL     1      33.335 -23.101 -16.533  0.00  0.00    +0.080 C 
BRANCH  14  16
ATOM     15  N   UNL     1      31.929 -24.108 -14.840  0.00  0.00    -0.396 NA
ATOM     16  C   UNL     1      31.964 -23.368 -15.962  0.00  0.00    +0.111 C 
ATOM     17  C   UNL     1      30.864 -22.851 -16.609  0.00  0.00    +0.020 C 
ATOM     18  C   UNL     1      29.615 -23.116 -16.057  0.00  0.00    -0.033 C 
ATOM     19  C   UNL     1      29.523 -23.877 -14.896  0.00  0.00    +0.096 C 
ATOM     20  C   UNL     1      30.698 -24.346 -14.332  0.00  0.00    +0.157 C 
ATOM     21  C   UNL     1      28.381 -22.588 -16.704  0.00  0.00    +0.027 C 
ATOM     22  N   UNL     1      30.588 -25.121 -13.152  0.00  0.00    -0.336 N 
ATOM     23  H   UNL     1      31.396 -25.474 -12.717  0.00  0.00    +0.144 HD
ATOM     24  H   UNL     1      29.701 -25.306 -12.766  0.00  0.00    +0.144 HD
ENDBRANCH  14  16
ENDBRANCH  13  14
ENDBRANCH   2  13
TORSDOF 5
ENDMDL
MODEL 9
REMARK VINA RESULT:      -9.5      3.231      9.478
REMARK  Name = 10221335
REMARK  5 active torsions:
REMARK  status: ('A' for Active; 'I' for Inactive)
REMARK    1  A    between atoms: N_2  and  C_13
REMARK    2  A    between atoms: C_3  and  C_5
REMARK    3  A    between atoms: C_10  and  C_12
REMARK    4  A    between atoms: C_13  and  C_14
REMARK    5  A    between atoms: C_14  and  C_16
REMARK                            x       y       z     vdW  Elec       q    Type
REMARK                         _______ _______ _______ _____ _____    ______ ____
ROOT
ATOM      1  O   UNL     1      36.058 -22.160 -18.848  0.00  0.00    -0.270 OA
ATOM      2  N   UNL     1      33.759 -22.253 -19.136  0.00  0.00    -0.300 N 
ATOM      3  C   UNL     1      35.022 -21.690 -19.350  0.00  0.00    +0.246 C 
ATOM      4  H   UNL     1      32.981 -21.829 -19.564  0.00  0.00    +0.150 HD
ENDROOT
BRANCH   3   5
ATOM      5  C   UNL     1      35.080 -20.496 -20.181  0.00  0.00    +0.053 C 
ATOM      6  C   UNL     1      36.310 -19.900 -20.459  0.00  0.00    +0.005 C 
ATOM      7  C   UNL     1      33.907 -19.948 -20.697  0.00  0.00    +0.005 C 
ATOM      8  C   UNL     1      36.366 -18.755 -21.254  0.00  0.00    +0.010 C 
ATOM      9  C   UNL     1      33.963 -18.804 -21.493  0.00  0.00    +0.010 C 
ATOM     10  C   UNL     1      35.193 -18.208 -21.771  0.00  0.00    +0.068 C 
BRANCH  10  12
ATOM     11  N   UNL     1      35.295 -16.083 -23.251  0.00  0.00    -0.191 NA
ATOM     12  C   UNL     1      35.249 -17.035 -22.587  0.00  0.00    +0.100 C 
ENDBRANCH  10  12
ENDBRANCH   3   5
BRANCH   2  13
ATOM     13  C   UNL     1      33.535 -23.422 -18.317  0.00  0.00    +0.097 C 
BRANCH  13  14
ATOM     14  C   UNL     1      33.529 -23.101 -16.825  0.00  0.00    +0.080 C 
BRANCH  14  16
ATOM     15  N   UNL     1      31.128 -22.821 -16.944  0.00  0.00    -0.396 NA
ATOM     16  C   UNL     1      32.164 -23.240 -16.197  0.00  0.00    +0.111 C 
ATOM     17  C   UNL     1      32.068 -23.774 -14.932  0.00  0.00    +0.020 C 
ATOM     18  C   UNL     1      30.796 -23.889 -14.382  0.00  0.00    -0.033 C 
ATOM     19  C   UNL     1      29.689 -23.470 -15.113  0.00  0.00    +0.096 C 
ATOM     20  C   UNL     1      29.907 -22.947 -16.378  0.00  0.00    +0.157 C 
ATOM     21  C   UNL     1      30.617 -24.458 -13.016  0.00  0.00    +0.027 C 
ATOM     22  N   UNL     1      28.770 -22.523 -17.109  0.00  0.00    -0.336 N 
ATOM     23  H   UNL     1      28.878 -22.145 -18.011  0.00  0.00    +0.144 HD
ATOM     24  H   UNL     1      27.872 -22.606 -16.714  0.00  0.00    +0.144 HD
ENDBRANCH  14  16
ENDBRANCH  13  14
ENDBRANCH   2  13
TORSDOF 5
ENDMDL
