MODEL 1
REMARK VINA RESULT:      -5.3      0.000      0.000
REMARK  Name = 29927142
REMARK  8 active torsions:
REMARK  status: ('A' for Active; 'I' for Inactive)
REMARK    1  A    between atoms: N_1  and  C_4
REMARK    2  A    between atoms: N_1  and  C_11
REMARK    3  A    between atoms: C_4  and  C_5
REMARK    4  A    between atoms: C_5  and  C_6
REMARK    5  A    between atoms: C_6  and  N_7
REMARK    6  A    between atoms: C_11  and  C_12
REMARK    7  A    between atoms: C_12  and  S_13
REMARK    8  A    between atoms: S_13  and  P_14
REMARK                            x       y       z     vdW  Elec       q    Type
REMARK                         _______ _______ _______ _____ _____    ______ ____
ROOT
ATOM      1  N   UNL     1      32.034 -22.930 -16.980  0.00  0.00    +0.384 N 
ATOM      2  H   UNL     1      31.258 -23.417 -17.431  0.00  0.00    -0.084 HD
ATOM      3  H   UNL     1      31.928 -21.915 -16.994  0.00  0.00    -0.084 HD
ENDROOT
BRANCH   1   4
ATOM      4  C   UNL     1      33.271 -23.234 -17.736  0.00  0.00    -0.084 C 
BRANCH   4   5
ATOM      5  C   UNL     1      33.543 -22.157 -18.783  0.00  0.00    -0.047 C 
BRANCH   5   6
ATOM      6  C   UNL     1      34.997 -22.001 -19.213  0.00  0.00    -0.088 C 
BRANCH   6   7
ATOM      7  N   UNL     1      35.229 -20.660 -19.797  0.00  0.00    +0.380 N 
ATOM      8  H   UNL     1      35.726 -20.077 -19.123  0.00  0.00    -0.089 HD
ATOM      9  H   UNL     1      34.333 -20.229 -20.025  0.00  0.00    -0.089 HD
ATOM     10  H   UNL     1      35.788 -20.751 -20.645  0.00  0.00    -0.089 HD
ENDBRANCH   6   7
ENDBRANCH   5   6
ENDBRANCH   4   5
ENDBRANCH   1   4
BRANCH   1  11
ATOM     11  C   UNL     1      32.071 -23.335 -15.549  0.00  0.00    -0.069 C 
BRANCH  11  12
ATOM     12  C   UNL     1      30.753 -22.998 -14.870  0.00  0.00    +0.046 C 
BRANCH  12  13
ATOM     13  S   UNL     1      29.454 -24.210 -15.252  0.00  0.00    -0.029 S 
BRANCH  13  14
ATOM     14  P   UNL     1      28.133 -23.193 -16.605  0.00  0.00    +0.445 P 
ATOM     15  O   UNL     1      27.715 -24.316 -17.543  0.00  0.00    -0.130 OA
ATOM     16  O   UNL     1      29.034 -22.129 -17.219  0.00  0.00    -0.130 OA
ATOM     17  O   UNL     1      27.041 -22.672 -15.681  0.00  0.00    -0.241 OA
ENDBRANCH  13  14
ENDBRANCH  12  13
ENDBRANCH  11  12
ENDBRANCH   1  11
TORSDOF 8
ENDMDL
MODEL 2
REMARK VINA RESULT:      -5.3      6.567      7.424
REMARK  Name = 29927142
REMARK  8 active torsions:
REMARK  status: ('A' for Active; 'I' for Inactive)
REMARK    1  A    between atoms: N_1  and  C_4
REMARK    2  A    between atoms: N_1  and  C_11
REMARK    3  A    between atoms: C_4  and  C_5
REMARK    4  A    between atoms: C_5  and  C_6
REMARK    5  A    between atoms: C_6  and  N_7
REMARK    6  A    between atoms: C_11  and  C_12
REMARK    7  A    between atoms: C_12  and  S_13
REMARK    8  A    between atoms: S_13  and  P_14
REMARK                            x       y       z     vdW  Elec       q    Type
REMARK                         _______ _______ _______ _____ _____    ______ ____
ROOT
ATOM      1  N   UNL     1      34.955 -22.786 -14.617  0.00  0.00    +0.384 N 
ATOM      2  H   UNL     1      34.909 -22.973 -13.615  0.00  0.00    -0.084 HD
ATOM      3  H   UNL     1      34.596 -21.864 -14.866  0.00  0.00    -0.084 HD
ENDROOT
BRANCH   1   4
ATOM      4  C   UNL     1      34.097 -23.774 -15.312  0.00  0.00    -0.084 C 
BRANCH   4   5
ATOM      5  C   UNL     1      32.633 -23.349 -15.258  0.00  0.00    -0.047 C 
BRANCH   5   6
ATOM      6  C   UNL     1      31.759 -24.102 -14.261  0.00  0.00    -0.088 C 
BRANCH   6   7
ATOM      7  N   UNL     1      32.515 -25.214 -13.638  0.00  0.00    +0.380 N 
ATOM      8  H   UNL     1      32.897 -25.815 -14.369  0.00  0.00    -0.089 HD
ATOM      9  H   UNL     1      31.890 -25.756 -13.042  0.00  0.00    -0.089 HD
ATOM     10  H   UNL     1      33.277 -24.834 -13.077  0.00  0.00    -0.089 HD
ENDBRANCH   6   7
ENDBRANCH   5   6
ENDBRANCH   4   5
ENDBRANCH   1   4
BRANCH   1  11
ATOM     11  C   UNL     1      36.385 -22.812 -15.031  0.00  0.00    -0.069 C 
BRANCH  11  12
ATOM     12  C   UNL     1      37.174 -23.765 -14.148  0.00  0.00    +0.046 C 
BRANCH  12  13
ATOM     13  S   UNL     1      37.308 -23.165 -12.438  0.00  0.00    -0.029 S 
BRANCH  13  14
ATOM     14  P   UNL     1      35.980 -24.419 -11.309  0.00  0.00    +0.445 P 
ATOM     15  O   UNL     1      36.448 -25.812 -11.705  0.00  0.00    -0.130 OA
ATOM     16  O   UNL     1      34.608 -24.017 -11.836  0.00  0.00    -0.130 OA
ATOM     17  O   UNL     1      36.274 -24.014  -9.872  0.00  0.00    -0.241 OA
ENDBRANCH  13  14
ENDBRANCH  12  13
ENDBRANCH  11  12
ENDBRANCH   1  11
TORSDOF 8
ENDMDL
MODEL 3
REMARK VINA RESULT:      -5.3      1.973      2.929
REMARK  Name = 29927142
REMARK  8 active torsions:
REMARK  status: ('A' for Active; 'I' for Inactive)
REMARK    1  A    between atoms: N_1  and  C_4
REMARK    2  A    between atoms: N_1  and  C_11
REMARK    3  A    between atoms: C_4  and  C_5
REMARK    4  A    between atoms: C_5  and  C_6
REMARK    5  A    between atoms: C_6  and  N_7
REMARK    6  A    between atoms: C_11  and  C_12
REMARK    7  A    between atoms: C_12  and  S_13
REMARK    8  A    between atoms: S_13  and  P_14
REMARK                            x       y       z     vdW  Elec       q    Type
REMARK                         _______ _______ _______ _____ _____    ______ ____
ROOT
ATOM      1  N   UNL     1      32.099 -23.290 -16.350  0.00  0.00    +0.384 N 
ATOM      2  H   UNL     1      31.575 -23.920 -16.956  0.00  0.00    -0.084 HD
ATOM      3  H   UNL     1      31.806 -22.317 -16.439  0.00  0.00    -0.084 HD
ENDROOT
BRANCH   1   4
ATOM      4  C   UNL     1      33.524 -23.338 -16.753  0.00  0.00    -0.084 C 
BRANCH   4   5
ATOM      5  C   UNL     1      34.434 -23.104 -15.550  0.00  0.00    -0.047 C 
BRANCH   5   6
ATOM      6  C   UNL     1      35.554 -24.120 -15.359  0.00  0.00    -0.088 C 
BRANCH   6   7
ATOM      7  N   UNL     1      35.081 -25.279 -14.565  0.00  0.00    +0.380 N 
ATOM      8  H   UNL     1      35.669 -25.386 -13.738  0.00  0.00    -0.089 HD
ATOM      9  H   UNL     1      35.134 -26.123 -15.134  0.00  0.00    -0.089 HD
ATOM     10  H   UNL     1      34.115 -25.121 -14.278  0.00  0.00    -0.089 HD
ENDBRANCH   6   7
ENDBRANCH   5   6
ENDBRANCH   4   5
ENDBRANCH   1   4
BRANCH   1  11
ATOM     11  C   UNL     1      31.845 -23.682 -14.937  0.00  0.00    -0.069 C 
BRANCH  11  12
ATOM     12  C   UNL     1      30.443 -23.272 -14.518  0.00  0.00    +0.046 C 
BRANCH  12  13
ATOM     13  S   UNL     1      29.173 -24.388 -15.185  0.00  0.00    -0.029 S 
BRANCH  13  14
ATOM     14  P   UNL     1      28.094 -23.203 -16.615  0.00  0.00    +0.445 P 
ATOM     15  O   UNL     1      29.161 -22.224 -17.082  0.00  0.00    -0.130 OA
ATOM     16  O   UNL     1      26.975 -22.600 -15.775  0.00  0.00    -0.130 OA
ATOM     17  O   UNL     1      27.656 -24.235 -17.644  0.00  0.00    -0.241 OA
ENDBRANCH  13  14
ENDBRANCH  12  13
ENDBRANCH  11  12
ENDBRANCH   1  11
TORSDOF 8
ENDMDL
MODEL 4
REMARK VINA RESULT:      -5.3      1.570      1.782
REMARK  Name = 29927142
REMARK  8 active torsions:
REMARK  status: ('A' for Active; 'I' for Inactive)
REMARK    1  A    between atoms: N_1  and  C_4
REMARK    2  A    between atoms: N_1  and  C_11
REMARK    3  A    between atoms: C_4  and  C_5
REMARK    4  A    between atoms: C_5  and  C_6
REMARK    5  A    between atoms: C_6  and  N_7
REMARK    6  A    between atoms: C_11  and  C_12
REMARK    7  A    between atoms: C_12  and  S_13
REMARK    8  A    between atoms: S_13  and  P_14
REMARK                            x       y       z     vdW  Elec       q    Type
REMARK                         _______ _______ _______ _____ _____    ______ ____
ROOT
ATOM      1  N   UNL     1      32.372 -23.333 -15.236  0.00  0.00    +0.384 N 
ATOM      2  H   UNL     1      31.899 -23.418 -16.136  0.00  0.00    -0.084 HD
ATOM      3  H   UNL     1      32.287 -22.401 -14.829  0.00  0.00    -0.084 HD
ENDROOT
BRANCH   1   4
ATOM      4  C   UNL     1      33.819 -23.568 -15.450  0.00  0.00    -0.084 C 
BRANCH   4   5
ATOM      5  C   UNL     1      34.265 -23.004 -16.796  0.00  0.00    -0.047 C 
BRANCH   5   6
ATOM      6  C   UNL     1      33.419 -23.408 -17.998  0.00  0.00    -0.088 C 
BRANCH   6   7
ATOM      7  N   UNL     1      32.726 -22.230 -18.571  0.00  0.00    +0.380 N 
ATOM      8  H   UNL     1      33.416 -21.528 -18.838  0.00  0.00    -0.089 HD
ATOM      9  H   UNL     1      32.093 -21.838 -17.874  0.00  0.00    -0.089 HD
ATOM     10  H   UNL     1      32.194 -22.516 -19.393  0.00  0.00    -0.089 HD
ENDBRANCH   6   7
ENDBRANCH   5   6
ENDBRANCH   4   5
ENDBRANCH   1   4
BRANCH   1  11
ATOM     11  C   UNL     1      31.728 -24.275 -14.280  0.00  0.00    -0.069 C 
BRANCH  11  12
ATOM     12  C   UNL     1      30.273 -23.896 -14.064  0.00  0.00    +0.046 C 
BRANCH  12  13
ATOM     13  S   UNL     1      29.185 -24.589 -15.345  0.00  0.00    -0.029 S 
BRANCH  13  14
ATOM     14  P   UNL     1      28.630 -22.909 -16.562  0.00  0.00    +0.445 P 
ATOM     15  O   UNL     1      27.697 -23.551 -17.579  0.00  0.00    -0.130 OA
ATOM     16  O   UNL     1      29.969 -22.436 -17.113  0.00  0.00    -0.130 OA
ATOM     17  O   UNL     1      27.965 -21.974 -15.563  0.00  0.00    -0.241 OA
ENDBRANCH  13  14
ENDBRANCH  12  13
ENDBRANCH  11  12
ENDBRANCH   1  11
TORSDOF 8
ENDMDL
MODEL 5
REMARK VINA RESULT:      -5.3      3.094      3.584
REMARK  Name = 29927142
REMARK  8 active torsions:
REMARK  status: ('A' for Active; 'I' for Inactive)
REMARK    1  A    between atoms: N_1  and  C_4
REMARK    2  A    between atoms: N_1  and  C_11
REMARK    3  A    between atoms: C_4  and  C_5
REMARK    4  A    between atoms: C_5  and  C_6
REMARK    5  A    between atoms: C_6  and  N_7
REMARK    6  A    between atoms: C_11  and  C_12
REMARK    7  A    between atoms: C_12  and  S_13
REMARK    8  A    between atoms: S_13  and  P_14
REMARK                            x       y       z     vdW  Elec       q    Type
REMARK                         _______ _______ _______ _____ _____    ______ ____
ROOT
ATOM      1  N   UNL     1      32.698 -24.906 -13.845  0.00  0.00    +0.384 N 
ATOM      2  H   UNL     1      33.156 -24.776 -12.943  0.00  0.00    -0.084 HD
ATOM      3  H   UNL     1      32.991 -25.761 -14.320  0.00  0.00    -0.084 HD
ENDROOT
BRANCH   1   4
ATOM      4  C   UNL     1      33.085 -23.781 -14.728  0.00  0.00    -0.084 C 
BRANCH   4   5
ATOM      5  C   UNL     1      34.439 -24.046 -15.378  0.00  0.00    -0.047 C 
BRANCH   5   6
ATOM      6  C   UNL     1      35.440 -24.826 -14.532  0.00  0.00    -0.088 C 
BRANCH   6   7
ATOM      7  N   UNL     1      35.744 -26.135 -15.155  0.00  0.00    +0.380 N 
ATOM      8  H   UNL     1      35.229 -26.222 -16.032  0.00  0.00    -0.089 HD
ATOM      9  H   UNL     1      35.467 -26.884 -14.522  0.00  0.00    -0.089 HD
ATOM     10  H   UNL     1      36.745 -26.199 -15.341  0.00  0.00    -0.089 HD
ENDBRANCH   6   7
ENDBRANCH   5   6
ENDBRANCH   4   5
ENDBRANCH   1   4
BRANCH   1  11
ATOM     11  C   UNL     1      31.233 -25.031 -13.611  0.00  0.00    -0.069 C 
BRANCH  11  12
ATOM     12  C   UNL     1      30.487 -23.918 -14.329  0.00  0.00    +0.046 C 
BRANCH  12  13
ATOM     13  S   UNL     1      29.145 -24.556 -15.376  0.00  0.00    -0.029 S 
BRANCH  13  14
ATOM     14  P   UNL     1      28.541 -22.882 -16.577  0.00  0.00    +0.445 P 
ATOM     15  O   UNL     1      27.866 -21.984 -15.550  0.00  0.00    -0.130 OA
ATOM     16  O   UNL     1      27.609 -23.520 -17.600  0.00  0.00    -0.130 OA
ATOM     17  O   UNL     1      29.863 -22.367 -17.127  0.00  0.00    -0.241 OA
ENDBRANCH  13  14
ENDBRANCH  12  13
ENDBRANCH  11  12
ENDBRANCH   1  11
TORSDOF 8
ENDMDL
MODEL 6
REMARK VINA RESULT:      -5.2      7.085      7.558
REMARK  Name = 29927142
REMARK  8 active torsions:
REMARK  status: ('A' for Active; 'I' for Inactive)
REMARK    1  A    between atoms: N_1  and  C_4
REMARK    2  A    between atoms: N_1  and  C_11
REMARK    3  A    between atoms: C_4  and  C_5
REMARK    4  A    between atoms: C_5  and  C_6
REMARK    5  A    between atoms: C_6  and  N_7
REMARK    6  A    between atoms: C_11  and  C_12
REMARK    7  A    between atoms: C_12  and  S_13
REMARK    8  A    between atoms: S_13  and  P_14
REMARK                            x       y       z     vdW  Elec       q    Type
REMARK                         _______ _______ _______ _____ _____    ______ ____
ROOT
ATOM      1  N   UNL     1      37.309 -24.361 -15.146  0.00  0.00    +0.384 N 
ATOM      2  H   UNL     1      36.970 -24.883 -15.955  0.00  0.00    -0.084 HD
ATOM      3  H   UNL     1      36.707 -24.460 -14.328  0.00  0.00    -0.084 HD
ENDROOT
BRANCH   1   4
ATOM      4  C   UNL     1      37.313 -22.921 -15.494  0.00  0.00    -0.084 C 
BRANCH   4   5
ATOM      5  C   UNL     1      36.150 -22.587 -16.424  0.00  0.00    -0.047 C 
BRANCH   5   6
ATOM      6  C   UNL     1      34.845 -23.323 -16.145  0.00  0.00    -0.088 C 
BRANCH   6   7
ATOM      7  N   UNL     1      34.160 -22.747 -14.964  0.00  0.00    +0.380 N 
ATOM      8  H   UNL     1      34.065 -21.739 -15.085  0.00  0.00    -0.089 HD
ATOM      9  H   UNL     1      34.709 -22.940 -14.127  0.00  0.00    -0.089 HD
ATOM     10  H   UNL     1      33.236 -23.167 -14.869  0.00  0.00    -0.089 HD
ENDBRANCH   6   7
ENDBRANCH   5   6
ENDBRANCH   4   5
ENDBRANCH   1   4
BRANCH   1  11
ATOM     11  C   UNL     1      38.640 -24.907 -14.764  0.00  0.00    -0.069 C 
BRANCH  11  12
ATOM     12  C   UNL     1      38.724 -25.088 -13.257  0.00  0.00    +0.046 C 
BRANCH  12  13
ATOM     13  S   UNL     1      37.217 -25.837 -12.571  0.00  0.00    -0.029 S 
BRANCH  13  14
ATOM     14  P   UNL     1      36.245 -24.244 -11.509  0.00  0.00    +0.445 P 
ATOM     15  O   UNL     1      35.439 -23.574 -12.613  0.00  0.00    -0.130 OA
ATOM     16  O   UNL     1      37.417 -23.433 -10.971  0.00  0.00    -0.130 OA
ATOM     17  O   UNL     1      35.428 -24.987 -10.462  0.00  0.00    -0.241 OA
ENDBRANCH  13  14
ENDBRANCH  12  13
ENDBRANCH  11  12
ENDBRANCH   1  11
TORSDOF 8
ENDMDL
MODEL 7
REMARK VINA RESULT:      -5.2      6.712      7.629
REMARK  Name = 29927142
REMARK  8 active torsions:
REMARK  status: ('A' for Active; 'I' for Inactive)
REMARK    1  A    between atoms: N_1  and  C_4
REMARK    2  A    between atoms: N_1  and  C_11
REMARK    3  A    between atoms: C_4  and  C_5
REMARK    4  A    between atoms: C_5  and  C_6
REMARK    5  A    between atoms: C_6  and  N_7
REMARK    6  A    between atoms: C_11  and  C_12
REMARK    7  A    between atoms: C_12  and  S_13
REMARK    8  A    between atoms: S_13  and  P_14
REMARK                            x       y       z     vdW  Elec       q    Type
REMARK                         _______ _______ _______ _____ _____    ______ ____
ROOT
ATOM      1  N   UNL     1      32.972 -25.033 -13.556  0.00  0.00    +0.384 N 
ATOM      2  H   UNL     1      33.229 -26.013 -13.680  0.00  0.00    -0.084 HD
ATOM      3  H   UNL     1      33.240 -24.664 -12.644  0.00  0.00    -0.084 HD
ENDROOT
BRANCH   1   4
ATOM      4  C   UNL     1      31.496 -24.929 -13.636  0.00  0.00    -0.084 C 
BRANCH   4   5
ATOM      5  C   UNL     1      31.069 -24.326 -14.971  0.00  0.00    -0.047 C 
BRANCH   5   6
ATOM      6  C   UNL     1      29.758 -24.851 -15.546  0.00  0.00    -0.088 C 
BRANCH   6   7
ATOM      7  N   UNL     1      28.905 -25.416 -14.475  0.00  0.00    +0.380 N 
ATOM      8  H   UNL     1      27.932 -25.420 -14.783  0.00  0.00    -0.089 HD
ATOM      9  H   UNL     1      28.994 -24.847 -13.635  0.00  0.00    -0.089 HD
ATOM     10  H   UNL     1      29.202 -26.371 -14.273  0.00  0.00    -0.089 HD
ENDBRANCH   6   7
ENDBRANCH   5   6
ENDBRANCH   4   5
ENDBRANCH   1   4
BRANCH   1  11
ATOM     11  C   UNL     1      33.703 -24.228 -14.572  0.00  0.00    -0.069 C 
BRANCH  11  12
ATOM     12  C   UNL     1      35.161 -24.651 -14.633  0.00  0.00    +0.046 C 
BRANCH  12  13
ATOM     13  S   UNL     1      36.212 -23.654 -13.536  0.00  0.00    -0.029 S 
BRANCH  13  14
ATOM     14  P   UNL     1      36.317 -24.775 -11.707  0.00  0.00    +0.445 P 
ATOM     15  O   UNL     1      37.205 -23.889 -10.845  0.00  0.00    -0.130 OA
ATOM     16  O   UNL     1      36.943 -26.090 -12.154  0.00  0.00    -0.130 OA
ATOM     17  O   UNL     1      34.860 -24.855 -11.277  0.00  0.00    -0.241 OA
ENDBRANCH  13  14
ENDBRANCH  12  13
ENDBRANCH  11  12
ENDBRANCH   1  11
TORSDOF 8
ENDMDL
MODEL 8
REMARK VINA RESULT:      -5.2      7.059      7.544
REMARK  Name = 29927142
REMARK  8 active torsions:
REMARK  status: ('A' for Active; 'I' for Inactive)
REMARK    1  A    between atoms: N_1  and  C_4
REMARK    2  A    between atoms: N_1  and  C_11
REMARK    3  A    between atoms: C_4  and  C_5
REMARK    4  A    between atoms: C_5  and  C_6
REMARK    5  A    between atoms: C_6  and  N_7
REMARK    6  A    between atoms: C_11  and  C_12
REMARK    7  A    between atoms: C_12  and  S_13
REMARK    8  A    between atoms: S_13  and  P_14
REMARK                            x       y       z     vdW  Elec       q    Type
REMARK                         _______ _______ _______ _____ _____    ______ ____
ROOT
ATOM      1  N   UNL     1      36.104 -22.324 -17.180  0.00  0.00    +0.384 N 
ATOM      2  H   UNL     1      36.002 -23.323 -17.360  0.00  0.00    -0.084 HD
ATOM      3  H   UNL     1      35.238 -21.888 -16.862  0.00  0.00    -0.084 HD
ENDROOT
BRANCH   1   4
ATOM      4  C   UNL     1      36.466 -21.660 -18.454  0.00  0.00    -0.084 C 
BRANCH   4   5
ATOM      5  C   UNL     1      35.289 -21.673 -19.424  0.00  0.00    -0.047 C 
BRANCH   5   6
ATOM      6  C   UNL     1      34.044 -22.413 -18.948  0.00  0.00    -0.088 C 
BRANCH   6   7
ATOM      7  N   UNL     1      32.816 -21.719 -19.400  0.00  0.00    +0.380 N 
ATOM      8  H   UNL     1      32.434 -22.201 -20.214  0.00  0.00    -0.089 HD
ATOM      9  H   UNL     1      33.044 -20.756 -19.650  0.00  0.00    -0.089 HD
ATOM     10  H   UNL     1      32.128 -21.722 -18.648  0.00  0.00    -0.089 HD
ENDBRANCH   6   7
ENDBRANCH   5   6
ENDBRANCH   4   5
ENDBRANCH   1   4
BRANCH   1  11
ATOM     11  C   UNL     1      37.097 -22.145 -16.087  0.00  0.00    -0.069 C 
BRANCH  11  12
ATOM     12  C   UNL     1      37.332 -23.462 -15.365  0.00  0.00    +0.046 C 
BRANCH  12  13
ATOM     13  S   UNL     1      36.494 -23.519 -13.752  0.00  0.00    -0.029 S 
BRANCH  13  14
ATOM     14  P   UNL     1      38.006 -24.162 -12.370  0.00  0.00    +0.445 P 
ATOM     15  O   UNL     1      38.291 -22.883 -11.595  0.00  0.00    -0.130 OA
ATOM     16  O   UNL     1      39.126 -24.632 -13.290  0.00  0.00    -0.130 OA
ATOM     17  O   UNL     1      37.300 -25.258 -11.585  0.00  0.00    -0.241 OA
ENDBRANCH  13  14
ENDBRANCH  12  13
ENDBRANCH  11  12
ENDBRANCH   1  11
TORSDOF 8
ENDMDL
MODEL 9
REMARK VINA RESULT:      -5.1      6.615      7.430
REMARK  Name = 29927142
REMARK  8 active torsions:
REMARK  status: ('A' for Active; 'I' for Inactive)
REMARK    1  A    between atoms: N_1  and  C_4
REMARK    2  A    between atoms: N_1  and  C_11
REMARK    3  A    between atoms: C_4  and  C_5
REMARK    4  A    between atoms: C_5  and  C_6
REMARK    5  A    between atoms: C_6  and  N_7
REMARK    6  A    between atoms: C_11  and  C_12
REMARK    7  A    between atoms: C_12  and  S_13
REMARK    8  A    between atoms: S_13  and  P_14
REMARK                            x       y       z     vdW  Elec       q    Type
REMARK                         _______ _______ _______ _____ _____    ______ ____
ROOT
ATOM      1  N   UNL     1      34.939 -25.093 -14.835  0.00  0.00    +0.384 N 
ATOM      2  H   UNL     1      34.267 -25.705 -15.298  0.00  0.00    -0.084 HD
ATOM      3  H   UNL     1      34.746 -24.970 -13.841  0.00  0.00    -0.084 HD
ENDROOT
BRANCH   1   4
ATOM      4  C   UNL     1      34.842 -23.750 -15.452  0.00  0.00    -0.084 C 
BRANCH   4   5
ATOM      5  C   UNL     1      33.384 -23.366 -15.684  0.00  0.00    -0.047 C 
BRANCH   5   6
ATOM      6  C   UNL     1      32.385 -23.909 -14.669  0.00  0.00    -0.088 C 
BRANCH   6   7
ATOM      7  N   UNL     1      32.298 -23.016 -13.490  0.00  0.00    +0.380 N 
ATOM      8  H   UNL     1      31.965 -23.547 -12.686  0.00  0.00    -0.089 HD
ATOM      9  H   UNL     1      31.649 -22.255 -13.689  0.00  0.00    -0.089 HD
ATOM     10  H   UNL     1      33.221 -22.632 -13.287  0.00  0.00    -0.089 HD
ENDBRANCH   6   7
ENDBRANCH   5   6
ENDBRANCH   4   5
ENDBRANCH   1   4
BRANCH   1  11
ATOM     11  C   UNL     1      36.286 -25.720 -14.932  0.00  0.00    -0.069 C 
BRANCH  11  12
ATOM     12  C   UNL     1      37.291 -24.947 -14.096  0.00  0.00    +0.046 C 
BRANCH  12  13
ATOM     13  S   UNL     1      37.237 -25.424 -12.343  0.00  0.00    -0.029 S 
BRANCH  13  14
ATOM     14  P   UNL     1      36.163 -23.838 -11.373  0.00  0.00    +0.445 P 
ATOM     15  O   UNL     1      36.980 -22.616 -11.769  0.00  0.00    -0.130 OA
ATOM     16  O   UNL     1      36.242 -24.228  -9.903  0.00  0.00    -0.130 OA
ATOM     17  O   UNL     1      34.781 -23.933 -12.003  0.00  0.00    -0.241 OA
ENDBRANCH  13  14
ENDBRANCH  12  13
ENDBRANCH  11  12
ENDBRANCH   1  11
TORSDOF 8
ENDMDL
