MODEL 1
REMARK VINA RESULT:      -7.7      0.000      0.000
REMARK  Name = 11229234
REMARK  3 active torsions:
REMARK  status: ('A' for Active; 'I' for Inactive)
REMARK    1  A    between atoms: C_2  and  C_12
REMARK    2  A    between atoms: C_3  and  C_7
REMARK    3  A    between atoms: C_12  and  N_13
REMARK                            x       y       z     vdW  Elec       q    Type
REMARK                         _______ _______ _______ _____ _____    ______ ____
ROOT
ATOM      1  O   UNL     1      34.499 -19.235 -22.670  0.00  0.00    -0.460 OA
ATOM      2  C   UNL     1      34.845 -18.075 -23.289  0.00  0.00    +0.102 C 
ATOM      3  C   UNL     1      34.760 -19.058 -21.351  0.00  0.00    +0.146 C 
ATOM      4  C   UNL     1      35.322 -17.163 -22.376  0.00  0.00    +0.034 C 
ATOM      5  C   UNL     1      35.268 -17.804 -21.115  0.00  0.00    +0.040 C 
ENDROOT
BRANCH   3   7
ATOM      6  N   UNL     1      32.798 -21.615 -19.486  0.00  0.00    -0.242 NA
ATOM      7  C   UNL     1      34.459 -20.187 -20.509  0.00  0.00    +0.054 C 
ATOM      8  C   UNL     1      35.474 -20.928 -19.913  0.00  0.00    +0.006 C 
ATOM      9  C   UNL     1      33.149 -20.568 -20.266  0.00  0.00    +0.102 C 
ATOM     10  C   UNL     1      35.152 -22.013 -19.104  0.00  0.00    +0.021 C 
ATOM     11  C   UNL     1      33.811 -22.312 -18.925  0.00  0.00    +0.099 C 
ENDBRANCH   3   7
BRANCH   2  12
ATOM     12  C   UNL     1      34.649 -18.031 -24.745  0.00  0.00    -0.015 C 
BRANCH  12  13
ATOM     13  N   UNL     1      34.994 -16.749 -25.327  0.00  0.00    +0.387 N 
ATOM     14  C   UNL     1      33.813 -15.907 -25.488  0.00  0.00    -0.105 C 
ATOM     15  H   UNL     1      35.421 -16.902 -26.241  0.00  0.00    -0.084 HD
ATOM     16  H   UNL     1      35.645 -16.276 -24.701  0.00  0.00    -0.084 HD
ENDBRANCH  12  13
ENDBRANCH   2  12
TORSDOF 3
ENDMDL
MODEL 2
REMARK VINA RESULT:      -7.5      1.902      5.925
REMARK  Name = 11229234
REMARK  3 active torsions:
REMARK  status: ('A' for Active; 'I' for Inactive)
REMARK    1  A    between atoms: C_2  and  C_12
REMARK    2  A    between atoms: C_3  and  C_7
REMARK    3  A    between atoms: C_12  and  N_13
REMARK                            x       y       z     vdW  Elec       q    Type
REMARK                         _______ _______ _______ _____ _____    ______ ____
ROOT
ATOM      1  O   UNL     1      35.273 -20.286 -20.388  0.00  0.00    -0.460 OA
ATOM      2  C   UNL     1      34.801 -21.226 -19.527  0.00  0.00    +0.102 C 
ATOM      3  C   UNL     1      34.188 -19.741 -20.993  0.00  0.00    +0.146 C 
ATOM      4  C   UNL     1      33.427 -21.282 -19.578  0.00  0.00    +0.034 C 
ATOM      5  C   UNL     1      33.029 -20.317 -20.533  0.00  0.00    +0.040 C 
ENDROOT
BRANCH   3   7
ATOM      6  N   UNL     1      34.852 -16.368 -22.423  0.00  0.00    -0.242 NA
ATOM      7  C   UNL     1      34.476 -18.710 -21.956  0.00  0.00    +0.054 C 
ATOM      8  C   UNL     1      34.651 -19.014 -23.302  0.00  0.00    +0.006 C 
ATOM      9  C   UNL     1      34.586 -17.383 -21.571  0.00  0.00    +0.102 C 
ATOM     10  C   UNL     1      34.927 -17.996 -24.208  0.00  0.00    +0.021 C 
ATOM     11  C   UNL     1      35.017 -16.702 -23.723  0.00  0.00    +0.099 C 
ENDBRANCH   3   7
BRANCH   2  12
ATOM     12  C   UNL     1      35.809 -21.961 -18.748  0.00  0.00    -0.015 C 
BRANCH  12  13
ATOM     13  N   UNL     1      36.751 -21.091 -18.073  0.00  0.00    +0.387 N 
ATOM     14  C   UNL     1      37.112 -21.621 -16.762  0.00  0.00    -0.105 C 
ATOM     15  H   UNL     1      36.328 -20.170 -17.955  0.00  0.00    -0.084 HD
ATOM     16  H   UNL     1      37.596 -21.029 -18.641  0.00  0.00    -0.084 HD
ENDBRANCH  12  13
ENDBRANCH   2  12
TORSDOF 3
ENDMDL
MODEL 3
REMARK VINA RESULT:      -7.5      1.703      2.022
REMARK  Name = 11229234
REMARK  3 active torsions:
REMARK  status: ('A' for Active; 'I' for Inactive)
REMARK    1  A    between atoms: C_2  and  C_12
REMARK    2  A    between atoms: C_3  and  C_7
REMARK    3  A    between atoms: C_12  and  N_13
REMARK                            x       y       z     vdW  Elec       q    Type
REMARK                         _______ _______ _______ _____ _____    ______ ____
ROOT
ATOM      1  O   UNL     1      34.388 -17.574 -21.828  0.00  0.00    -0.460 OA
ATOM      2  C   UNL     1      34.690 -16.838 -22.930  0.00  0.00    +0.102 C 
ATOM      3  C   UNL     1      34.559 -18.874 -22.176  0.00  0.00    +0.146 C 
ATOM      4  C   UNL     1      35.052 -17.658 -23.974  0.00  0.00    +0.034 C 
ATOM      5  C   UNL     1      34.965 -18.982 -23.483  0.00  0.00    +0.040 C 
ENDROOT
BRANCH   3   7
ATOM      6  N   UNL     1      32.664 -20.948 -19.732  0.00  0.00    -0.242 NA
ATOM      7  C   UNL     1      34.285 -19.829 -21.133  0.00  0.00    +0.054 C 
ATOM      8  C   UNL     1      35.313 -20.542 -20.526  0.00  0.00    +0.006 C 
ATOM      9  C   UNL     1      32.989 -20.067 -20.704  0.00  0.00    +0.102 C 
ATOM     10  C   UNL     1      35.017 -21.457 -19.521  0.00  0.00    +0.021 C 
ATOM     11  C   UNL     1      33.689 -21.622 -19.165  0.00  0.00    +0.099 C 
ENDBRANCH   3   7
BRANCH   2  12
ATOM     12  C   UNL     1      34.574 -15.379 -22.791  0.00  0.00    -0.015 C 
BRANCH  12  13
ATOM     13  N   UNL     1      33.267 -14.874 -23.162  0.00  0.00    +0.387 N 
ATOM     14  C   UNL     1      32.559 -14.342 -22.003  0.00  0.00    -0.105 C 
ATOM     15  H   UNL     1      32.720 -15.633 -23.568  0.00  0.00    -0.084 HD
ATOM     16  H   UNL     1      33.394 -14.120 -23.838  0.00  0.00    -0.084 HD
ENDBRANCH  12  13
ENDBRANCH   2  12
TORSDOF 3
ENDMDL
MODEL 4
REMARK VINA RESULT:      -7.3      2.004      2.585
REMARK  Name = 11229234
REMARK  3 active torsions:
REMARK  status: ('A' for Active; 'I' for Inactive)
REMARK    1  A    between atoms: C_2  and  C_12
REMARK    2  A    between atoms: C_3  and  C_7
REMARK    3  A    between atoms: C_12  and  N_13
REMARK                            x       y       z     vdW  Elec       q    Type
REMARK                         _______ _______ _______ _____ _____    ______ ____
ROOT
ATOM      1  O   UNL     1      34.385 -17.029 -21.416  0.00  0.00    -0.460 OA
ATOM      2  C   UNL     1      34.619 -16.087 -22.367  0.00  0.00    +0.102 C 
ATOM      3  C   UNL     1      34.703 -18.224 -21.974  0.00  0.00    +0.146 C 
ATOM      4  C   UNL     1      35.083 -16.671 -23.523  0.00  0.00    +0.034 C 
ATOM      5  C   UNL     1      35.136 -18.062 -23.267  0.00  0.00    +0.040 C 
ENDROOT
BRANCH   3   7
ATOM      6  N   UNL     1      35.509 -21.186 -19.866  0.00  0.00    -0.242 NA
ATOM      7  C   UNL     1      34.523 -19.369 -21.119  0.00  0.00    +0.054 C 
ATOM      8  C   UNL     1      33.253 -19.773 -20.720  0.00  0.00    +0.006 C 
ATOM      9  C   UNL     1      35.609 -20.102 -20.668  0.00  0.00    +0.102 C 
ATOM     10  C   UNL     1      33.111 -20.883 -19.894  0.00  0.00    +0.021 C 
ATOM     11  C   UNL     1      34.260 -21.549 -19.498  0.00  0.00    +0.099 C 
ENDBRANCH   3   7
BRANCH   2  12
ATOM     12  C   UNL     1      34.342 -14.694 -21.985  0.00  0.00    -0.015 C 
BRANCH  12  13
ATOM     13  N   UNL     1      34.338 -13.785 -23.114  0.00  0.00    +0.387 N 
ATOM     14  C   UNL     1      33.015 -13.203 -23.318  0.00  0.00    -0.105 C 
ATOM     15  H   UNL     1      34.610 -14.297 -23.954  0.00  0.00    -0.084 HD
ATOM     16  H   UNL     1      34.997 -13.031 -22.922  0.00  0.00    -0.084 HD
ENDBRANCH  12  13
ENDBRANCH   2  12
TORSDOF 3
ENDMDL
MODEL 5
REMARK VINA RESULT:      -7.1      1.603      5.883
REMARK  Name = 11229234
REMARK  3 active torsions:
REMARK  status: ('A' for Active; 'I' for Inactive)
REMARK    1  A    between atoms: C_2  and  C_12
REMARK    2  A    between atoms: C_3  and  C_7
REMARK    3  A    between atoms: C_12  and  N_13
REMARK                            x       y       z     vdW  Elec       q    Type
REMARK                         _______ _______ _______ _____ _____    ______ ____
ROOT
ATOM      1  O   UNL     1      34.507 -20.830 -20.510  0.00  0.00    -0.460 OA
ATOM      2  C   UNL     1      34.945 -21.735 -19.596  0.00  0.00    +0.102 C 
ATOM      3  C   UNL     1      35.536 -19.972 -20.722  0.00  0.00    +0.146 C 
ATOM      4  C   UNL     1      36.242 -21.463 -19.227  0.00  0.00    +0.034 C 
ATOM      5  C   UNL     1      36.625 -20.314 -19.960  0.00  0.00    +0.040 C 
ENDROOT
BRANCH   3   7
ATOM      6  N   UNL     1      35.037 -16.557 -22.121  0.00  0.00    -0.242 NA
ATOM      7  C   UNL     1      35.273 -18.920 -21.671  0.00  0.00    +0.054 C 
ATOM      8  C   UNL     1      35.006 -19.209 -23.005  0.00  0.00    +0.006 C 
ATOM      9  C   UNL     1      35.277 -17.590 -21.283  0.00  0.00    +0.102 C 
ATOM     10  C   UNL     1      34.755 -18.172 -23.897  0.00  0.00    +0.021 C 
ATOM     11  C   UNL     1      34.783 -16.875 -23.410  0.00  0.00    +0.099 C 
ENDBRANCH   3   7
BRANCH   2  12
ATOM     12  C   UNL     1      33.986 -22.779 -19.203  0.00  0.00    -0.015 C 
BRANCH  12  13
ATOM     13  N   UNL     1      32.804 -22.250 -18.551  0.00  0.00    +0.387 N 
ATOM     14  C   UNL     1      32.532 -22.952 -17.301  0.00  0.00    -0.105 C 
ATOM     15  H   UNL     1      32.005 -22.358 -19.175  0.00  0.00    -0.084 HD
ATOM     16  H   UNL     1      32.967 -21.265 -18.341  0.00  0.00    -0.084 HD
ENDBRANCH  12  13
ENDBRANCH   2  12
TORSDOF 3
ENDMDL
MODEL 6
REMARK VINA RESULT:      -7.0      3.639      5.040
REMARK  Name = 11229234
REMARK  3 active torsions:
REMARK  status: ('A' for Active; 'I' for Inactive)
REMARK    1  A    between atoms: C_2  and  C_12
REMARK    2  A    between atoms: C_3  and  C_7
REMARK    3  A    between atoms: C_12  and  N_13
REMARK                            x       y       z     vdW  Elec       q    Type
REMARK                         _______ _______ _______ _____ _____    ______ ____
ROOT
ATOM      1  O   UNL     1      34.280 -14.348 -23.538  0.00  0.00    -0.460 OA
ATOM      2  C   UNL     1      33.446 -13.277 -23.605  0.00  0.00    +0.102 C 
ATOM      3  C   UNL     1      33.797 -15.148 -22.554  0.00  0.00    +0.146 C 
ATOM      4  C   UNL     1      32.439 -13.389 -22.675  0.00  0.00    +0.034 C 
ATOM      5  C   UNL     1      32.669 -14.606 -21.991  0.00  0.00    +0.040 C 
ENDROOT
BRANCH   3   7
ATOM      6  N   UNL     1      35.565 -17.880 -20.743  0.00  0.00    -0.242 NA
ATOM      7  C   UNL     1      34.549 -16.354 -22.319  0.00  0.00    +0.054 C 
ATOM      8  C   UNL     1      34.983 -17.146 -23.376  0.00  0.00    +0.006 C 
ATOM      9  C   UNL     1      34.862 -16.761 -21.032  0.00  0.00    +0.102 C 
ATOM     10  C   UNL     1      35.707 -18.305 -23.118  0.00  0.00    +0.021 C 
ATOM     11  C   UNL     1      35.969 -18.625 -21.795  0.00  0.00    +0.099 C 
ENDBRANCH   3   7
BRANCH   2  12
ATOM     12  C   UNL     1      33.775 -12.259 -24.614  0.00  0.00    -0.015 C 
BRANCH  12  13
ATOM     13  N   UNL     1      34.481 -11.119 -24.063  0.00  0.00    +0.387 N 
ATOM     14  C   UNL     1      33.590  -9.975 -23.900  0.00  0.00    -0.105 C 
ATOM     15  H   UNL     1      35.241 -10.863 -24.693  0.00  0.00    -0.084 HD
ATOM     16  H   UNL     1      34.845 -11.378 -23.146  0.00  0.00    -0.084 HD
ENDBRANCH  12  13
ENDBRANCH   2  12
TORSDOF 3
ENDMDL
MODEL 7
REMARK VINA RESULT:      -7.0      2.180      6.554
REMARK  Name = 11229234
REMARK  3 active torsions:
REMARK  status: ('A' for Active; 'I' for Inactive)
REMARK    1  A    between atoms: C_2  and  C_12
REMARK    2  A    between atoms: C_3  and  C_7
REMARK    3  A    between atoms: C_12  and  N_13
REMARK                            x       y       z     vdW  Elec       q    Type
REMARK                         _______ _______ _______ _____ _____    ______ ____
ROOT
ATOM      1  O   UNL     1      34.733 -16.809 -22.767  0.00  0.00    -0.460 OA
ATOM      2  C   UNL     1      35.030 -17.064 -21.465  0.00  0.00    +0.102 C 
ATOM      3  C   UNL     1      34.254 -15.541 -22.809  0.00  0.00    +0.146 C 
ATOM      4  C   UNL     1      34.747 -15.969 -20.681  0.00  0.00    +0.034 C 
ATOM      5  C   UNL     1      34.241 -14.980 -21.557  0.00  0.00    +0.040 C 
ENDROOT
BRANCH   3   7
ATOM      6  N   UNL     1      33.496 -15.556 -26.455  0.00  0.00    -0.242 NA
ATOM      7  C   UNL     1      33.875 -15.071 -24.117  0.00  0.00    +0.054 C 
ATOM      8  C   UNL     1      33.533 -13.741 -24.331  0.00  0.00    +0.006 C 
ATOM      9  C   UNL     1      33.841 -15.932 -25.203  0.00  0.00    +0.102 C 
ATOM     10  C   UNL     1      33.172 -13.317 -25.605  0.00  0.00    +0.021 C 
ATOM     11  C   UNL     1      33.169 -14.256 -26.624  0.00  0.00    +0.099 C 
ENDBRANCH   3   7
BRANCH   2  12
ATOM     12  C   UNL     1      35.572 -18.399 -21.170  0.00  0.00    -0.015 C 
BRANCH  12  13
ATOM     13  N   UNL     1      34.792 -19.471 -21.756  0.00  0.00    +0.387 N 
ATOM     14  C   UNL     1      33.613 -19.768 -20.950  0.00  0.00    -0.105 C 
ATOM     15  H   UNL     1      35.372 -20.308 -21.819  0.00  0.00    -0.084 HD
ATOM     16  H   UNL     1      34.485 -19.176 -22.683  0.00  0.00    -0.084 HD
ENDBRANCH  12  13
ENDBRANCH   2  12
TORSDOF 3
ENDMDL
MODEL 8
REMARK VINA RESULT:      -7.0      1.653      2.151
REMARK  Name = 11229234
REMARK  3 active torsions:
REMARK  status: ('A' for Active; 'I' for Inactive)
REMARK    1  A    between atoms: C_2  and  C_12
REMARK    2  A    between atoms: C_3  and  C_7
REMARK    3  A    between atoms: C_12  and  N_13
REMARK                            x       y       z     vdW  Elec       q    Type
REMARK                         _______ _______ _______ _____ _____    ______ ____
ROOT
ATOM      1  O   UNL     1      34.499 -17.618 -22.977  0.00  0.00    -0.460 OA
ATOM      2  C   UNL     1      34.424 -16.328 -23.396  0.00  0.00    +0.102 C 
ATOM      3  C   UNL     1      34.697 -17.575 -21.635  0.00  0.00    +0.146 C 
ATOM      4  C   UNL     1      34.571 -15.465 -22.334  0.00  0.00    +0.034 C 
ATOM      5  C   UNL     1      34.749 -16.277 -21.190  0.00  0.00    +0.040 C 
ENDROOT
BRANCH   3   7
ATOM      6  N   UNL     1      36.211 -20.556 -19.997  0.00  0.00    -0.242 NA
ATOM      7  C   UNL     1      34.806 -18.857 -20.989  0.00  0.00    +0.054 C 
ATOM      8  C   UNL     1      33.678 -19.629 -20.731  0.00  0.00    +0.006 C 
ATOM      9  C   UNL     1      36.039 -19.361 -20.606  0.00  0.00    +0.102 C 
ATOM     10  C   UNL     1      33.816 -20.864 -20.106  0.00  0.00    +0.021 C 
ATOM     11  C   UNL     1      35.093 -21.278 -19.762  0.00  0.00    +0.099 C 
ENDBRANCH   3   7
BRANCH   2  12
ATOM     12  C   UNL     1      34.211 -16.122 -24.836  0.00  0.00    -0.015 C 
BRANCH  12  13
ATOM     13  N   UNL     1      33.462 -14.917 -25.134  0.00  0.00    +0.387 N 
ATOM     14  C   UNL     1      32.823 -15.004 -26.443  0.00  0.00    -0.105 C 
ATOM     15  H   UNL     1      34.098 -14.120 -25.126  0.00  0.00    -0.084 HD
ATOM     16  H   UNL     1      32.736 -14.807 -24.427  0.00  0.00    -0.084 HD
ENDBRANCH  12  13
ENDBRANCH   2  12
TORSDOF 3
ENDMDL
MODEL 9
REMARK VINA RESULT:      -6.8      4.303      8.155
REMARK  Name = 11229234
REMARK  3 active torsions:
REMARK  status: ('A' for Active; 'I' for Inactive)
REMARK    1  A    between atoms: C_2  and  C_12
REMARK    2  A    between atoms: C_3  and  C_7
REMARK    3  A    between atoms: C_12  and  N_13
REMARK                            x       y       z     vdW  Elec       q    Type
REMARK                         _______ _______ _______ _____ _____    ______ ____
ROOT
ATOM      1  O   UNL     1      35.338 -23.549 -16.373  0.00  0.00    -0.460 OA
ATOM      2  C   UNL     1      36.241 -23.878 -15.412  0.00  0.00    +0.102 C 
ATOM      3  C   UNL     1      35.912 -22.570 -17.118  0.00  0.00    +0.146 C 
ATOM      4  C   UNL     1      37.382 -23.121 -15.540  0.00  0.00    +0.034 C 
ATOM      5  C   UNL     1      37.166 -22.270 -16.649  0.00  0.00    +0.040 C 
ENDROOT
BRANCH   3   7
ATOM      6  N   UNL     1      32.960 -21.992 -19.313  0.00  0.00    -0.242 NA
ATOM      7  C   UNL     1      35.107 -22.074 -18.204  0.00  0.00    +0.054 C 
ATOM      8  C   UNL     1      35.646 -21.233 -19.171  0.00  0.00    +0.006 C 
ATOM      9  C   UNL     1      33.770 -22.421 -18.319  0.00  0.00    +0.102 C 
ATOM     10  C   UNL     1      34.844 -20.771 -20.209  0.00  0.00    +0.021 C 
ATOM     11  C   UNL     1      33.519 -21.176 -20.234  0.00  0.00    +0.099 C 
ENDBRANCH   3   7
BRANCH   2  12
ATOM     12  C   UNL     1      35.833 -24.932 -14.470  0.00  0.00    -0.015 C 
BRANCH  12  13
ATOM     13  N   UNL     1      35.802 -26.251 -15.071  0.00  0.00    +0.387 N 
ATOM     14  C   UNL     1      37.134 -26.845 -15.109  0.00  0.00    -0.105 C 
ATOM     15  H   UNL     1      35.445 -26.174 -16.024  0.00  0.00    -0.084 HD
ATOM     16  H   UNL     1      35.198 -26.847 -14.507  0.00  0.00    -0.084 HD
ENDBRANCH  12  13
ENDBRANCH   2  12
TORSDOF 3
ENDMDL
