MODEL 1
REMARK VINA RESULT:      -9.5      0.000      0.000
REMARK  Name = 445713
REMARK  14 active torsions:
REMARK  status: ('A' for Active; 'I' for Inactive)
REMARK    1  A    between atoms: C_1  and  C_4
REMARK    2  A    between atoms: C_2  and  C_15
REMARK    3  A    between atoms: C_4  and  C_5
REMARK    4  A    between atoms: C_5  and  C_7
REMARK    5  A    between atoms: C_6  and  C_9
REMARK    6  A    between atoms: C_9  and  C_10
REMARK    7  A    between atoms: C_10  and  C_11
REMARK    8  A    between atoms: C_15  and  O_16
REMARK    9  A    between atoms: O_16  and  P_17
REMARK   10  A    between atoms: P_17  and  O_19
REMARK   11  A    between atoms: P_17  and  O_21
REMARK   12  A    between atoms: O_21  and  P_22
REMARK   13  A    between atoms: P_22  and  O_24
REMARK   14  A    between atoms: P_22  and  O_26
REMARK                            x       y       z     vdW  Elec       q    Type
REMARK                         _______ _______ _______ _____ _____    ______ ____
ROOT
ATOM      1  C   UNL     1      35.974 -22.467 -16.848  0.00  0.00    -0.045 C 
ATOM      2  C   UNL     1      36.762 -22.596 -15.763  0.00  0.00    -0.002 C 
ATOM      3  C   UNL     1      34.563 -22.992 -16.829  0.00  0.00    +0.026 C 
ENDROOT
BRANCH   1   4
ATOM      4  C   UNL     1      36.391 -21.791 -18.136  0.00  0.00    +0.026 C 
BRANCH   4   5
ATOM      5  C   UNL     1      35.312 -21.903 -19.219  0.00  0.00    +0.030 C 
BRANCH   5   7
ATOM      6  C   UNL     1      34.398 -20.013 -20.703  0.00  0.00    -0.048 C 
ATOM      7  C   UNL     1      35.396 -20.759 -20.192  0.00  0.00    -0.034 C 
ATOM      8  C   UNL     1      32.972 -20.297 -20.297  0.00  0.00    +0.026 C 
BRANCH   6   9
ATOM      9  C   UNL     1      34.567 -18.907 -21.725  0.00  0.00    +0.026 C 
BRANCH   9  10
ATOM     10  C   UNL     1      35.387 -17.709 -21.225  0.00  0.00    +0.030 C 
BRANCH  10  11
ATOM     11  C   UNL     1      34.528 -16.541 -20.828  0.00  0.00    -0.034 C 
ATOM     12  C   UNL     1      34.163 -15.481 -21.577  0.00  0.00    -0.048 C 
ATOM     13  C   UNL     1      34.630 -15.360 -23.003  0.00  0.00    +0.026 C 
ATOM     14  C   UNL     1      33.299 -14.344 -21.114  0.00  0.00    +0.026 C 
ENDBRANCH  10  11
ENDBRANCH   9  10
ENDBRANCH   6   9
ENDBRANCH   5   7
ENDBRANCH   4   5
ENDBRANCH   1   4
BRANCH   2  15
ATOM     15  C   UNL     1      36.405 -23.229 -14.458  0.00  0.00    +0.179 C 
BRANCH  15  16
ATOM     16  O   UNL     1      37.588 -23.360 -13.679  0.00  0.00    -0.268 OA
BRANCH  16  17
ATOM     17  P   UNL     1      37.758 -24.618 -12.680  0.00  0.00    +0.484 P 
ATOM     18  O   UNL     1      37.776 -24.261 -11.222  0.00  0.00    -0.227 OA
BRANCH  17  19
ATOM     19  O   UNL     1      36.573 -25.636 -13.103  0.00  0.00    -0.302 OA
ATOM     20  H   UNL     1      36.587 -25.767 -14.064  0.00  0.00    +0.222 HD
ENDBRANCH  17  19
BRANCH  17  21
ATOM     21  O   UNL     1      39.093 -25.371 -13.194  0.00  0.00    -0.186 OA
BRANCH  21  22
ATOM     22  P   UNL     1      39.591 -25.745 -14.686  0.00  0.00    +0.481 P 
ATOM     23  O   UNL     1      40.847 -26.565 -14.739  0.00  0.00    -0.227 OA
BRANCH  22  24
ATOM     24  O   UNL     1      38.289 -26.430 -15.354  0.00  0.00    -0.302 OA
ATOM     25  H   UNL     1      37.878 -27.033 -14.716  0.00  0.00    +0.222 HD
ENDBRANCH  22  24
BRANCH  22  26
ATOM     26  O   UNL     1      39.679 -24.306 -15.415  0.00  0.00    -0.302 OA
ATOM     27  H   UNL     1      38.906 -23.772 -15.170  0.00  0.00    +0.222 HD
ENDBRANCH  22  26
ENDBRANCH  21  22
ENDBRANCH  17  21
ENDBRANCH  16  17
ENDBRANCH  15  16
ENDBRANCH   2  15
TORSDOF 14
ENDMDL
MODEL 2
REMARK VINA RESULT:      -9.5      1.184      1.593
REMARK  Name = 445713
REMARK  14 active torsions:
REMARK  status: ('A' for Active; 'I' for Inactive)
REMARK    1  A    between atoms: C_1  and  C_4
REMARK    2  A    between atoms: C_2  and  C_15
REMARK    3  A    between atoms: C_4  and  C_5
REMARK    4  A    between atoms: C_5  and  C_7
REMARK    5  A    between atoms: C_6  and  C_9
REMARK    6  A    between atoms: C_9  and  C_10
REMARK    7  A    between atoms: C_10  and  C_11
REMARK    8  A    between atoms: C_15  and  O_16
REMARK    9  A    between atoms: O_16  and  P_17
REMARK   10  A    between atoms: P_17  and  O_19
REMARK   11  A    between atoms: P_17  and  O_21
REMARK   12  A    between atoms: O_21  and  P_22
REMARK   13  A    between atoms: P_22  and  O_24
REMARK   14  A    between atoms: P_22  and  O_26
REMARK                            x       y       z     vdW  Elec       q    Type
REMARK                         _______ _______ _______ _____ _____    ______ ____
ROOT
ATOM      1  C   UNL     1      36.038 -22.371 -16.843  0.00  0.00    -0.045 C 
ATOM      2  C   UNL     1      36.795 -22.535 -15.741  0.00  0.00    -0.002 C 
ATOM      3  C   UNL     1      34.645 -22.941 -16.900  0.00  0.00    +0.026 C 
ENDROOT
BRANCH   1   4
ATOM      4  C   UNL     1      36.472 -21.610 -18.076  0.00  0.00    +0.026 C 
BRANCH   4   5
ATOM      5  C   UNL     1      35.638 -21.986 -19.306  0.00  0.00    +0.030 C 
BRANCH   5   7
ATOM      6  C   UNL     1      34.224 -20.171 -20.452  0.00  0.00    -0.048 C 
ATOM      7  C   UNL     1      35.389 -20.790 -20.183  0.00  0.00    -0.034 C 
ATOM      8  C   UNL     1      32.947 -20.682 -19.831  0.00  0.00    +0.026 C 
BRANCH   6   9
ATOM      9  C   UNL     1      34.055 -18.996 -21.395  0.00  0.00    +0.026 C 
BRANCH   9  10
ATOM     10  C   UNL     1      35.373 -18.330 -21.812  0.00  0.00    +0.030 C 
BRANCH  10  11
ATOM     11  C   UNL     1      35.201 -17.363 -22.951  0.00  0.00    -0.034 C 
ATOM     12  C   UNL     1      34.874 -17.631 -24.231  0.00  0.00    -0.048 C 
ATOM     13  C   UNL     1      34.635 -19.049 -24.674  0.00  0.00    +0.026 C 
ATOM     14  C   UNL     1      34.719 -16.611 -25.322  0.00  0.00    +0.026 C 
ENDBRANCH  10  11
ENDBRANCH   9  10
ENDBRANCH   6   9
ENDBRANCH   5   7
ENDBRANCH   4   5
ENDBRANCH   1   4
BRANCH   2  15
ATOM     15  C   UNL     1      36.419 -23.252 -14.485  0.00  0.00    +0.179 C 
BRANCH  15  16
ATOM     16  O   UNL     1      37.578 -23.379 -13.670  0.00  0.00    -0.268 OA
BRANCH  16  17
ATOM     17  P   UNL     1      37.729 -24.643 -12.677  0.00  0.00    +0.484 P 
ATOM     18  O   UNL     1      37.708 -24.297 -11.216  0.00  0.00    -0.227 OA
BRANCH  17  19
ATOM     19  O   UNL     1      36.561 -25.663 -13.137  0.00  0.00    -0.302 OA
ATOM     20  H   UNL     1      36.376 -25.539 -14.081  0.00  0.00    +0.222 HD
ENDBRANCH  17  19
BRANCH  17  21
ATOM     21  O   UNL     1      39.080 -25.385 -13.162  0.00  0.00    -0.186 OA
BRANCH  21  22
ATOM     22  P   UNL     1      39.619 -25.745 -14.643  0.00  0.00    +0.481 P 
ATOM     23  O   UNL     1      40.883 -26.554 -14.670  0.00  0.00    -0.227 OA
BRANCH  22  24
ATOM     24  O   UNL     1      38.341 -26.435 -15.349  0.00  0.00    -0.302 OA
ATOM     25  H   UNL     1      37.553 -26.292 -14.802  0.00  0.00    +0.222 HD
ENDBRANCH  22  24
BRANCH  22  26
ATOM     26  O   UNL     1      39.713 -24.300 -15.360  0.00  0.00    -0.302 OA
ATOM     27  H   UNL     1      40.231 -24.377 -16.177  0.00  0.00    +0.222 HD
ENDBRANCH  22  26
ENDBRANCH  21  22
ENDBRANCH  17  21
ENDBRANCH  16  17
ENDBRANCH  15  16
ENDBRANCH   2  15
TORSDOF 14
ENDMDL
MODEL 3
REMARK VINA RESULT:      -9.4      1.348      2.173
REMARK  Name = 445713
REMARK  14 active torsions:
REMARK  status: ('A' for Active; 'I' for Inactive)
REMARK    1  A    between atoms: C_1  and  C_4
REMARK    2  A    between atoms: C_2  and  C_15
REMARK    3  A    between atoms: C_4  and  C_5
REMARK    4  A    between atoms: C_5  and  C_7
REMARK    5  A    between atoms: C_6  and  C_9
REMARK    6  A    between atoms: C_9  and  C_10
REMARK    7  A    between atoms: C_10  and  C_11
REMARK    8  A    between atoms: C_15  and  O_16
REMARK    9  A    between atoms: O_16  and  P_17
REMARK   10  A    between atoms: P_17  and  O_19
REMARK   11  A    between atoms: P_17  and  O_21
REMARK   12  A    between atoms: O_21  and  P_22
REMARK   13  A    between atoms: P_22  and  O_24
REMARK   14  A    between atoms: P_22  and  O_26
REMARK                            x       y       z     vdW  Elec       q    Type
REMARK                         _______ _______ _______ _____ _____    ______ ____
ROOT
ATOM      1  C   UNL     1      34.664 -23.084 -15.871  0.00  0.00    -0.045 C 
ATOM      2  C   UNL     1      34.602 -23.478 -14.584  0.00  0.00    -0.002 C 
ATOM      3  C   UNL     1      35.950 -22.544 -16.440  0.00  0.00    +0.026 C 
ENDROOT
BRANCH   1   4
ATOM      4  C   UNL     1      33.511 -23.160 -16.847  0.00  0.00    +0.026 C 
BRANCH   4   5
ATOM      5  C   UNL     1      33.992 -23.228 -18.301  0.00  0.00    +0.030 C 
BRANCH   5   7
ATOM      6  C   UNL     1      34.254 -21.171 -19.821  0.00  0.00    -0.048 C 
ATOM      7  C   UNL     1      33.525 -22.033 -19.086  0.00  0.00    -0.034 C 
ATOM      8  C   UNL     1      35.748 -21.356 -19.924  0.00  0.00    +0.026 C 
BRANCH   6   9
ATOM      9  C   UNL     1      33.706 -19.956 -20.542  0.00  0.00    +0.026 C 
BRANCH   9  10
ATOM     10  C   UNL     1      34.771 -19.115 -21.259  0.00  0.00    +0.030 C 
BRANCH  10  11
ATOM     11  C   UNL     1      34.587 -19.091 -22.751  0.00  0.00    -0.034 C 
ATOM     12  C   UNL     1      34.750 -18.054 -23.595  0.00  0.00    -0.048 C 
ATOM     13  C   UNL     1      35.163 -16.704 -23.072  0.00  0.00    +0.026 C 
ATOM     14  C   UNL     1      34.547 -18.101 -25.082  0.00  0.00    +0.026 C 
ENDBRANCH  10  11
ENDBRANCH   9  10
ENDBRANCH   6   9
ENDBRANCH   5   7
ENDBRANCH   4   5
ENDBRANCH   1   4
BRANCH   2  15
ATOM     15  C   UNL     1      35.707 -23.452 -13.578  0.00  0.00    +0.179 C 
BRANCH  15  16
ATOM     16  O   UNL     1      36.569 -24.557 -13.822  0.00  0.00    -0.268 OA
BRANCH  16  17
ATOM     17  P   UNL     1      37.427 -25.191 -12.609  0.00  0.00    +0.484 P 
ATOM     18  O   UNL     1      37.321 -24.445 -11.312  0.00  0.00    -0.227 OA
BRANCH  17  19
ATOM     19  O   UNL     1      36.944 -26.734 -12.534  0.00  0.00    -0.302 OA
ATOM     20  H   UNL     1      36.748 -27.056 -13.427  0.00  0.00    +0.222 HD
ENDBRANCH  17  19
BRANCH  17  21
ATOM     21  O   UNL     1      38.932 -25.304 -13.188  0.00  0.00    -0.186 OA
BRANCH  21  22
ATOM     22  P   UNL     1      39.476 -25.473 -14.701  0.00  0.00    +0.481 P 
ATOM     23  O   UNL     1      40.916 -25.883 -14.806  0.00  0.00    -0.227 OA
BRANCH  22  24
ATOM     24  O   UNL     1      38.416 -26.494 -15.368  0.00  0.00    -0.302 OA
ATOM     25  H   UNL     1      38.077 -26.114 -16.193  0.00  0.00    +0.222 HD
ENDBRANCH  22  24
BRANCH  22  26
ATOM     26  O   UNL     1      39.114 -24.053 -15.382  0.00  0.00    -0.302 OA
ATOM     27  H   UNL     1      38.454 -24.189 -16.081  0.00  0.00    +0.222 HD
ENDBRANCH  22  26
ENDBRANCH  21  22
ENDBRANCH  17  21
ENDBRANCH  16  17
ENDBRANCH  15  16
ENDBRANCH   2  15
TORSDOF 14
ENDMDL
MODEL 4
REMARK VINA RESULT:      -9.1      1.421      2.862
REMARK  Name = 445713
REMARK  14 active torsions:
REMARK  status: ('A' for Active; 'I' for Inactive)
REMARK    1  A    between atoms: C_1  and  C_4
REMARK    2  A    between atoms: C_2  and  C_15
REMARK    3  A    between atoms: C_4  and  C_5
REMARK    4  A    between atoms: C_5  and  C_7
REMARK    5  A    between atoms: C_6  and  C_9
REMARK    6  A    between atoms: C_9  and  C_10
REMARK    7  A    between atoms: C_10  and  C_11
REMARK    8  A    between atoms: C_15  and  O_16
REMARK    9  A    between atoms: O_16  and  P_17
REMARK   10  A    between atoms: P_17  and  O_19
REMARK   11  A    between atoms: P_17  and  O_21
REMARK   12  A    between atoms: O_21  and  P_22
REMARK   13  A    between atoms: P_22  and  O_24
REMARK   14  A    between atoms: P_22  and  O_26
REMARK                            x       y       z     vdW  Elec       q    Type
REMARK                         _______ _______ _______ _____ _____    ______ ____
ROOT
ATOM      1  C   UNL     1      36.400 -22.071 -17.224  0.00  0.00    -0.045 C 
ATOM      2  C   UNL     1      35.379 -22.858 -16.832  0.00  0.00    -0.002 C 
ATOM      3  C   UNL     1      37.508 -21.728 -16.263  0.00  0.00    +0.026 C 
ENDROOT
BRANCH   1   4
ATOM      4  C   UNL     1      36.552 -21.493 -18.613  0.00  0.00    +0.026 C 
BRANCH   4   5
ATOM      5  C   UNL     1      35.220 -21.457 -19.371  0.00  0.00    +0.030 C 
BRANCH   5   7
ATOM      6  C   UNL     1      34.324 -19.859 -21.175  0.00  0.00    -0.048 C 
ATOM      7  C   UNL     1      35.304 -20.567 -20.580  0.00  0.00    -0.034 C 
ATOM      8  C   UNL     1      32.923 -19.910 -20.616  0.00  0.00    +0.026 C 
BRANCH   6   9
ATOM      9  C   UNL     1      34.486 -19.024 -22.429  0.00  0.00    +0.026 C 
BRANCH   9  10
ATOM     10  C   UNL     1      35.577 -17.949 -22.333  0.00  0.00    +0.030 C 
BRANCH  10  11
ATOM     11  C   UNL     1      35.130 -16.617 -22.868  0.00  0.00    -0.034 C 
ATOM     12  C   UNL     1      34.658 -15.558 -22.182  0.00  0.00    -0.048 C 
ATOM     13  C   UNL     1      34.518 -15.622 -20.684  0.00  0.00    +0.026 C 
ATOM     14  C   UNL     1      34.228 -14.251 -22.785  0.00  0.00    +0.026 C 
ENDBRANCH  10  11
ENDBRANCH   9  10
ENDBRANCH   6   9
ENDBRANCH   5   7
ENDBRANCH   4   5
ENDBRANCH   1   4
BRANCH   2  15
ATOM     15  C   UNL     1      35.182 -23.479 -15.487  0.00  0.00    +0.179 C 
BRANCH  15  16
ATOM     16  O   UNL     1      35.750 -24.783 -15.502  0.00  0.00    -0.268 OA
BRANCH  16  17
ATOM     17  P   UNL     1      36.946 -25.151 -14.480  0.00  0.00    +0.484 P 
ATOM     18  O   UNL     1      36.859 -26.527 -13.886  0.00  0.00    -0.227 OA
BRANCH  17  19
ATOM     19  O   UNL     1      38.300 -24.871 -15.320  0.00  0.00    -0.302 OA
ATOM     20  H   UNL     1      38.801 -24.157 -14.897  0.00  0.00    +0.222 HD
ENDBRANCH  17  19
BRANCH  17  21
ATOM     21  O   UNL     1      36.933 -23.957 -13.390  0.00  0.00    -0.186 OA
BRANCH  21  22
ATOM     22  P   UNL     1      36.397 -23.919 -11.866  0.00  0.00    +0.481 P 
ATOM     23  O   UNL     1      37.163 -23.005 -10.955  0.00  0.00    -0.227 OA
BRANCH  22  24
ATOM     24  O   UNL     1      34.827 -23.574 -12.030  0.00  0.00    -0.302 OA
ATOM     25  H   UNL     1      34.304 -24.382 -11.909  0.00  0.00    +0.222 HD
ENDBRANCH  22  24
BRANCH  22  26
ATOM     26  O   UNL     1      36.399 -25.477 -11.436  0.00  0.00    -0.302 OA
ATOM     27  H   UNL     1      37.286 -25.848 -11.569  0.00  0.00    +0.222 HD
ENDBRANCH  22  26
ENDBRANCH  21  22
ENDBRANCH  17  21
ENDBRANCH  16  17
ENDBRANCH  15  16
ENDBRANCH   2  15
TORSDOF 14
ENDMDL
MODEL 5
REMARK VINA RESULT:      -9.0      1.607      2.639
REMARK  Name = 445713
REMARK  14 active torsions:
REMARK  status: ('A' for Active; 'I' for Inactive)
REMARK    1  A    between atoms: C_1  and  C_4
REMARK    2  A    between atoms: C_2  and  C_15
REMARK    3  A    between atoms: C_4  and  C_5
REMARK    4  A    between atoms: C_5  and  C_7
REMARK    5  A    between atoms: C_6  and  C_9
REMARK    6  A    between atoms: C_9  and  C_10
REMARK    7  A    between atoms: C_10  and  C_11
REMARK    8  A    between atoms: C_15  and  O_16
REMARK    9  A    between atoms: O_16  and  P_17
REMARK   10  A    between atoms: P_17  and  O_19
REMARK   11  A    between atoms: P_17  and  O_21
REMARK   12  A    between atoms: O_21  and  P_22
REMARK   13  A    between atoms: P_22  and  O_24
REMARK   14  A    between atoms: P_22  and  O_26
REMARK                            x       y       z     vdW  Elec       q    Type
REMARK                         _______ _______ _______ _____ _____    ______ ____
ROOT
ATOM      1  C   UNL     1      36.169 -21.549 -18.706  0.00  0.00    -0.045 C 
ATOM      2  C   UNL     1      36.768 -21.692 -17.509  0.00  0.00    -0.002 C 
ATOM      3  C   UNL     1      34.801 -22.130 -18.947  0.00  0.00    +0.026 C 
ENDROOT
BRANCH   1   4
ATOM      4  C   UNL     1      36.765 -20.802 -19.879  0.00  0.00    +0.026 C 
BRANCH   4   5
ATOM      5  C   UNL     1      35.747 -20.598 -21.007  0.00  0.00    +0.030 C 
BRANCH   5   7
ATOM      6  C   UNL     1      34.186 -18.556 -21.088  0.00  0.00    -0.048 C 
ATOM      7  C   UNL     1      35.395 -19.144 -21.168  0.00  0.00    -0.034 C 
ATOM      8  C   UNL     1      32.965 -19.397 -20.802  0.00  0.00    +0.026 C 
BRANCH   6   9
ATOM      9  C   UNL     1      33.913 -17.084 -21.316  0.00  0.00    +0.026 C 
BRANCH   9  10
ATOM     10  C   UNL     1      34.936 -16.387 -22.224  0.00  0.00    +0.030 C 
BRANCH  10  11
ATOM     11  C   UNL     1      34.304 -15.746 -23.428  0.00  0.00    -0.034 C 
ATOM     12  C   UNL     1      34.153 -16.261 -24.664  0.00  0.00    -0.048 C 
ATOM     13  C   UNL     1      34.651 -17.646 -24.978  0.00  0.00    +0.026 C 
ATOM     14  C   UNL     1      33.509 -15.561 -25.826  0.00  0.00    +0.026 C 
ENDBRANCH  10  11
ENDBRANCH   9  10
ENDBRANCH   6   9
ENDBRANCH   5   7
ENDBRANCH   4   5
ENDBRANCH   1   4
BRANCH   2  15
ATOM     15  C   UNL     1      36.226 -22.394 -16.306  0.00  0.00    +0.179 C 
BRANCH  15  16
ATOM     16  O   UNL     1      37.317 -22.814 -15.495  0.00  0.00    -0.268 OA
BRANCH  16  17
ATOM     17  P   UNL     1      37.047 -23.734 -14.196  0.00  0.00    +0.484 P 
ATOM     18  O   UNL     1      38.237 -23.916 -13.300  0.00  0.00    -0.227 OA
BRANCH  17  19
ATOM     19  O   UNL     1      35.767 -23.054 -13.476  0.00  0.00    -0.302 OA
ATOM     20  H   UNL     1      36.061 -22.307 -12.932  0.00  0.00    +0.222 HD
ENDBRANCH  17  19
BRANCH  17  21
ATOM     21  O   UNL     1      36.447 -25.113 -14.790  0.00  0.00    -0.186 OA
BRANCH  21  22
ATOM     22  P   UNL     1      37.148 -26.545 -15.059  0.00  0.00    +0.481 P 
ATOM     23  O   UNL     1      36.574 -27.314 -16.213  0.00  0.00    -0.227 OA
BRANCH  22  24
ATOM     24  O   UNL     1      38.716 -26.176 -15.185  0.00  0.00    -0.302 OA
ATOM     25  H   UNL     1      39.247 -26.975 -15.043  0.00  0.00    +0.222 HD
ENDBRANCH  22  24
BRANCH  22  26
ATOM     26  O   UNL     1      37.045 -27.279 -13.624  0.00  0.00    -0.302 OA
ATOM     27  H   UNL     1      37.577 -26.794 -12.973  0.00  0.00    +0.222 HD
ENDBRANCH  22  26
ENDBRANCH  21  22
ENDBRANCH  17  21
ENDBRANCH  16  17
ENDBRANCH  15  16
ENDBRANCH   2  15
TORSDOF 14
ENDMDL
MODEL 6
REMARK VINA RESULT:      -9.0      1.276      1.870
REMARK  Name = 445713
REMARK  14 active torsions:
REMARK  status: ('A' for Active; 'I' for Inactive)
REMARK    1  A    between atoms: C_1  and  C_4
REMARK    2  A    between atoms: C_2  and  C_15
REMARK    3  A    between atoms: C_4  and  C_5
REMARK    4  A    between atoms: C_5  and  C_7
REMARK    5  A    between atoms: C_6  and  C_9
REMARK    6  A    between atoms: C_9  and  C_10
REMARK    7  A    between atoms: C_10  and  C_11
REMARK    8  A    between atoms: C_15  and  O_16
REMARK    9  A    between atoms: O_16  and  P_17
REMARK   10  A    between atoms: P_17  and  O_19
REMARK   11  A    between atoms: P_17  and  O_21
REMARK   12  A    between atoms: O_21  and  P_22
REMARK   13  A    between atoms: P_22  and  O_24
REMARK   14  A    between atoms: P_22  and  O_26
REMARK                            x       y       z     vdW  Elec       q    Type
REMARK                         _______ _______ _______ _____ _____    ______ ____
ROOT
ATOM      1  C   UNL     1      36.291 -22.006 -17.443  0.00  0.00    -0.045 C 
ATOM      2  C   UNL     1      35.163 -22.672 -17.133  0.00  0.00    -0.002 C 
ATOM      3  C   UNL     1      37.387 -21.848 -16.421  0.00  0.00    +0.026 C 
ENDROOT
BRANCH   1   4
ATOM      4  C   UNL     1      36.581 -21.392 -18.796  0.00  0.00    +0.026 C 
BRANCH   4   5
ATOM      5  C   UNL     1      35.377 -21.487 -19.740  0.00  0.00    +0.030 C 
BRANCH   5   7
ATOM      6  C   UNL     1      34.369 -19.670 -21.254  0.00  0.00    -0.048 C 
ATOM      7  C   UNL     1      35.400 -20.386 -20.764  0.00  0.00    -0.034 C 
ATOM      8  C   UNL     1      32.969 -19.947 -20.763  0.00  0.00    +0.026 C 
BRANCH   6   9
ATOM      9  C   UNL     1      34.475 -18.608 -22.330  0.00  0.00    +0.026 C 
BRANCH   9  10
ATOM     10  C   UNL     1      35.265 -17.361 -21.907  0.00  0.00    +0.030 C 
BRANCH  10  11
ATOM     11  C   UNL     1      34.467 -16.436 -21.031  0.00  0.00    -0.034 C 
ATOM     12  C   UNL     1      33.678 -15.409 -21.403  0.00  0.00    -0.048 C 
ATOM     13  C   UNL     1      33.514 -15.064 -22.859  0.00  0.00    +0.026 C 
ATOM     14  C   UNL     1      32.906 -14.521 -20.470  0.00  0.00    +0.026 C 
ENDBRANCH  10  11
ENDBRANCH   9  10
ENDBRANCH   6   9
ENDBRANCH   5   7
ENDBRANCH   4   5
ENDBRANCH   1   4
BRANCH   2  15
ATOM     15  C   UNL     1      34.825 -23.320 -15.830  0.00  0.00    +0.179 C 
BRANCH  15  16
ATOM     16  O   UNL     1      35.252 -24.676 -15.873  0.00  0.00    -0.268 OA
BRANCH  16  17
ATOM     17  P   UNL     1      36.100 -25.293 -14.644  0.00  0.00    +0.484 P 
ATOM     18  O   UNL     1      35.653 -24.837 -13.286  0.00  0.00    -0.227 OA
BRANCH  17  19
ATOM     19  O   UNL     1      36.031 -26.894 -14.867  0.00  0.00    -0.302 OA
ATOM     20  H   UNL     1      36.794 -27.181 -15.393  0.00  0.00    +0.222 HD
ENDBRANCH  17  19
BRANCH  17  21
ATOM     21  O   UNL     1      37.638 -24.937 -14.990  0.00  0.00    -0.186 OA
BRANCH  21  22
ATOM     22  P   UNL     1      39.021 -25.471 -14.345  0.00  0.00    +0.481 P 
ATOM     23  O   UNL     1      40.245 -24.720 -14.780  0.00  0.00    -0.227 OA
BRANCH  22  24
ATOM     24  O   UNL     1      38.725 -25.449 -12.756  0.00  0.00    -0.302 OA
ATOM     25  H   UNL     1      38.047 -24.783 -12.563  0.00  0.00    +0.222 HD
ENDBRANCH  22  24
BRANCH  22  26
ATOM     26  O   UNL     1      39.013 -27.045 -14.710  0.00  0.00    -0.302 OA
ATOM     27  H   UNL     1      39.728 -27.492 -14.230  0.00  0.00    +0.222 HD
ENDBRANCH  22  26
ENDBRANCH  21  22
ENDBRANCH  17  21
ENDBRANCH  16  17
ENDBRANCH  15  16
ENDBRANCH   2  15
TORSDOF 14
ENDMDL
MODEL 7
REMARK VINA RESULT:      -8.9      1.746      3.349
REMARK  Name = 445713
REMARK  14 active torsions:
REMARK  status: ('A' for Active; 'I' for Inactive)
REMARK    1  A    between atoms: C_1  and  C_4
REMARK    2  A    between atoms: C_2  and  C_15
REMARK    3  A    between atoms: C_4  and  C_5
REMARK    4  A    between atoms: C_5  and  C_7
REMARK    5  A    between atoms: C_6  and  C_9
REMARK    6  A    between atoms: C_9  and  C_10
REMARK    7  A    between atoms: C_10  and  C_11
REMARK    8  A    between atoms: C_15  and  O_16
REMARK    9  A    between atoms: O_16  and  P_17
REMARK   10  A    between atoms: P_17  and  O_19
REMARK   11  A    between atoms: P_17  and  O_21
REMARK   12  A    between atoms: O_21  and  P_22
REMARK   13  A    between atoms: P_22  and  O_24
REMARK   14  A    between atoms: P_22  and  O_26
REMARK                            x       y       z     vdW  Elec       q    Type
REMARK                         _______ _______ _______ _____ _____    ______ ____
ROOT
ATOM      1  C   UNL     1      33.055 -23.299 -16.637  0.00  0.00    -0.045 C 
ATOM      2  C   UNL     1      34.329 -23.643 -16.369  0.00  0.00    -0.002 C 
ATOM      3  C   UNL     1      31.947 -23.697 -15.698  0.00  0.00    +0.026 C 
ENDROOT
BRANCH   1   4
ATOM      4  C   UNL     1      32.619 -22.491 -17.840  0.00  0.00    +0.026 C 
BRANCH   4   5
ATOM      5  C   UNL     1      33.675 -22.499 -18.951  0.00  0.00    +0.030 C 
BRANCH   5   7
ATOM      6  C   UNL     1      34.577 -20.482 -20.266  0.00  0.00    -0.048 C 
ATOM      7  C   UNL     1      33.582 -21.262 -19.801  0.00  0.00    -0.034 C 
ATOM      8  C   UNL     1      36.009 -20.825 -19.935  0.00  0.00    +0.026 C 
BRANCH   6   9
ATOM      9  C   UNL     1      34.389 -19.217 -21.077  0.00  0.00    +0.026 C 
BRANCH   9  10
ATOM     10  C   UNL     1      35.601 -18.836 -21.939  0.00  0.00    +0.030 C 
BRANCH  10  11
ATOM     11  C   UNL     1      35.228 -18.522 -23.361  0.00  0.00    -0.034 C 
ATOM     12  C   UNL     1      34.948 -17.321 -23.905  0.00  0.00    -0.048 C 
ATOM     13  C   UNL     1      34.981 -16.076 -23.059  0.00  0.00    +0.026 C 
ATOM     14  C   UNL     1      34.580 -17.080 -25.341  0.00  0.00    +0.026 C 
ENDBRANCH  10  11
ENDBRANCH   9  10
ENDBRANCH   6   9
ENDBRANCH   5   7
ENDBRANCH   4   5
ENDBRANCH   1   4
BRANCH   2  15
ATOM     15  C   UNL     1      34.828 -24.416 -15.191  0.00  0.00    +0.179 C 
BRANCH  15  16
ATOM     16  O   UNL     1      36.011 -25.109 -15.571  0.00  0.00    -0.268 OA
BRANCH  16  17
ATOM     17  P   UNL     1      37.205 -25.307 -14.502  0.00  0.00    +0.484 P 
ATOM     18  O   UNL     1      38.196 -26.375 -14.862  0.00  0.00    -0.227 OA
BRANCH  17  19
ATOM     19  O   UNL     1      37.848 -23.831 -14.333  0.00  0.00    -0.302 OA
ATOM     20  H   UNL     1      38.551 -23.859 -13.666  0.00  0.00    +0.222 HD
ENDBRANCH  17  19
BRANCH  17  21
ATOM     21  O   UNL     1      36.455 -25.546 -13.090  0.00  0.00    -0.186 OA
BRANCH  21  22
ATOM     22  P   UNL     1      36.336 -24.608 -11.780  0.00  0.00    +0.481 P 
ATOM     23  O   UNL     1      35.424 -25.137 -10.712  0.00  0.00    -0.227 OA
BRANCH  22  24
ATOM     24  O   UNL     1      37.874 -24.394 -11.332  0.00  0.00    -0.302 OA
ATOM     25  H   UNL     1      38.462 -24.755 -12.014  0.00  0.00    +0.222 HD
ENDBRANCH  22  24
BRANCH  22  26
ATOM     26  O   UNL     1      35.918 -23.173 -12.393  0.00  0.00    -0.302 OA
ATOM     27  H   UNL     1      35.394 -22.682 -11.739  0.00  0.00    +0.222 HD
ENDBRANCH  22  26
ENDBRANCH  21  22
ENDBRANCH  17  21
ENDBRANCH  16  17
ENDBRANCH  15  16
ENDBRANCH   2  15
TORSDOF 14
ENDMDL
MODEL 8
REMARK VINA RESULT:      -8.9      1.500      2.982
REMARK  Name = 445713
REMARK  14 active torsions:
REMARK  status: ('A' for Active; 'I' for Inactive)
REMARK    1  A    between atoms: C_1  and  C_4
REMARK    2  A    between atoms: C_2  and  C_15
REMARK    3  A    between atoms: C_4  and  C_5
REMARK    4  A    between atoms: C_5  and  C_7
REMARK    5  A    between atoms: C_6  and  C_9
REMARK    6  A    between atoms: C_9  and  C_10
REMARK    7  A    between atoms: C_10  and  C_11
REMARK    8  A    between atoms: C_15  and  O_16
REMARK    9  A    between atoms: O_16  and  P_17
REMARK   10  A    between atoms: P_17  and  O_19
REMARK   11  A    between atoms: P_17  and  O_21
REMARK   12  A    between atoms: O_21  and  P_22
REMARK   13  A    between atoms: P_22  and  O_24
REMARK   14  A    between atoms: P_22  and  O_26
REMARK                            x       y       z     vdW  Elec       q    Type
REMARK                         _______ _______ _______ _____ _____    ______ ____
ROOT
ATOM      1  C   UNL     1      35.791 -21.763 -18.932  0.00  0.00    -0.045 C 
ATOM      2  C   UNL     1      36.455 -21.899 -17.769  0.00  0.00    -0.002 C 
ATOM      3  C   UNL     1      34.342 -22.161 -19.032  0.00  0.00    +0.026 C 
ENDROOT
BRANCH   1   4
ATOM      4  C   UNL     1      36.391 -21.199 -20.201  0.00  0.00    +0.026 C 
BRANCH   4   5
ATOM      5  C   UNL     1      36.659 -19.693 -20.091  0.00  0.00    +0.030 C 
BRANCH   5   7
ATOM      6  C   UNL     1      35.043 -18.708 -21.831  0.00  0.00    -0.048 C 
ATOM      7  C   UNL     1      36.274 -18.977 -21.356  0.00  0.00    -0.034 C 
ATOM      8  C   UNL     1      33.830 -19.152 -21.050  0.00  0.00    +0.026 C 
BRANCH   6   9
ATOM      9  C   UNL     1      34.744 -18.023 -23.149  0.00  0.00    +0.026 C 
BRANCH   9  10
ATOM     10  C   UNL     1      35.161 -16.547 -23.200  0.00  0.00    +0.030 C 
BRANCH  10  11
ATOM     11  C   UNL     1      34.025 -15.610 -22.892  0.00  0.00    -0.034 C 
ATOM     12  C   UNL     1      33.697 -15.060 -21.706  0.00  0.00    -0.048 C 
ATOM     13  C   UNL     1      34.507 -15.365 -20.474  0.00  0.00    +0.026 C 
ATOM     14  C   UNL     1      32.543 -14.128 -21.469  0.00  0.00    +0.026 C 
ENDBRANCH  10  11
ENDBRANCH   9  10
ENDBRANCH   6   9
ENDBRANCH   5   7
ENDBRANCH   4   5
ENDBRANCH   1   4
BRANCH   2  15
ATOM     15  C   UNL     1      35.917 -22.425 -16.478  0.00  0.00    +0.179 C 
BRANCH  15  16
ATOM     16  O   UNL     1      36.963 -22.418 -15.513  0.00  0.00    -0.268 OA
BRANCH  16  17
ATOM     17  P   UNL     1      37.600 -23.814 -15.008  0.00  0.00    +0.484 P 
ATOM     18  O   UNL     1      36.726 -25.015 -15.226  0.00  0.00    -0.227 OA
BRANCH  17  19
ATOM     19  O   UNL     1      39.038 -23.894 -15.745  0.00  0.00    -0.302 OA
ATOM     20  H   UNL     1      39.744 -23.791 -15.088  0.00  0.00    +0.222 HD
ENDBRANCH  17  19
BRANCH  17  21
ATOM     21  O   UNL     1      37.990 -23.549 -13.463  0.00  0.00    -0.186 OA
BRANCH  21  22
ATOM     22  P   UNL     1      37.117 -23.691 -12.109  0.00  0.00    +0.481 P 
ATOM     23  O   UNL     1      37.388 -22.636 -11.077  0.00  0.00    -0.227 OA
BRANCH  22  24
ATOM     24  O   UNL     1      35.596 -23.754 -12.650  0.00  0.00    -0.302 OA
ATOM     25  H   UNL     1      35.528 -24.429 -13.344  0.00  0.00    +0.222 HD
ENDBRANCH  22  24
BRANCH  22  26
ATOM     26  O   UNL     1      37.415 -25.207 -11.637  0.00  0.00    -0.302 OA
ATOM     27  H   UNL     1      36.587 -25.713 -11.633  0.00  0.00    +0.222 HD
ENDBRANCH  22  26
ENDBRANCH  21  22
ENDBRANCH  17  21
ENDBRANCH  16  17
ENDBRANCH  15  16
ENDBRANCH   2  15
TORSDOF 14
ENDMDL
MODEL 9
REMARK VINA RESULT:      -8.8      1.768      3.517
REMARK  Name = 445713
REMARK  14 active torsions:
REMARK  status: ('A' for Active; 'I' for Inactive)
REMARK    1  A    between atoms: C_1  and  C_4
REMARK    2  A    between atoms: C_2  and  C_15
REMARK    3  A    between atoms: C_4  and  C_5
REMARK    4  A    between atoms: C_5  and  C_7
REMARK    5  A    between atoms: C_6  and  C_9
REMARK    6  A    between atoms: C_9  and  C_10
REMARK    7  A    between atoms: C_10  and  C_11
REMARK    8  A    between atoms: C_15  and  O_16
REMARK    9  A    between atoms: O_16  and  P_17
REMARK   10  A    between atoms: P_17  and  O_19
REMARK   11  A    between atoms: P_17  and  O_21
REMARK   12  A    between atoms: O_21  and  P_22
REMARK   13  A    between atoms: P_22  and  O_24
REMARK   14  A    between atoms: P_22  and  O_26
REMARK                            x       y       z     vdW  Elec       q    Type
REMARK                         _______ _______ _______ _____ _____    ______ ____
ROOT
ATOM      1  C   UNL     1      35.531 -21.693 -18.942  0.00  0.00    -0.045 C 
ATOM      2  C   UNL     1      35.709 -22.079 -17.664  0.00  0.00    -0.002 C 
ATOM      3  C   UNL     1      36.699 -21.206 -19.759  0.00  0.00    +0.026 C 
ENDROOT
BRANCH   1   4
ATOM      4  C   UNL     1      34.206 -21.727 -19.672  0.00  0.00    +0.026 C 
BRANCH   4   5
ATOM      5  C   UNL     1      33.700 -20.320 -20.011  0.00  0.00    +0.030 C 
BRANCH   5   7
ATOM      6  C   UNL     1      34.503 -19.043 -22.092  0.00  0.00    -0.048 C 
ATOM      7  C   UNL     1      33.827 -20.034 -21.482  0.00  0.00    -0.034 C 
ATOM      8  C   UNL     1      35.265 -18.038 -21.262  0.00  0.00    +0.026 C 
BRANCH   6   9
ATOM      9  C   UNL     1      34.535 -18.797 -23.587  0.00  0.00    +0.026 C 
BRANCH   9  10
ATOM     10  C   UNL     1      35.182 -17.465 -23.993  0.00  0.00    +0.030 C 
BRANCH  10  11
ATOM     11  C   UNL     1      34.469 -16.796 -25.135  0.00  0.00    -0.034 C 
ATOM     12  C   UNL     1      33.737 -15.665 -25.114  0.00  0.00    -0.048 C 
ATOM     13  C   UNL     1      33.545 -14.906 -23.828  0.00  0.00    +0.026 C 
ATOM     14  C   UNL     1      33.049 -15.050 -26.299  0.00  0.00    +0.026 C 
ENDBRANCH  10  11
ENDBRANCH   9  10
ENDBRANCH   6   9
ENDBRANCH   5   7
ENDBRANCH   4   5
ENDBRANCH   1   4
BRANCH   2  15
ATOM     15  C   UNL     1      36.989 -22.093 -16.894  0.00  0.00    +0.179 C 
BRANCH  15  16
ATOM     16  O   UNL     1      36.702 -22.428 -15.542  0.00  0.00    -0.268 OA
BRANCH  16  17
ATOM     17  P   UNL     1      37.103 -23.885 -14.972  0.00  0.00    +0.484 P 
ATOM     18  O   UNL     1      36.233 -25.007 -15.458  0.00  0.00    -0.227 OA
BRANCH  17  19
ATOM     19  O   UNL     1      38.670 -24.048 -15.339  0.00  0.00    -0.302 OA
ATOM     20  H   UNL     1      39.156 -24.347 -14.556  0.00  0.00    +0.222 HD
ENDBRANCH  17  19
BRANCH  17  21
ATOM     21  O   UNL     1      37.117 -23.706 -13.366  0.00  0.00    -0.186 OA
BRANCH  21  22
ATOM     22  P   UNL     1      36.237 -24.419 -12.212  0.00  0.00    +0.481 P 
ATOM     23  O   UNL     1      34.801 -23.989 -12.164  0.00  0.00    -0.227 OA
BRANCH  22  24
ATOM     24  O   UNL     1      36.479 -25.995 -12.477  0.00  0.00    -0.302 OA
ATOM     25  H   UNL     1      37.235 -26.109 -13.074  0.00  0.00    +0.222 HD
ENDBRANCH  22  24
BRANCH  22  26
ATOM     26  O   UNL     1      37.088 -24.127 -10.869  0.00  0.00    -0.302 OA
ATOM     27  H   UNL     1      36.484 -23.882 -10.150  0.00  0.00    +0.222 HD
ENDBRANCH  22  26
ENDBRANCH  21  22
ENDBRANCH  17  21
ENDBRANCH  16  17
ENDBRANCH  15  16
ENDBRANCH   2  15
TORSDOF 14
ENDMDL
