MODEL 1
REMARK VINA RESULT:      -8.8      0.000      0.000
REMARK  Name = 94280
REMARK  4 active torsions:
REMARK  status: ('A' for Active; 'I' for Inactive)
REMARK    1  A    between atoms: N_1  and  C_17
REMARK    2  A    between atoms: C_17  and  C_18
REMARK    3  A    between atoms: C_18  and  C_19
REMARK    4  A    between atoms: C_19  and  N_20
REMARK                            x       y       z     vdW  Elec       q    Type
REMARK                         _______ _______ _______ _____ _____    ______ ____
ROOT
ATOM      1  N   UNL     1      32.978 -14.253 -23.837  0.00  0.00    -0.287 N 
ATOM      2  C   UNL     1      33.348 -15.518 -21.243  0.00  0.00    +0.040 C 
ATOM      3  C   UNL     1      32.765 -14.100 -21.408  0.00  0.00    -0.005 C 
ATOM      4  C   UNL     1      33.903 -16.114 -22.554  0.00  0.00    -0.005 C 
ATOM      5  C   UNL     1      32.621 -13.515 -22.686  0.00  0.00    +0.048 C 
ATOM      6  C   UNL     1      33.717 -15.455 -23.790  0.00  0.00    +0.048 C 
ATOM      7  C   UNL     1      34.502 -15.456 -20.206  0.00  0.00    +0.009 C 
ATOM      8  C   UNL     1      32.228 -16.449 -20.723  0.00  0.00    +0.009 C 
ATOM      9  C   UNL     1      32.344 -13.374 -20.271  0.00  0.00    -0.003 C 
ATOM     10  C   UNL     1      34.591 -17.348 -22.531  0.00  0.00    -0.003 C 
ATOM     11  C   UNL     1      32.132 -12.192 -22.757  0.00  0.00    +0.015 C 
ATOM     12  C   UNL     1      34.301 -16.030 -24.941  0.00  0.00    +0.015 C 
ATOM     13  C   UNL     1      31.840 -12.081 -20.373  0.00  0.00    -0.000 C 
ATOM     14  C   UNL     1      35.132 -17.905 -23.686  0.00  0.00    -0.000 C 
ATOM     15  C   UNL     1      31.746 -11.484 -21.618  0.00  0.00    +0.001 C 
ATOM     16  C   UNL     1      34.998 -17.238 -24.891  0.00  0.00    +0.001 C 
ENDROOT
BRANCH   1  17
ATOM     17  C   UNL     1      32.560 -13.744 -25.148  0.00  0.00    +0.093 C 
BRANCH  17  18
ATOM     18  C   UNL     1      33.681 -13.002 -25.873  0.00  0.00    -0.001 C 
BRANCH  18  19
ATOM     19  C   UNL     1      33.626 -11.477 -25.732  0.00  0.00    -0.076 C 
BRANCH  19  20
ATOM     20  N   UNL     1      34.845 -10.941 -25.139  0.00  0.00    +0.384 N 
ATOM     21  C   UNL     1      34.526  -9.941 -24.119  0.00  0.00    -0.101 C 
ATOM     22  C   UNL     1      35.705 -10.357 -26.170  0.00  0.00    -0.101 C 
ATOM     23  H   UNL     1      35.348 -11.709 -24.694  0.00  0.00    -0.080 HD
ENDBRANCH  19  20
ENDBRANCH  18  19
ENDBRANCH  17  18
ENDBRANCH   1  17
TORSDOF 4
ENDMDL
MODEL 2
REMARK VINA RESULT:      -8.7      0.693      4.107
REMARK  Name = 94280
REMARK  4 active torsions:
REMARK  status: ('A' for Active; 'I' for Inactive)
REMARK    1  A    between atoms: N_1  and  C_17
REMARK    2  A    between atoms: C_17  and  C_18
REMARK    3  A    between atoms: C_18  and  C_19
REMARK    4  A    between atoms: C_19  and  N_20
REMARK                            x       y       z     vdW  Elec       q    Type
REMARK                         _______ _______ _______ _____ _____    ______ ____
ROOT
ATOM      1  N   UNL     1      33.004 -13.773 -23.866  0.00  0.00    -0.287 N 
ATOM      2  C   UNL     1      33.508 -15.139 -21.346  0.00  0.00    +0.040 C 
ATOM      3  C   UNL     1      33.840 -15.761 -22.718  0.00  0.00    -0.005 C 
ATOM      4  C   UNL     1      32.702 -13.827 -21.443  0.00  0.00    -0.005 C 
ATOM      5  C   UNL     1      33.560 -15.071 -23.919  0.00  0.00    +0.048 C 
ATOM      6  C   UNL     1      32.464 -13.208 -22.690  0.00  0.00    +0.048 C 
ATOM      7  C   UNL     1      32.677 -16.166 -20.531  0.00  0.00    +0.009 C 
ATOM      8  C   UNL     1      34.836 -14.840 -20.612  0.00  0.00    +0.009 C 
ATOM      9  C   UNL     1      34.455 -17.032 -22.785  0.00  0.00    -0.003 C 
ATOM     10  C   UNL     1      32.208 -13.216 -20.267  0.00  0.00    -0.003 C 
ATOM     11  C   UNL     1      33.840 -15.725 -25.139  0.00  0.00    +0.015 C 
ATOM     12  C   UNL     1      31.670 -12.039 -22.708  0.00  0.00    +0.015 C 
ATOM     13  C   UNL     1      34.744 -17.641 -24.003  0.00  0.00    -0.000 C 
ATOM     14  C   UNL     1      31.451 -12.049 -20.314  0.00  0.00    -0.000 C 
ATOM     15  C   UNL     1      34.424 -16.991 -25.182  0.00  0.00    +0.001 C 
ATOM     16  C   UNL     1      31.171 -11.466 -21.537  0.00  0.00    +0.001 C 
ENDROOT
BRANCH   1  17
ATOM     17  C   UNL     1      32.986 -12.973 -25.095  0.00  0.00    +0.093 C 
BRANCH  17  18
ATOM     18  C   UNL     1      34.197 -12.049 -25.210  0.00  0.00    -0.001 C 
BRANCH  18  19
ATOM     19  C   UNL     1      34.154 -10.829 -24.283  0.00  0.00    -0.076 C 
BRANCH  19  20
ATOM     20  N   UNL     1      35.268  -9.921 -24.526  0.00  0.00    +0.384 N 
ATOM     21  C   UNL     1      34.876  -8.538 -24.245  0.00  0.00    -0.101 C 
ATOM     22  C   UNL     1      35.742 -10.043 -25.906  0.00  0.00    -0.101 C 
ATOM     23  H   UNL     1      36.029 -10.176 -23.897  0.00  0.00    -0.080 HD
ENDBRANCH  19  20
ENDBRANCH  18  19
ENDBRANCH  17  18
ENDBRANCH   1  17
TORSDOF 4
ENDMDL
MODEL 3
REMARK VINA RESULT:      -8.2      2.332      7.046
REMARK  Name = 94280
REMARK  4 active torsions:
REMARK  status: ('A' for Active; 'I' for Inactive)
REMARK    1  A    between atoms: N_1  and  C_17
REMARK    2  A    between atoms: C_17  and  C_18
REMARK    3  A    between atoms: C_18  and  C_19
REMARK    4  A    between atoms: C_19  and  N_20
REMARK                            x       y       z     vdW  Elec       q    Type
REMARK                         _______ _______ _______ _____ _____    ______ ____
ROOT
ATOM      1  N   UNL     1      32.472 -10.702 -22.580  0.00  0.00    -0.287 N 
ATOM      2  C   UNL     1      33.671  -8.180 -23.396  0.00  0.00    +0.040 C 
ATOM      3  C   UNL     1      33.912  -9.504 -24.147  0.00  0.00    -0.005 C 
ATOM      4  C   UNL     1      32.909  -8.356 -22.065  0.00  0.00    -0.005 C 
ATOM      5  C   UNL     1      33.327 -10.712 -23.704  0.00  0.00    +0.048 C 
ATOM      6  C   UNL     1      32.360  -9.604 -21.699  0.00  0.00    +0.048 C 
ATOM      7  C   UNL     1      35.048  -7.531 -23.091  0.00  0.00    +0.009 C 
ATOM      8  C   UNL     1      32.844  -7.245 -24.309  0.00  0.00    +0.009 C 
ATOM      9  C   UNL     1      34.714  -9.518 -25.312  0.00  0.00    -0.003 C 
ATOM     10  C   UNL     1      32.736  -7.249 -21.202  0.00  0.00    -0.003 C 
ATOM     11  C   UNL     1      33.637 -11.896 -24.409  0.00  0.00    +0.015 C 
ATOM     12  C   UNL     1      31.726  -9.705 -20.441  0.00  0.00    +0.015 C 
ATOM     13  C   UNL     1      34.981 -10.697 -26.002  0.00  0.00    -0.000 C 
ATOM     14  C   UNL     1      32.081  -7.373 -19.980  0.00  0.00    -0.000 C 
ATOM     15  C   UNL     1      34.452 -11.890 -25.542  0.00  0.00    +0.001 C 
ATOM     16  C   UNL     1      31.586  -8.605 -19.592  0.00  0.00    +0.001 C 
ENDROOT
BRANCH   1  17
ATOM     17  C   UNL     1      31.660 -11.895 -22.312  0.00  0.00    +0.093 C 
BRANCH  17  18
ATOM     18  C   UNL     1      32.305 -12.825 -21.286  0.00  0.00    -0.001 C 
BRANCH  18  19
ATOM     19  C   UNL     1      32.647 -14.218 -21.822  0.00  0.00    -0.076 C 
BRANCH  19  20
ATOM     20  N   UNL     1      34.081 -14.478 -21.786  0.00  0.00    +0.384 N 
ATOM     21  C   UNL     1      34.505 -15.192 -22.993  0.00  0.00    -0.101 C 
ATOM     22  C   UNL     1      34.437 -15.247 -20.592  0.00  0.00    -0.101 C 
ATOM     23  H   UNL     1      34.566 -13.582 -21.753  0.00  0.00    -0.080 HD
ENDBRANCH  19  20
ENDBRANCH  18  19
ENDBRANCH  17  18
ENDBRANCH   1  17
TORSDOF 4
ENDMDL
MODEL 4
REMARK VINA RESULT:      -8.1      1.862      6.442
REMARK  Name = 94280
REMARK  4 active torsions:
REMARK  status: ('A' for Active; 'I' for Inactive)
REMARK    1  A    between atoms: N_1  and  C_17
REMARK    2  A    between atoms: C_17  and  C_18
REMARK    3  A    between atoms: C_18  and  C_19
REMARK    4  A    between atoms: C_19  and  N_20
REMARK                            x       y       z     vdW  Elec       q    Type
REMARK                         _______ _______ _______ _____ _____    ______ ____
ROOT
ATOM      1  N   UNL     1      32.690 -11.575 -22.861  0.00  0.00    -0.287 N 
ATOM      2  C   UNL     1      32.991  -8.694 -22.586  0.00  0.00    +0.040 C 
ATOM      3  C   UNL     1      33.679  -9.506 -23.702  0.00  0.00    -0.005 C 
ATOM      4  C   UNL     1      32.305  -9.572 -21.519  0.00  0.00    -0.005 C 
ATOM      5  C   UNL     1      33.522 -10.908 -23.787  0.00  0.00    +0.048 C 
ATOM      6  C   UNL     1      32.198 -10.971 -21.683  0.00  0.00    +0.048 C 
ATOM      7  C   UNL     1      34.065  -7.818 -21.885  0.00  0.00    +0.009 C 
ATOM      8  C   UNL     1      31.918  -7.788 -23.232  0.00  0.00    +0.009 C 
ATOM      9  C   UNL     1      34.463  -8.844 -24.674  0.00  0.00    -0.003 C 
ATOM     10  C   UNL     1      31.752  -8.972 -20.363  0.00  0.00    -0.003 C 
ATOM     11  C   UNL     1      34.226 -11.592 -24.802  0.00  0.00    +0.015 C 
ATOM     12  C   UNL     1      31.607 -11.717 -20.639  0.00  0.00    +0.015 C 
ATOM     13  C   UNL     1      35.124  -9.542 -25.681  0.00  0.00    -0.000 C 
ATOM     14  C   UNL     1      31.151  -9.731 -19.363  0.00  0.00    -0.000 C 
ATOM     15  C   UNL     1      35.015 -10.921 -25.737  0.00  0.00    +0.001 C 
ATOM     16  C   UNL     1      31.090 -11.107 -19.495  0.00  0.00    +0.001 C 
ENDROOT
BRANCH   1  17
ATOM     17  C   UNL     1      32.319 -12.968 -23.135  0.00  0.00    +0.093 C 
BRANCH  17  18
ATOM     18  C   UNL     1      33.383 -13.960 -22.670  0.00  0.00    -0.001 C 
BRANCH  18  19
ATOM     19  C   UNL     1      33.695 -15.072 -23.676  0.00  0.00    -0.076 C 
BRANCH  19  20
ATOM     20  N   UNL     1      34.824 -15.890 -23.251  0.00  0.00    +0.384 N 
ATOM     21  C   UNL     1      34.897 -17.120 -24.043  0.00  0.00    -0.101 C 
ATOM     22  C   UNL     1      34.721 -16.210 -21.826  0.00  0.00    -0.101 C 
ATOM     23  H   UNL     1      35.679 -15.356 -23.403  0.00  0.00    -0.080 HD
ENDBRANCH  19  20
ENDBRANCH  18  19
ENDBRANCH  17  18
ENDBRANCH   1  17
TORSDOF 4
ENDMDL
MODEL 5
REMARK VINA RESULT:      -7.9      4.322      8.764
REMARK  Name = 94280
REMARK  4 active torsions:
REMARK  status: ('A' for Active; 'I' for Inactive)
REMARK    1  A    between atoms: N_1  and  C_17
REMARK    2  A    between atoms: C_17  and  C_18
REMARK    3  A    between atoms: C_18  and  C_19
REMARK    4  A    between atoms: C_19  and  N_20
REMARK                            x       y       z     vdW  Elec       q    Type
REMARK                         _______ _______ _______ _____ _____    ______ ____
ROOT
ATOM      1  N   UNL     1      34.043  -7.109 -23.844  0.00  0.00    -0.287 N 
ATOM      2  C   UNL     1      31.733  -5.343 -23.945  0.00  0.00    +0.040 C 
ATOM      3  C   UNL     1      32.823  -5.360 -25.035  0.00  0.00    -0.005 C 
ATOM      4  C   UNL     1      32.086  -6.193 -22.707  0.00  0.00    -0.005 C 
ATOM      5  C   UNL     1      33.940  -6.220 -24.937  0.00  0.00    +0.048 C 
ATOM      6  C   UNL     1      33.229  -7.022 -22.693  0.00  0.00    +0.048 C 
ATOM      7  C   UNL     1      31.520  -3.874 -23.488  0.00  0.00    +0.009 C 
ATOM      8  C   UNL     1      30.424  -5.895 -24.556  0.00  0.00    +0.009 C 
ATOM      9  C   UNL     1      32.702  -4.521 -26.167  0.00  0.00    -0.003 C 
ATOM     10  C   UNL     1      31.246  -6.163 -21.570  0.00  0.00    -0.003 C 
ATOM     11  C   UNL     1      34.927  -6.141 -25.944  0.00  0.00    +0.015 C 
ATOM     12  C   UNL     1      33.521  -7.728 -21.505  0.00  0.00    +0.015 C 
ATOM     13  C   UNL     1      33.678  -4.484 -27.159  0.00  0.00    -0.000 C 
ATOM     14  C   UNL     1      31.544  -6.892 -20.422  0.00  0.00    -0.000 C 
ATOM     15  C   UNL     1      34.799  -5.287 -27.040  0.00  0.00    +0.001 C 
ATOM     16  C   UNL     1      32.690  -7.666 -20.385  0.00  0.00    +0.001 C 
ENDROOT
BRANCH   1  17
ATOM     17  C   UNL     1      35.047  -8.176 -23.907  0.00  0.00    +0.093 C 
BRANCH  17  18
ATOM     18  C   UNL     1      34.576  -9.377 -24.725  0.00  0.00    -0.001 C 
BRANCH  18  19
ATOM     19  C   UNL     1      33.960 -10.507 -23.894  0.00  0.00    -0.076 C 
BRANCH  19  20
ATOM     20  N   UNL     1      34.269 -11.820 -24.446  0.00  0.00    +0.384 N 
ATOM     21  C   UNL     1      33.853 -11.900 -25.848  0.00  0.00    -0.101 C 
ATOM     22  C   UNL     1      33.620 -12.874 -23.664  0.00  0.00    -0.101 C 
ATOM     23  H   UNL     1      35.279 -11.956 -24.400  0.00  0.00    -0.080 HD
ENDBRANCH  19  20
ENDBRANCH  18  19
ENDBRANCH  17  18
ENDBRANCH   1  17
TORSDOF 4
ENDMDL
MODEL 6
REMARK VINA RESULT:      -7.6      1.613      5.228
REMARK  Name = 94280
REMARK  4 active torsions:
REMARK  status: ('A' for Active; 'I' for Inactive)
REMARK    1  A    between atoms: N_1  and  C_17
REMARK    2  A    between atoms: C_17  and  C_18
REMARK    3  A    between atoms: C_18  and  C_19
REMARK    4  A    between atoms: C_19  and  N_20
REMARK                            x       y       z     vdW  Elec       q    Type
REMARK                         _______ _______ _______ _____ _____    ______ ____
ROOT
ATOM      1  N   UNL     1      32.519 -12.859 -22.477  0.00  0.00    -0.287 N 
ATOM      2  C   UNL     1      33.129 -10.290 -23.699  0.00  0.00    +0.040 C 
ATOM      3  C   UNL     1      32.531 -10.424 -22.284  0.00  0.00    -0.005 C 
ATOM      4  C   UNL     1      33.178 -11.621 -24.476  0.00  0.00    -0.005 C 
ATOM      5  C   UNL     1      32.231 -11.691 -21.736  0.00  0.00    +0.048 C 
ATOM      6  C   UNL     1      32.855 -12.845 -23.849  0.00  0.00    +0.048 C 
ATOM      7  C   UNL     1      32.262  -9.283 -24.503  0.00  0.00    +0.009 C 
ATOM      8  C   UNL     1      34.572  -9.749 -23.569  0.00  0.00    +0.009 C 
ATOM      9  C   UNL     1      32.297  -9.268 -21.505  0.00  0.00    -0.003 C 
ATOM     10  C   UNL     1      33.573 -11.630 -25.834  0.00  0.00    -0.003 C 
ATOM     11  C   UNL     1      31.634 -11.735 -20.456  0.00  0.00    +0.015 C 
ATOM     12  C   UNL     1      32.867 -14.017 -24.637  0.00  0.00    +0.015 C 
ATOM     13  C   UNL     1      31.731  -9.343 -20.235  0.00  0.00    -0.000 C 
ATOM     14  C   UNL     1      33.602 -12.805 -26.579  0.00  0.00    -0.000 C 
ATOM     15  C   UNL     1      31.388 -10.579 -19.715  0.00  0.00    +0.001 C 
ATOM     16  C   UNL     1      33.236 -13.999 -25.983  0.00  0.00    +0.001 C 
ENDROOT
BRANCH   1  17
ATOM     17  C   UNL     1      32.466 -14.152 -21.787  0.00  0.00    +0.093 C 
BRANCH  17  18
ATOM     18  C   UNL     1      33.835 -14.604 -21.282  0.00  0.00    -0.001 C 
BRANCH  18  19
ATOM     19  C   UNL     1      33.937 -16.103 -20.984  0.00  0.00    -0.076 C 
BRANCH  19  20
ATOM     20  N   UNL     1      35.140 -16.692 -21.559  0.00  0.00    +0.384 N 
ATOM     21  C   UNL     1      35.168 -16.494 -23.010  0.00  0.00    -0.101 C 
ATOM     22  C   UNL     1      35.218 -18.119 -21.241  0.00  0.00    -0.101 C 
ATOM     23  H   UNL     1      35.949 -16.224 -21.153  0.00  0.00    -0.080 HD
ENDBRANCH  19  20
ENDBRANCH  18  19
ENDBRANCH  17  18
ENDBRANCH   1  17
TORSDOF 4
ENDMDL
MODEL 7
REMARK VINA RESULT:      -7.6     10.071     13.447
REMARK  Name = 94280
REMARK  4 active torsions:
REMARK  status: ('A' for Active; 'I' for Inactive)
REMARK    1  A    between atoms: N_1  and  C_17
REMARK    2  A    between atoms: C_17  and  C_18
REMARK    3  A    between atoms: C_18  and  C_19
REMARK    4  A    between atoms: C_19  and  N_20
REMARK                            x       y       z     vdW  Elec       q    Type
REMARK                         _______ _______ _______ _____ _____    ______ ____
ROOT
ATOM      1  N   UNL     1      34.626 -23.216 -15.027  0.00  0.00    -0.287 N 
ATOM      2  C   UNL     1      33.430 -22.979 -17.669  0.00  0.00    +0.040 C 
ATOM      3  C   UNL     1      34.871 -22.527 -17.357  0.00  0.00    -0.005 C 
ATOM      4  C   UNL     1      32.622 -23.371 -16.414  0.00  0.00    -0.005 C 
ATOM      5  C   UNL     1      35.406 -22.642 -16.054  0.00  0.00    +0.048 C 
ATOM      6  C   UNL     1      33.239 -23.455 -15.146  0.00  0.00    +0.048 C 
ATOM      7  C   UNL     1      32.694 -21.812 -18.381  0.00  0.00    +0.009 C 
ATOM      8  C   UNL     1      33.495 -24.206 -18.607  0.00  0.00    +0.009 C 
ATOM      9  C   UNL     1      35.686 -22.009 -18.390  0.00  0.00    -0.003 C 
ATOM     10  C   UNL     1      31.245 -23.674 -16.529  0.00  0.00    -0.003 C 
ATOM     11  C   UNL     1      36.713 -22.156 -15.831  0.00  0.00    +0.015 C 
ATOM     12  C   UNL     1      32.425 -23.765 -14.033  0.00  0.00    +0.015 C 
ATOM     13  C   UNL     1      36.982 -21.563 -18.145  0.00  0.00    -0.000 C 
ATOM     14  C   UNL     1      30.475 -24.003 -15.418  0.00  0.00    -0.000 C 
ATOM     15  C   UNL     1      37.492 -21.625 -16.860  0.00  0.00    +0.001 C 
ATOM     16  C   UNL     1      31.063 -24.037 -14.166  0.00  0.00    +0.001 C 
ENDROOT
BRANCH   1  17
ATOM     17  C   UNL     1      35.289 -23.582 -13.770  0.00  0.00    +0.093 C 
BRANCH  17  18
ATOM     18  C   UNL     1      35.818 -25.015 -13.783  0.00  0.00    -0.001 C 
BRANCH  18  19
ATOM     19  C   UNL     1      36.932 -25.287 -12.768  0.00  0.00    -0.076 C 
BRANCH  19  20
ATOM     20  N   UNL     1      37.938 -26.202 -13.295  0.00  0.00    +0.384 N 
ATOM     21  C   UNL     1      39.202 -25.500 -13.527  0.00  0.00    -0.101 C 
ATOM     22  C   UNL     1      37.469 -26.824 -14.535  0.00  0.00    -0.101 C 
ATOM     23  H   UNL     1      38.096 -26.934 -12.604  0.00  0.00    -0.080 HD
ENDBRANCH  19  20
ENDBRANCH  18  19
ENDBRANCH  17  18
ENDBRANCH   1  17
TORSDOF 4
ENDMDL
MODEL 8
REMARK VINA RESULT:      -7.4      9.681     13.131
REMARK  Name = 94280
REMARK  4 active torsions:
REMARK  status: ('A' for Active; 'I' for Inactive)
REMARK    1  A    between atoms: N_1  and  C_17
REMARK    2  A    between atoms: C_17  and  C_18
REMARK    3  A    between atoms: C_18  and  C_19
REMARK    4  A    between atoms: C_19  and  N_20
REMARK                            x       y       z     vdW  Elec       q    Type
REMARK                         _______ _______ _______ _____ _____    ______ ____
ROOT
ATOM      1  N   UNL     1      36.013 -22.767 -15.957  0.00  0.00    -0.287 N 
ATOM      2  C   UNL     1      33.490 -23.245 -17.325  0.00  0.00    +0.040 C 
ATOM      3  C   UNL     1      34.660 -22.476 -17.970  0.00  0.00    -0.005 C 
ATOM      4  C   UNL     1      33.704 -23.553 -15.829  0.00  0.00    -0.005 C 
ATOM      5  C   UNL     1      35.861 -22.248 -17.262  0.00  0.00    +0.048 C 
ATOM      6  C   UNL     1      34.941 -23.287 -15.199  0.00  0.00    +0.048 C 
ATOM      7  C   UNL     1      32.202 -22.390 -17.470  0.00  0.00    +0.009 C 
ATOM      8  C   UNL     1      33.314 -24.585 -18.077  0.00  0.00    +0.009 C 
ATOM      9  C   UNL     1      34.547 -22.005 -19.298  0.00  0.00    -0.003 C 
ATOM     10  C   UNL     1      32.659 -24.131 -15.072  0.00  0.00    -0.003 C 
ATOM     11  C   UNL     1      36.869 -21.488 -17.896  0.00  0.00    +0.015 C 
ATOM     12  C   UNL     1      35.047 -23.542 -13.814  0.00  0.00    +0.015 C 
ATOM     13  C   UNL     1      35.568 -21.281 -19.907  0.00  0.00    -0.000 C 
ATOM     14  C   UNL     1      32.803 -24.398 -13.713  0.00  0.00    -0.000 C 
ATOM     15  C   UNL     1      36.727 -21.011 -19.199  0.00  0.00    +0.001 C 
ATOM     16  C   UNL     1      33.994 -24.091 -13.080  0.00  0.00    +0.001 C 
ENDROOT
BRANCH   1  17
ATOM     17  C   UNL     1      37.352 -22.766 -15.358  0.00  0.00    +0.093 C 
BRANCH  17  18
ATOM     18  C   UNL     1      38.044 -24.123 -15.469  0.00  0.00    -0.001 C 
BRANCH  18  19
ATOM     19  C   UNL     1      38.493 -24.716 -14.129  0.00  0.00    -0.076 C 
BRANCH  19  20
ATOM     20  N   UNL     1      37.997 -26.074 -13.941  0.00  0.00    +0.384 N 
ATOM     21  C   UNL     1      37.131 -26.465 -15.056  0.00  0.00    -0.101 C 
ATOM     22  C   UNL     1      37.274 -26.188 -12.673  0.00  0.00    -0.101 C 
ATOM     23  H   UNL     1      38.798 -26.705 -13.917  0.00  0.00    -0.080 HD
ENDBRANCH  19  20
ENDBRANCH  18  19
ENDBRANCH  17  18
ENDBRANCH   1  17
TORSDOF 4
ENDMDL
MODEL 9
REMARK VINA RESULT:      -7.3      8.680     11.365
REMARK  Name = 94280
REMARK  4 active torsions:
REMARK  status: ('A' for Active; 'I' for Inactive)
REMARK    1  A    between atoms: N_1  and  C_17
REMARK    2  A    between atoms: C_17  and  C_18
REMARK    3  A    between atoms: C_18  and  C_19
REMARK    4  A    between atoms: C_19  and  N_20
REMARK                            x       y       z     vdW  Elec       q    Type
REMARK                         _______ _______ _______ _____ _____    ______ ____
ROOT
ATOM      1  N   UNL     1      33.668 -23.043 -16.802  0.00  0.00    -0.287 N 
ATOM      2  C   UNL     1      34.915 -24.245 -14.464  0.00  0.00    +0.040 C 
ATOM      3  C   UNL     1      33.388 -24.215 -14.678  0.00  0.00    -0.005 C 
ATOM      4  C   UNL     1      35.698 -23.404 -15.493  0.00  0.00    -0.005 C 
ATOM      5  C   UNL     1      32.823 -23.602 -15.819  0.00  0.00    +0.048 C 
ATOM      6  C   UNL     1      35.049 -22.821 -16.604  0.00  0.00    +0.048 C 
ATOM      7  C   UNL     1      35.221 -23.694 -13.044  0.00  0.00    +0.009 C 
ATOM      8  C   UNL     1      35.393 -25.711 -14.570  0.00  0.00    +0.009 C 
ATOM      9  C   UNL     1      32.532 -24.827 -13.734  0.00  0.00    -0.003 C 
ATOM     10  C   UNL     1      37.092 -23.225 -15.341  0.00  0.00    -0.003 C 
ATOM     11  C   UNL     1      31.415 -23.564 -15.921  0.00  0.00    +0.015 C 
ATOM     12  C   UNL     1      35.819 -22.017 -17.474  0.00  0.00    +0.015 C 
ATOM     13  C   UNL     1      31.147 -24.797 -13.874  0.00  0.00    -0.000 C 
ATOM     14  C   UNL     1      37.830 -22.449 -16.230  0.00  0.00    -0.000 C 
ATOM     15  C   UNL     1      30.587 -24.153 -14.964  0.00  0.00    +0.001 C 
ATOM     16  C   UNL     1      37.191 -21.834 -17.292  0.00  0.00    +0.001 C 
ENDROOT
BRANCH   1  17
ATOM     17  C   UNL     1      33.083 -22.672 -18.095  0.00  0.00    +0.093 C 
BRANCH  17  18
ATOM     18  C   UNL     1      34.088 -21.988 -19.019  0.00  0.00    -0.001 C 
BRANCH  18  19
ATOM     19  C   UNL     1      33.481 -20.927 -19.942  0.00  0.00    -0.076 C 
BRANCH  19  20
ATOM     20  N   UNL     1      34.453 -19.907 -20.314  0.00  0.00    +0.384 N 
ATOM     21  C   UNL     1      33.989 -19.153 -21.480  0.00  0.00    -0.101 C 
ATOM     22  C   UNL     1      35.757 -20.514 -20.589  0.00  0.00    -0.101 C 
ATOM     23  H   UNL     1      34.554 -19.262 -19.531  0.00  0.00    -0.080 HD
ENDBRANCH  19  20
ENDBRANCH  18  19
ENDBRANCH  17  18
ENDBRANCH   1  17
TORSDOF 4
ENDMDL
