MODEL 1
REMARK VINA RESULT:      -8.4      0.000      0.000
REMARK  Name = 105039
REMARK  4 active torsions:
REMARK  status: ('A' for Active; 'I' for Inactive)
REMARK    1  A    between atoms: C_3  and  C_10
REMARK    2  A    between atoms: C_10  and  C_11
REMARK    3  A    between atoms: C_11  and  N_13
REMARK    4  A    between atoms: N_13  and  C_16
REMARK                            x       y       z     vdW  Elec       q    Type
REMARK                         _______ _______ _______ _____ _____    ______ ____
ROOT
ATOM      1  O   UNL     1      32.607 -22.228 -18.740  0.00  0.00    -0.435 OA
ATOM      2  O   UNL     1      34.842 -22.921 -18.164  0.00  0.00    -0.435 OA
ATOM      3  C   UNL     1      34.432 -19.854 -20.862  0.00  0.00    -0.021 C 
ATOM      4  C   UNL     1      33.323 -20.483 -20.291  0.00  0.00    +0.036 C 
ATOM      5  C   UNL     1      35.736 -20.259 -20.525  0.00  0.00    -0.001 C 
ATOM      6  C   UNL     1      33.557 -21.505 -19.393  0.00  0.00    +0.176 C 
ATOM      7  C   UNL     1      34.834 -21.901 -19.064  0.00  0.00    +0.176 C 
ATOM      8  C   UNL     1      35.945 -21.297 -19.614  0.00  0.00    +0.040 C 
ATOM      9  C   UNL     1      33.428 -23.123 -17.963  0.00  0.00    +0.429 C 
ENDROOT
BRANCH   3  10
ATOM     10  C   UNL     1      34.233 -18.744 -21.838  0.00  0.00    +0.005 C 
BRANCH  10  11
ATOM     11  C   UNL     1      35.296 -18.688 -22.960  0.00  0.00    -0.058 C 
ATOM     12  C   UNL     1      34.728 -19.104 -24.318  0.00  0.00    -0.023 C 
BRANCH  11  13
ATOM     13  N   UNL     1      35.830 -17.328 -23.081  0.00  0.00    +0.385 N 
ATOM     14  H   UNL     1      35.869 -17.069 -24.066  0.00  0.00    -0.084 HD
ATOM     15  H   UNL     1      36.764 -17.305 -22.673  0.00  0.00    -0.084 HD
BRANCH  13  16
ATOM     16  C   UNL     1      34.986 -16.382 -22.371  0.00  0.00    -0.082 C 
ATOM     17  C   UNL     1      34.581 -15.248 -23.295  0.00  0.00    -0.026 C 
ENDBRANCH  13  16
ENDBRANCH  11  13
ENDBRANCH  10  11
ENDBRANCH   3  10
TORSDOF 4
ENDMDL
MODEL 2
REMARK VINA RESULT:      -8.3      0.964      2.289
REMARK  Name = 105039
REMARK  4 active torsions:
REMARK  status: ('A' for Active; 'I' for Inactive)
REMARK    1  A    between atoms: C_3  and  C_10
REMARK    2  A    between atoms: C_10  and  C_11
REMARK    3  A    between atoms: C_11  and  N_13
REMARK    4  A    between atoms: N_13  and  C_16
REMARK                            x       y       z     vdW  Elec       q    Type
REMARK                         _______ _______ _______ _____ _____    ______ ____
ROOT
ATOM      1  O   UNL     1      35.172 -22.448 -18.744  0.00  0.00    -0.435 OA
ATOM      2  O   UNL     1      32.770 -22.297 -18.862  0.00  0.00    -0.435 OA
ATOM      3  C   UNL     1      34.961 -19.528 -20.955  0.00  0.00    -0.021 C 
ATOM      4  C   UNL     1      35.574 -20.527 -20.196  0.00  0.00    +0.036 C 
ATOM      5  C   UNL     1      33.559 -19.440 -21.024  0.00  0.00    -0.001 C 
ATOM      6  C   UNL     1      34.757 -21.415 -19.526  0.00  0.00    +0.176 C 
ATOM      7  C   UNL     1      33.385 -21.328 -19.593  0.00  0.00    +0.176 C 
ATOM      8  C   UNL     1      32.755 -20.350 -20.335  0.00  0.00    +0.040 C 
ATOM      9  C   UNL     1      33.908 -23.003 -18.326  0.00  0.00    +0.429 C 
ENDROOT
BRANCH   3  10
ATOM     10  C   UNL     1      35.800 -18.543 -21.699  0.00  0.00    +0.005 C 
BRANCH  10  11
ATOM     11  C   UNL     1      35.012 -17.336 -22.260  0.00  0.00    -0.058 C 
ATOM     12  C   UNL     1      34.878 -16.206 -21.238  0.00  0.00    -0.023 C 
BRANCH  11  13
ATOM     13  N   UNL     1      35.685 -16.805 -23.449  0.00  0.00    +0.385 N 
ATOM     14  H   UNL     1      36.458 -17.420 -23.701  0.00  0.00    -0.084 HD
ATOM     15  H   UNL     1      36.034 -15.869 -23.239  0.00  0.00    -0.084 HD
BRANCH  13  16
ATOM     16  C   UNL     1      34.759 -16.719 -24.566  0.00  0.00    -0.082 C 
ATOM     17  C   UNL     1      34.408 -18.109 -25.061  0.00  0.00    -0.026 C 
ENDBRANCH  13  16
ENDBRANCH  11  13
ENDBRANCH  10  11
ENDBRANCH   3  10
TORSDOF 4
ENDMDL
MODEL 3
REMARK VINA RESULT:      -8.2      1.191      1.432
REMARK  Name = 105039
REMARK  4 active torsions:
REMARK  status: ('A' for Active; 'I' for Inactive)
REMARK    1  A    between atoms: C_3  and  C_10
REMARK    2  A    between atoms: C_10  and  C_11
REMARK    3  A    between atoms: C_11  and  N_13
REMARK    4  A    between atoms: N_13  and  C_16
REMARK                            x       y       z     vdW  Elec       q    Type
REMARK                         _______ _______ _______ _____ _____    ______ ____
ROOT
ATOM      1  O   UNL     1      32.580 -22.165 -18.687  0.00  0.00    -0.435 OA
ATOM      2  O   UNL     1      34.815 -22.895 -18.160  0.00  0.00    -0.435 OA
ATOM      3  C   UNL     1      34.395 -19.834 -20.864  0.00  0.00    -0.021 C 
ATOM      4  C   UNL     1      33.290 -20.441 -20.263  0.00  0.00    +0.036 C 
ATOM      5  C   UNL     1      35.700 -20.261 -20.555  0.00  0.00    -0.001 C 
ATOM      6  C   UNL     1      33.527 -21.462 -19.366  0.00  0.00    +0.176 C 
ATOM      7  C   UNL     1      34.803 -21.879 -19.066  0.00  0.00    +0.176 C 
ATOM      8  C   UNL     1      35.912 -21.297 -19.645  0.00  0.00    +0.040 C 
ATOM      9  C   UNL     1      33.403 -23.071 -17.925  0.00  0.00    +0.429 C 
ENDROOT
BRANCH   3  10
ATOM     10  C   UNL     1      34.193 -18.725 -21.841  0.00  0.00    +0.005 C 
BRANCH  10  11
ATOM     11  C   UNL     1      35.251 -17.600 -21.752  0.00  0.00    -0.058 C 
ATOM     12  C   UNL     1      35.259 -16.712 -22.996  0.00  0.00    -0.023 C 
BRANCH  11  13
ATOM     13  N   UNL     1      34.991 -16.755 -20.583  0.00  0.00    +0.385 N 
ATOM     14  H   UNL     1      35.850 -16.655 -20.043  0.00  0.00    -0.084 HD
ATOM     15  H   UNL     1      34.267 -17.195 -20.015  0.00  0.00    -0.084 HD
BRANCH  13  16
ATOM     16  C   UNL     1      34.529 -15.440 -20.995  0.00  0.00    -0.082 C 
ATOM     17  C   UNL     1      33.126 -15.193 -20.475  0.00  0.00    -0.026 C 
ENDBRANCH  13  16
ENDBRANCH  11  13
ENDBRANCH  10  11
ENDBRANCH   3  10
TORSDOF 4
ENDMDL
MODEL 4
REMARK VINA RESULT:      -7.8      4.125      6.980
REMARK  Name = 105039
REMARK  4 active torsions:
REMARK  status: ('A' for Active; 'I' for Inactive)
REMARK    1  A    between atoms: C_3  and  C_10
REMARK    2  A    between atoms: C_10  and  C_11
REMARK    3  A    between atoms: C_11  and  N_13
REMARK    4  A    between atoms: N_13  and  C_16
REMARK                            x       y       z     vdW  Elec       q    Type
REMARK                         _______ _______ _______ _____ _____    ______ ____
ROOT
ATOM      1  O   UNL     1      33.675 -16.071 -26.309  0.00  0.00    -0.435 OA
ATOM      2  O   UNL     1      33.072 -14.158 -24.974  0.00  0.00    -0.435 OA
ATOM      3  C   UNL     1      35.143 -17.190 -23.138  0.00  0.00    -0.021 C 
ATOM      4  C   UNL     1      34.793 -17.253 -24.488  0.00  0.00    +0.036 C 
ATOM      5  C   UNL     1      34.791 -16.073 -22.359  0.00  0.00    -0.001 C 
ATOM      6  C   UNL     1      34.097 -16.187 -25.021  0.00  0.00    +0.176 C 
ATOM      7  C   UNL     1      33.753 -15.094 -24.258  0.00  0.00    +0.176 C 
ATOM      8  C   UNL     1      34.085 -15.008 -22.922  0.00  0.00    +0.040 C 
ATOM      9  C   UNL     1      33.026 -14.784 -26.272  0.00  0.00    +0.429 C 
ENDROOT
BRANCH   3  10
ATOM     10  C   UNL     1      35.896 -18.316 -22.514  0.00  0.00    +0.005 C 
BRANCH  10  11
ATOM     11  C   UNL     1      35.373 -18.734 -21.119  0.00  0.00    -0.058 C 
ATOM     12  C   UNL     1      34.099 -19.574 -21.206  0.00  0.00    -0.023 C 
BRANCH  11  13
ATOM     13  N   UNL     1      36.393 -19.514 -20.412  0.00  0.00    +0.385 N 
ATOM     14  H   UNL     1      36.584 -19.078 -19.511  0.00  0.00    -0.084 HD
ATOM     15  H   UNL     1      37.241 -19.537 -20.979  0.00  0.00    -0.084 HD
BRANCH  13  16
ATOM     16  C   UNL     1      35.937 -20.877 -20.196  0.00  0.00    -0.082 C 
ATOM     17  C   UNL     1      36.450 -21.395 -18.866  0.00  0.00    -0.026 C 
ENDBRANCH  13  16
ENDBRANCH  11  13
ENDBRANCH  10  11
ENDBRANCH   3  10
TORSDOF 4
ENDMDL
MODEL 5
REMARK VINA RESULT:      -7.6      1.024      1.441
REMARK  Name = 105039
REMARK  4 active torsions:
REMARK  status: ('A' for Active; 'I' for Inactive)
REMARK    1  A    between atoms: C_3  and  C_10
REMARK    2  A    between atoms: C_10  and  C_11
REMARK    3  A    between atoms: C_11  and  N_13
REMARK    4  A    between atoms: N_13  and  C_16
REMARK                            x       y       z     vdW  Elec       q    Type
REMARK                         _______ _______ _______ _____ _____    ______ ____
ROOT
ATOM      1  O   UNL     1      32.849 -21.846 -19.168  0.00  0.00    -0.435 OA
ATOM      2  O   UNL     1      34.740 -22.794 -18.015  0.00  0.00    -0.435 OA
ATOM      3  C   UNL     1      35.475 -19.888 -20.820  0.00  0.00    -0.021 C 
ATOM      4  C   UNL     1      34.179 -20.322 -20.535  0.00  0.00    +0.036 C 
ATOM      5  C   UNL     1      36.579 -20.441 -20.146  0.00  0.00    -0.001 C 
ATOM      6  C   UNL     1      34.027 -21.304 -19.576  0.00  0.00    +0.176 C 
ATOM      7  C   UNL     1      35.108 -21.844 -18.918  0.00  0.00    +0.176 C 
ATOM      8  C   UNL     1      36.399 -21.434 -19.181  0.00  0.00    +0.040 C 
ATOM      9  C   UNL     1      33.308 -22.790 -18.178  0.00  0.00    +0.429 C 
ENDROOT
BRANCH   3  10
ATOM     10  C   UNL     1      35.692 -18.829 -21.848  0.00  0.00    +0.005 C 
BRANCH  10  11
ATOM     11  C   UNL     1      34.601 -17.733 -21.870  0.00  0.00    -0.058 C 
ATOM     12  C   UNL     1      34.871 -16.624 -20.852  0.00  0.00    -0.023 C 
BRANCH  11  13
ATOM     13  N   UNL     1      34.523 -17.127 -23.202  0.00  0.00    +0.385 N 
ATOM     14  H   UNL     1      33.587 -17.269 -23.582  0.00  0.00    -0.084 HD
ATOM     15  H   UNL     1      35.218 -17.568 -23.805  0.00  0.00    -0.084 HD
BRANCH  13  16
ATOM     16  C   UNL     1      34.798 -15.702 -23.134  0.00  0.00    -0.082 C 
ATOM     17  C   UNL     1      33.838 -14.941 -24.027  0.00  0.00    -0.026 C 
ENDBRANCH  13  16
ENDBRANCH  11  13
ENDBRANCH  10  11
ENDBRANCH   3  10
TORSDOF 4
ENDMDL
MODEL 6
REMARK VINA RESULT:      -7.3      3.859      6.843
REMARK  Name = 105039
REMARK  4 active torsions:
REMARK  status: ('A' for Active; 'I' for Inactive)
REMARK    1  A    between atoms: C_3  and  C_10
REMARK    2  A    between atoms: C_10  and  C_11
REMARK    3  A    between atoms: C_11  and  N_13
REMARK    4  A    between atoms: N_13  and  C_16
REMARK                            x       y       z     vdW  Elec       q    Type
REMARK                         _______ _______ _______ _____ _____    ______ ____
ROOT
ATOM      1  O   UNL     1      33.788 -14.072 -22.606  0.00  0.00    -0.435 OA
ATOM      2  O   UNL     1      33.273 -14.171 -24.958  0.00  0.00    -0.435 OA
ATOM      3  C   UNL     1      34.964 -17.491 -23.234  0.00  0.00    -0.021 C 
ATOM      4  C   UNL     1      34.692 -16.338 -22.495  0.00  0.00    +0.036 C 
ATOM      5  C   UNL     1      34.663 -17.548 -24.607  0.00  0.00    -0.001 C 
ATOM      6  C   UNL     1      34.122 -15.270 -23.158  0.00  0.00    +0.176 C 
ATOM      7  C   UNL     1      33.828 -15.327 -24.502  0.00  0.00    +0.176 C 
ATOM      8  C   UNL     1      34.087 -16.454 -25.254  0.00  0.00    +0.040 C 
ATOM      9  C   UNL     1      33.250 -13.381 -23.752  0.00  0.00    +0.429 C 
ENDROOT
BRANCH   3  10
ATOM     10  C   UNL     1      35.580 -18.673 -22.564  0.00  0.00    +0.005 C 
BRANCH  10  11
ATOM     11  C   UNL     1      35.159 -18.854 -21.086  0.00  0.00    -0.058 C 
ATOM     12  C   UNL     1      33.857 -19.643 -20.946  0.00  0.00    -0.023 C 
BRANCH  11  13
ATOM     13  N   UNL     1      36.209 -19.562 -20.347  0.00  0.00    +0.385 N 
ATOM     14  H   UNL     1      36.361 -19.098 -19.452  0.00  0.00    -0.084 HD
ATOM     15  H   UNL     1      37.066 -19.549 -20.901  0.00  0.00    -0.084 HD
BRANCH  13  16
ATOM     16  C   UNL     1      35.825 -20.944 -20.110  0.00  0.00    -0.082 C 
ATOM     17  C   UNL     1      36.440 -21.441 -18.816  0.00  0.00    -0.026 C 
ENDBRANCH  13  16
ENDBRANCH  11  13
ENDBRANCH  10  11
ENDBRANCH   3  10
TORSDOF 4
ENDMDL
MODEL 7
REMARK VINA RESULT:      -7.2      4.190      6.794
REMARK  Name = 105039
REMARK  4 active torsions:
REMARK  status: ('A' for Active; 'I' for Inactive)
REMARK    1  A    between atoms: C_3  and  C_10
REMARK    2  A    between atoms: C_10  and  C_11
REMARK    3  A    between atoms: C_11  and  N_13
REMARK    4  A    between atoms: N_13  and  C_16
REMARK                            x       y       z     vdW  Elec       q    Type
REMARK                         _______ _______ _______ _____ _____    ______ ____
ROOT
ATOM      1  O   UNL     1      33.350 -13.013 -23.601  0.00  0.00    -0.435 OA
ATOM      2  O   UNL     1      32.071 -12.886 -21.563  0.00  0.00    -0.435 OA
ATOM      3  C   UNL     1      34.464 -16.176 -22.112  0.00  0.00    -0.021 C 
ATOM      4  C   UNL     1      34.384 -15.159 -23.065  0.00  0.00    +0.036 C 
ATOM      5  C   UNL     1      33.718 -16.101 -20.922  0.00  0.00    -0.001 C 
ATOM      6  C   UNL     1      33.553 -14.090 -22.795  0.00  0.00    +0.176 C 
ATOM      7  C   UNL     1      32.823 -14.018 -21.631  0.00  0.00    +0.176 C 
ATOM      8  C   UNL     1      32.884 -15.009 -20.673  0.00  0.00    +0.040 C 
ATOM      9  C   UNL     1      32.410 -12.254 -22.813  0.00  0.00    +0.429 C 
ENDROOT
BRANCH   3  10
ATOM     10  C   UNL     1      35.348 -17.353 -22.356  0.00  0.00    +0.005 C 
BRANCH  10  11
ATOM     11  C   UNL     1      34.592 -18.646 -22.741  0.00  0.00    -0.058 C 
ATOM     12  C   UNL     1      34.744 -18.986 -24.224  0.00  0.00    -0.023 C 
BRANCH  11  13
ATOM     13  N   UNL     1      35.093 -19.776 -21.954  0.00  0.00    +0.385 N 
ATOM     14  H   UNL     1      36.104 -19.694 -21.854  0.00  0.00    -0.084 HD
ATOM     15  H   UNL     1      34.856 -20.643 -22.436  0.00  0.00    -0.084 HD
BRANCH  13  16
ATOM     16  C   UNL     1      34.483 -19.792 -20.635  0.00  0.00    -0.082 C 
ATOM     17  C   UNL     1      32.976 -19.915 -20.758  0.00  0.00    -0.026 C 
ENDBRANCH  13  16
ENDBRANCH  11  13
ENDBRANCH  10  11
ENDBRANCH   3  10
TORSDOF 4
ENDMDL
MODEL 8
REMARK VINA RESULT:      -7.1      3.722      6.455
REMARK  Name = 105039
REMARK  4 active torsions:
REMARK  status: ('A' for Active; 'I' for Inactive)
REMARK    1  A    between atoms: C_3  and  C_10
REMARK    2  A    between atoms: C_10  and  C_11
REMARK    3  A    between atoms: C_11  and  N_13
REMARK    4  A    between atoms: N_13  and  C_16
REMARK                            x       y       z     vdW  Elec       q    Type
REMARK                         _______ _______ _______ _____ _____    ______ ____
ROOT
ATOM      1  O   UNL     1      33.957 -15.172 -23.889  0.00  0.00    -0.435 OA
ATOM      2  O   UNL     1      33.796 -16.698 -25.747  0.00  0.00    -0.435 OA
ATOM      3  C   UNL     1      35.158 -18.183 -22.170  0.00  0.00    -0.021 C 
ATOM      4  C   UNL     1      34.798 -16.841 -22.319  0.00  0.00    +0.036 C 
ATOM      5  C   UNL     1      35.064 -19.073 -23.255  0.00  0.00    -0.001 C 
ATOM      6  C   UNL     1      34.350 -16.431 -23.559  0.00  0.00    +0.176 C 
ATOM      7  C   UNL     1      34.259 -17.303 -24.619  0.00  0.00    +0.176 C 
ATOM      8  C   UNL     1      34.609 -18.632 -24.499  0.00  0.00    +0.040 C 
ATOM      9  C   UNL     1      33.606 -15.348 -25.277  0.00  0.00    +0.429 C 
ENDROOT
BRANCH   3  10
ATOM     10  C   UNL     1      35.648 -18.676 -20.850  0.00  0.00    +0.005 C 
BRANCH  10  11
ATOM     11  C   UNL     1      35.658 -20.217 -20.713  0.00  0.00    -0.058 C 
ATOM     12  C   UNL     1      36.850 -20.719 -19.897  0.00  0.00    -0.023 C 
BRANCH  11  13
ATOM     13  N   UNL     1      34.428 -20.673 -20.061  0.00  0.00    +0.385 N 
ATOM     14  H   UNL     1      33.718 -20.853 -20.771  0.00  0.00    -0.084 HD
ATOM     15  H   UNL     1      34.108 -19.946 -19.420  0.00  0.00    -0.084 HD
BRANCH  13  16
ATOM     16  C   UNL     1      34.669 -21.891 -19.306  0.00  0.00    -0.082 C 
ATOM     17  C   UNL     1      33.395 -22.336 -18.612  0.00  0.00    -0.026 C 
ENDBRANCH  13  16
ENDBRANCH  11  13
ENDBRANCH  10  11
ENDBRANCH   3  10
TORSDOF 4
ENDMDL
MODEL 9
REMARK VINA RESULT:      -7.0      3.896      6.167
REMARK  Name = 105039
REMARK  4 active torsions:
REMARK  status: ('A' for Active; 'I' for Inactive)
REMARK    1  A    between atoms: C_3  and  C_10
REMARK    2  A    between atoms: C_10  and  C_11
REMARK    3  A    between atoms: C_11  and  N_13
REMARK    4  A    between atoms: N_13  and  C_16
REMARK                            x       y       z     vdW  Elec       q    Type
REMARK                         _______ _______ _______ _____ _____    ______ ____
ROOT
ATOM      1  O   UNL     1      35.423 -18.109 -23.045  0.00  0.00    -0.435 OA
ATOM      2  O   UNL     1      35.554 -17.838 -20.655  0.00  0.00    -0.435 OA
ATOM      3  C   UNL     1      33.964 -14.748 -22.840  0.00  0.00    -0.021 C 
ATOM      4  C   UNL     1      34.417 -15.920 -23.448  0.00  0.00    +0.036 C 
ATOM      5  C   UNL     1      34.040 -14.591 -21.445  0.00  0.00    -0.001 C 
ATOM      6  C   UNL     1      34.937 -16.906 -22.634  0.00  0.00    +0.176 C 
ATOM      7  C   UNL     1      35.011 -16.751 -21.269  0.00  0.00    +0.176 C 
ATOM      8  C   UNL     1      34.571 -15.603 -20.643  0.00  0.00    +0.040 C 
ATOM      9  C   UNL     1      35.812 -18.694 -21.786  0.00  0.00    +0.429 C 
ENDROOT
BRANCH   3  10
ATOM     10  C   UNL     1      33.393 -13.652 -23.676  0.00  0.00    +0.005 C 
BRANCH  10  11
ATOM     11  C   UNL     1      33.002 -12.385 -22.880  0.00  0.00    -0.058 C 
ATOM     12  C   UNL     1      33.251 -11.102 -23.674  0.00  0.00    -0.023 C 
BRANCH  11  13
ATOM     13  N   UNL     1      31.583 -12.435 -22.518  0.00  0.00    +0.385 N 
ATOM     14  H   UNL     1      31.398 -13.298 -22.006  0.00  0.00    -0.084 HD
ATOM     15  H   UNL     1      31.025 -12.405 -23.371  0.00  0.00    -0.084 HD
BRANCH  13  16
ATOM     16  C   UNL     1      31.227 -11.300 -21.684  0.00  0.00    -0.082 C 
ATOM     17  C   UNL     1      31.553 -11.595 -20.232  0.00  0.00    -0.026 C 
ENDBRANCH  13  16
ENDBRANCH  11  13
ENDBRANCH  10  11
ENDBRANCH   3  10
TORSDOF 4
ENDMDL
