MODEL 1
REMARK VINA RESULT:     -11.2      0.000      0.000
REMARK  Name = 445459
REMARK  7 active torsions:
REMARK  status: ('A' for Active; 'I' for Inactive)
REMARK    1  A    between atoms: C_1  and  C_7
REMARK    2  A    between atoms: C_1  and  N_13
REMARK    3  A    between atoms: C_1  and  C_27
REMARK    4  A    between atoms: C_4  and  C_9
REMARK    5  A    between atoms: C_9  and  O_10
REMARK    6  A    between atoms: C_14  and  C_18
REMARK    7  A    between atoms: C_27  and  C_28
REMARK                            x       y       z     vdW  Elec       q    Type
REMARK                         _______ _______ _______ _____ _____    ______ ____
ROOT
ATOM      1  C   UNL     1      32.962 -23.881 -14.756  0.00  0.00    +0.153 C 
ENDROOT
BRANCH   1   7
ATOM      2  O   UNL     1      31.581 -22.990 -13.020  0.00  0.00    -0.273 OA
ATOM      3  N   UNL     1      30.695 -23.142 -15.133  0.00  0.00    -0.277 N 
ATOM      4  C   UNL     1      29.296 -22.605 -16.528  0.00  0.00    +0.138 C 
ATOM      5  C   UNL     1      29.331 -22.667 -14.996  0.00  0.00    +0.106 C 
ATOM      6  C   UNL     1      30.593 -23.424 -16.551  0.00  0.00    +0.106 C 
ATOM      7  C   UNL     1      31.687 -23.296 -14.207  0.00  0.00    +0.244 C 
BRANCH   4   9
ATOM      8  O   UNL     1      27.858 -24.466 -17.351  0.00  0.00    -0.250 OA
ATOM      9  C   UNL     1      28.057 -23.261 -17.215  0.00  0.00    +0.317 C 
BRANCH   9  10
ATOM     10  O   UNL     1      27.170 -22.332 -17.666  0.00  0.00    -0.480 OA
ATOM     11  H   UNL     1      27.472 -21.600 -18.168  0.00  0.00    +0.295 HD
ENDBRANCH   9  10
ENDBRANCH   4   9
ENDBRANCH   1   7
BRANCH   1  13
ATOM     12  O   UNL     1      33.817 -24.744 -17.301  0.00  0.00    -0.269 OA
ATOM     13  N   UNL     1      33.287 -23.024 -15.874  0.00  0.00    -0.294 N 
ATOM     14  C   UNL     1      33.712 -23.505 -17.130  0.00  0.00    +0.260 C 
ATOM     15  H   UNL     1      33.209 -22.050 -15.750  0.00  0.00    +0.150 HD
BRANCH  14  18
ATOM     16 CL   UNL     1      36.147 -18.461 -22.367  0.00  0.00    -0.082 Cl
ATOM     17  N   UNL     1      32.987 -21.916 -18.873  0.00  0.00    -0.309 N 
ATOM     18  C   UNL     1      33.970 -22.535 -18.148  0.00  0.00    +0.102 C 
ATOM     19  C   UNL     1      35.184 -22.056 -18.583  0.00  0.00    +0.020 C 
ATOM     20  C   UNL     1      34.930 -21.108 -19.614  0.00  0.00    +0.016 C 
ATOM     21  C   UNL     1      33.545 -21.039 -19.775  0.00  0.00    +0.048 C 
ATOM     22  C   UNL     1      35.749 -20.299 -20.426  0.00  0.00    +0.013 C 
ATOM     23  C   UNL     1      32.935 -20.198 -20.713  0.00  0.00    +0.015 C 
ATOM     24  C   UNL     1      35.153 -19.454 -21.369  0.00  0.00    +0.058 C 
ATOM     25  C   UNL     1      33.767 -19.405 -21.509  0.00  0.00    +0.013 C 
ATOM     26  H   UNL     1      32.021 -22.075 -18.764  0.00  0.00    +0.152 HD
ENDBRANCH  14  18
ENDBRANCH   1  13
BRANCH   1  27
ATOM     27  C   UNL     1      34.051 -23.901 -13.686  0.00  0.00    +0.055 C 
BRANCH  27  28
ATOM     28  C   UNL     1      35.418 -24.193 -14.256  0.00  0.00    -0.020 C 
ATOM     29  C   UNL     1      36.299 -23.146 -14.482  0.00  0.00    -0.004 C 
ATOM     30  C   UNL     1      35.769 -25.503 -14.542  0.00  0.00    -0.004 C 
ATOM     31  C   UNL     1      37.562 -23.416 -15.007  0.00  0.00    -0.000 C 
ATOM     32  C   UNL     1      37.033 -25.773 -15.068  0.00  0.00    -0.000 C 
ATOM     33  C   UNL     1      37.929 -24.729 -15.300  0.00  0.00    -0.000 C 
ENDBRANCH  27  28
ENDBRANCH   1  27
TORSDOF 7
ENDMDL
MODEL 2
REMARK VINA RESULT:     -10.4      2.400      5.633
REMARK  Name = 445459
REMARK  7 active torsions:
REMARK  status: ('A' for Active; 'I' for Inactive)
REMARK    1  A    between atoms: C_1  and  C_7
REMARK    2  A    between atoms: C_1  and  N_13
REMARK    3  A    between atoms: C_1  and  C_27
REMARK    4  A    between atoms: C_4  and  C_9
REMARK    5  A    between atoms: C_9  and  O_10
REMARK    6  A    between atoms: C_14  and  C_18
REMARK    7  A    between atoms: C_27  and  C_28
REMARK                            x       y       z     vdW  Elec       q    Type
REMARK                         _______ _______ _______ _____ _____    ______ ____
ROOT
ATOM      1  C   UNL     1      33.543 -23.614 -15.656  0.00  0.00    +0.153 C 
ENDROOT
BRANCH   1   7
ATOM      2  O   UNL     1      35.485 -24.934 -16.105  0.00  0.00    -0.273 OA
ATOM      3  N   UNL     1      35.173 -24.166 -13.964  0.00  0.00    -0.277 N 
ATOM      4  C   UNL     1      35.893 -23.732 -12.097  0.00  0.00    +0.138 C 
ATOM      5  C   UNL     1      36.287 -24.711 -13.211  0.00  0.00    +0.106 C 
ATOM      6  C   UNL     1      34.569 -23.491 -12.833  0.00  0.00    +0.106 C 
ATOM      7  C   UNL     1      34.826 -24.306 -15.278  0.00  0.00    +0.244 C 
BRANCH   4   9
ATOM      8  O   UNL     1      35.128 -25.324 -10.339  0.00  0.00    -0.250 OA
ATOM      9  C   UNL     1      35.782 -24.335 -10.661  0.00  0.00    +0.317 C 
BRANCH   9  10
ATOM     10  O   UNL     1      36.517 -23.635  -9.754  0.00  0.00    -0.480 OA
ATOM     11  H   UNL     1      37.421 -23.844  -9.622  0.00  0.00    +0.295 HD
ENDBRANCH   9  10
ENDBRANCH   4   9
ENDBRANCH   1   7
BRANCH   1  13
ATOM     12  O   UNL     1      33.478 -24.080 -18.436  0.00  0.00    -0.269 OA
ATOM     13  N   UNL     1      33.942 -22.674 -16.681  0.00  0.00    -0.294 N 
ATOM     14  C   UNL     1      33.890 -22.956 -18.062  0.00  0.00    +0.260 C 
ATOM     15  H   UNL     1      34.267 -21.789 -16.398  0.00  0.00    +0.150 HD
BRANCH  14  18
ATOM     16 CL   UNL     1      34.977 -17.277 -23.098  0.00  0.00    -0.082 Cl
ATOM     17  N   UNL     1      35.589 -21.517 -19.126  0.00  0.00    -0.309 N 
ATOM     18  C   UNL     1      34.290 -21.915 -18.957  0.00  0.00    +0.102 C 
ATOM     19  C   UNL     1      33.500 -21.146 -19.780  0.00  0.00    +0.020 C 
ATOM     20  C   UNL     1      34.351 -20.244 -20.477  0.00  0.00    +0.016 C 
ATOM     21  C   UNL     1      35.655 -20.497 -20.049  0.00  0.00    +0.048 C 
ATOM     22  C   UNL     1      34.136 -19.234 -21.434  0.00  0.00    +0.013 C 
ATOM     23  C   UNL     1      36.760 -19.787 -20.531  0.00  0.00    +0.015 C 
ATOM     24  C   UNL     1      35.231 -18.514 -21.927  0.00  0.00    +0.058 C 
ATOM     25  C   UNL     1      36.523 -18.789 -21.480  0.00  0.00    +0.013 C 
ATOM     26  H   UNL     1      36.363 -21.903 -18.655  0.00  0.00    +0.152 HD
ENDBRANCH  14  18
ENDBRANCH   1  13
BRANCH   1  27
ATOM     27  C   UNL     1      32.510 -24.625 -16.149  0.00  0.00    +0.055 C 
BRANCH  27  28
ATOM     28  C   UNL     1      31.092 -24.190 -15.866  0.00  0.00    -0.020 C 
ATOM     29  C   UNL     1      30.668 -22.939 -16.283  0.00  0.00    -0.004 C 
ATOM     30  C   UNL     1      30.239 -25.052 -15.194  0.00  0.00    -0.004 C 
ATOM     31  C   UNL     1      29.358 -22.537 -16.022  0.00  0.00    -0.000 C 
ATOM     32  C   UNL     1      28.929 -24.651 -14.932  0.00  0.00    -0.000 C 
ATOM     33  C   UNL     1      28.489 -23.394 -15.346  0.00  0.00    -0.000 C 
ENDBRANCH  27  28
ENDBRANCH   1  27
TORSDOF 7
ENDMDL
MODEL 3
REMARK VINA RESULT:      -9.8      2.842      5.848
REMARK  Name = 445459
REMARK  7 active torsions:
REMARK  status: ('A' for Active; 'I' for Inactive)
REMARK    1  A    between atoms: C_1  and  C_7
REMARK    2  A    between atoms: C_1  and  N_13
REMARK    3  A    between atoms: C_1  and  C_27
REMARK    4  A    between atoms: C_4  and  C_9
REMARK    5  A    between atoms: C_9  and  O_10
REMARK    6  A    between atoms: C_14  and  C_18
REMARK    7  A    between atoms: C_27  and  C_28
REMARK                            x       y       z     vdW  Elec       q    Type
REMARK                         _______ _______ _______ _____ _____    ______ ____
ROOT
ATOM      1  C   UNL     1      35.267 -22.423 -16.291  0.00  0.00    +0.153 C 
ENDROOT
BRANCH   1   7
ATOM      2  O   UNL     1      37.588 -22.469 -16.860  0.00  0.00    -0.273 OA
ATOM      3  N   UNL     1      36.879 -23.783 -15.116  0.00  0.00    -0.277 N 
ATOM      4  C   UNL     1      37.265 -24.879 -13.431  0.00  0.00    +0.138 C 
ATOM      5  C   UNL     1      38.068 -24.488 -14.678  0.00  0.00    +0.106 C 
ATOM      6  C   UNL     1      35.996 -24.403 -14.148  0.00  0.00    +0.106 C 
ATOM      7  C   UNL     1      36.691 -22.885 -16.129  0.00  0.00    +0.244 C 
BRANCH   4   9
ATOM      8  O   UNL     1      37.478 -27.335 -13.800  0.00  0.00    -0.250 OA
ATOM      9  C   UNL     1      37.305 -26.389 -13.034  0.00  0.00    +0.317 C 
BRANCH   9  10
ATOM     10  O   UNL     1      37.128 -26.571 -11.697  0.00  0.00    -0.480 OA
ATOM     11  H   UNL     1      36.898 -25.845 -11.151  0.00  0.00    +0.295 HD
ENDBRANCH   9  10
ENDBRANCH   4   9
ENDBRANCH   1   7
BRANCH   1  13
ATOM     12  O   UNL     1      34.586 -23.174 -18.922  0.00  0.00    -0.269 OA
ATOM     13  N   UNL     1      35.308 -21.563 -17.453  0.00  0.00    -0.294 N 
ATOM     14  C   UNL     1      34.957 -21.987 -18.751  0.00  0.00    +0.260 C 
ATOM     15  H   UNL     1      35.597 -20.630 -17.330  0.00  0.00    +0.150 HD
BRANCH  14  18
ATOM     16 CL   UNL     1      34.243 -16.993 -24.526  0.00  0.00    -0.082 Cl
ATOM     17  N   UNL     1      36.149 -20.304 -20.107  0.00  0.00    -0.309 N 
ATOM     18  C   UNL     1      35.019 -21.013 -19.796  0.00  0.00    +0.102 C 
ATOM     19  C   UNL     1      34.018 -20.612 -20.651  0.00  0.00    +0.020 C 
ATOM     20  C   UNL     1      34.560 -19.620 -21.515  0.00  0.00    +0.016 C 
ATOM     21  C   UNL     1      35.897 -19.446 -21.153  0.00  0.00    +0.048 C 
ATOM     22  C   UNL     1      34.039 -18.851 -22.574  0.00  0.00    +0.013 C 
ATOM     23  C   UNL     1      36.743 -18.537 -21.799  0.00  0.00    +0.015 C 
ATOM     24  C   UNL     1      34.873 -17.938 -23.230  0.00  0.00    +0.058 C 
ATOM     25  C   UNL     1      36.204 -17.785 -22.846  0.00  0.00    +0.013 C 
ATOM     26  H   UNL     1      37.015 -20.396 -19.647  0.00  0.00    +0.152 HD
ENDBRANCH  14  18
ENDBRANCH   1  13
BRANCH   1  27
ATOM     27  C   UNL     1      34.330 -23.616 -16.469  0.00  0.00    +0.055 C 
BRANCH  27  28
ATOM     28  C   UNL     1      32.946 -23.352 -15.928  0.00  0.00    -0.020 C 
ATOM     29  C   UNL     1      32.744 -23.329 -14.557  0.00  0.00    -0.004 C 
ATOM     30  C   UNL     1      31.900 -23.137 -16.812  0.00  0.00    -0.004 C 
ATOM     31  C   UNL     1      31.465 -23.084 -14.057  0.00  0.00    -0.000 C 
ATOM     32  C   UNL     1      30.620 -22.893 -16.312  0.00  0.00    -0.000 C 
ATOM     33  C   UNL     1      30.404 -22.867 -14.934  0.00  0.00    -0.000 C 
ENDBRANCH  27  28
ENDBRANCH   1  27
TORSDOF 7
ENDMDL
MODEL 4
REMARK VINA RESULT:      -9.5      7.983     12.185
REMARK  Name = 445459
REMARK  7 active torsions:
REMARK  status: ('A' for Active; 'I' for Inactive)
REMARK    1  A    between atoms: C_1  and  C_7
REMARK    2  A    between atoms: C_1  and  N_13
REMARK    3  A    between atoms: C_1  and  C_27
REMARK    4  A    between atoms: C_4  and  C_9
REMARK    5  A    between atoms: C_9  and  O_10
REMARK    6  A    between atoms: C_14  and  C_18
REMARK    7  A    between atoms: C_27  and  C_28
REMARK                            x       y       z     vdW  Elec       q    Type
REMARK                         _______ _______ _______ _____ _____    ______ ____
ROOT
ATOM      1  C   UNL     1      33.062 -13.695 -22.686  0.00  0.00    +0.153 C 
ENDROOT
BRANCH   1   7
ATOM      2  O   UNL     1      31.811 -13.623 -20.650  0.00  0.00    -0.273 OA
ATOM      3  N   UNL     1      32.220 -11.642 -21.735  0.00  0.00    -0.277 N 
ATOM      4  C   UNL     1      32.334  -9.598 -21.744  0.00  0.00    +0.138 C 
ATOM      5  C   UNL     1      31.547 -10.637 -20.935  0.00  0.00    +0.106 C 
ATOM      6  C   UNL     1      32.708 -10.710 -22.733  0.00  0.00    +0.106 C 
ATOM      7  C   UNL     1      32.302 -12.998 -21.588  0.00  0.00    +0.244 C 
BRANCH   4   9
ATOM      8  O   UNL     1      30.811  -8.440 -23.341  0.00  0.00    -0.250 OA
ATOM      9  C   UNL     1      31.506  -8.410 -22.327  0.00  0.00    +0.317 C 
BRANCH   9  10
ATOM     10  O   UNL     1      31.623  -7.284 -21.570  0.00  0.00    -0.480 OA
ATOM     11  H   UNL     1      30.854  -6.843 -21.265  0.00  0.00    +0.295 HD
ENDBRANCH   9  10
ENDBRANCH   4   9
ENDBRANCH   1   7
BRANCH   1  13
ATOM     12  O   UNL     1      35.186 -15.386 -23.446  0.00  0.00    -0.269 OA
ATOM     13  N   UNL     1      33.332 -15.009 -22.145  0.00  0.00    -0.294 N 
ATOM     14  C   UNL     1      34.411 -15.818 -22.560  0.00  0.00    +0.260 C 
ATOM     15  H   UNL     1      32.729 -15.358 -21.449  0.00  0.00    +0.150 HD
BRANCH  14  18
ATOM     16 CL   UNL     1      34.161 -22.641 -19.071  0.00  0.00    -0.082 Cl
ATOM     17  N   UNL     1      35.782 -17.641 -21.619  0.00  0.00    -0.309 N 
ATOM     18  C   UNL     1      34.567 -17.082 -21.911  0.00  0.00    +0.102 C 
ATOM     19  C   UNL     1      33.587 -17.945 -21.475  0.00  0.00    +0.020 C 
ATOM     20  C   UNL     1      34.232 -19.073 -20.894  0.00  0.00    +0.016 C 
ATOM     21  C   UNL     1      35.608 -18.857 -20.998  0.00  0.00    +0.048 C 
ATOM     22  C   UNL     1      33.776 -20.260 -20.290  0.00  0.00    +0.013 C 
ATOM     23  C   UNL     1      36.554 -19.773 -20.525  0.00  0.00    +0.015 C 
ATOM     24  C   UNL     1      34.711 -21.186 -19.812  0.00  0.00    +0.058 C 
ATOM     25  C   UNL     1      36.078 -20.944 -19.929  0.00  0.00    +0.013 C 
ATOM     26  H   UNL     1      36.654 -17.232 -21.824  0.00  0.00    +0.152 HD
ENDBRANCH  14  18
ENDBRANCH   1  13
BRANCH   1  27
ATOM     27  C   UNL     1      32.235 -13.742 -23.969  0.00  0.00    +0.055 C 
BRANCH  27  28
ATOM     28  C   UNL     1      33.003 -13.253 -25.173  0.00  0.00    -0.020 C 
ATOM     29  C   UNL     1      33.795 -12.122 -25.061  0.00  0.00    -0.004 C 
ATOM     30  C   UNL     1      32.903 -13.946 -26.369  0.00  0.00    -0.004 C 
ATOM     31  C   UNL     1      34.506 -11.671 -26.173  0.00  0.00    -0.000 C 
ATOM     32  C   UNL     1      33.614 -13.495 -27.482  0.00  0.00    -0.000 C 
ATOM     33  C   UNL     1      34.415 -12.358 -27.383  0.00  0.00    -0.000 C 
ENDBRANCH  27  28
ENDBRANCH   1  27
TORSDOF 7
ENDMDL
MODEL 5
REMARK VINA RESULT:      -9.4      1.959      2.956
REMARK  Name = 445459
REMARK  7 active torsions:
REMARK  status: ('A' for Active; 'I' for Inactive)
REMARK    1  A    between atoms: C_1  and  C_7
REMARK    2  A    between atoms: C_1  and  N_13
REMARK    3  A    between atoms: C_1  and  C_27
REMARK    4  A    between atoms: C_4  and  C_9
REMARK    5  A    between atoms: C_9  and  O_10
REMARK    6  A    between atoms: C_14  and  C_18
REMARK    7  A    between atoms: C_27  and  C_28
REMARK                            x       y       z     vdW  Elec       q    Type
REMARK                         _______ _______ _______ _____ _____    ______ ____
ROOT
ATOM      1  C   UNL     1      35.771 -23.215 -16.353  0.00  0.00    +0.153 C 
ENDROOT
BRANCH   1   7
ATOM      2  O   UNL     1      35.251 -21.892 -14.431  0.00  0.00    -0.273 OA
ATOM      3  N   UNL     1      33.572 -23.155 -15.358  0.00  0.00    -0.277 N 
ATOM      4  C   UNL     1      31.586 -23.582 -15.607  0.00  0.00    +0.138 C 
ATOM      5  C   UNL     1      32.424 -22.926 -14.502  0.00  0.00    +0.106 C 
ATOM      6  C   UNL     1      32.890 -24.070 -16.251  0.00  0.00    +0.106 C 
ATOM      7  C   UNL     1      34.853 -22.684 -15.283  0.00  0.00    +0.244 C 
BRANCH   4   9
ATOM      8  O   UNL     1      30.814 -25.566 -14.311  0.00  0.00    -0.250 OA
ATOM      9  C   UNL     1      30.590 -24.693 -15.146  0.00  0.00    +0.317 C 
BRANCH   9  10
ATOM     10  O   UNL     1      29.388 -24.597 -15.780  0.00  0.00    -0.480 OA
ATOM     11  H   UNL     1      28.923 -23.783 -15.782  0.00  0.00    +0.295 HD
ENDBRANCH   9  10
ENDBRANCH   4   9
ENDBRANCH   1   7
BRANCH   1  13
ATOM     12  O   UNL     1      34.317 -23.393 -18.762  0.00  0.00    -0.269 OA
ATOM     13  N   UNL     1      35.723 -22.206 -17.388  0.00  0.00    -0.294 N 
ATOM     14  C   UNL     1      34.979 -22.343 -18.578  0.00  0.00    +0.260 C 
ATOM     15  H   UNL     1      36.240 -21.379 -17.254  0.00  0.00    +0.150 HD
BRANCH  14  18
ATOM     16 CL   UNL     1      34.039 -16.528 -23.487  0.00  0.00    -0.082 Cl
ATOM     17  N   UNL     1      36.159 -20.654 -19.936  0.00  0.00    -0.309 N 
ATOM     18  C   UNL     1      35.006 -21.247 -19.495  0.00  0.00    +0.102 C 
ATOM     19  C   UNL     1      33.944 -20.602 -20.087  0.00  0.00    +0.020 C 
ATOM     20  C   UNL     1      34.472 -19.575 -20.920  0.00  0.00    +0.016 C 
ATOM     21  C   UNL     1      35.862 -19.630 -20.807  0.00  0.00    +0.048 C 
ATOM     22  C   UNL     1      33.897 -18.603 -21.761  0.00  0.00    +0.013 C 
ATOM     23  C   UNL     1      36.711 -18.756 -21.496  0.00  0.00    +0.015 C 
ATOM     24  C   UNL     1      34.733 -17.721 -22.456  0.00  0.00    +0.058 C 
ATOM     25  C   UNL     1      36.119 -17.799 -22.324  0.00  0.00    +0.013 C 
ATOM     26  H   UNL     1      37.068 -20.921 -19.668  0.00  0.00    +0.152 HD
ENDBRANCH  14  18
ENDBRANCH   1  13
BRANCH   1  27
ATOM     27  C   UNL     1      37.178 -23.429 -15.798  0.00  0.00    +0.055 C 
BRANCH  27  28
ATOM     28  C   UNL     1      37.228 -24.508 -14.743  0.00  0.00    -0.020 C 
ATOM     29  C   UNL     1      37.621 -24.181 -13.455  0.00  0.00    -0.004 C 
ATOM     30  C   UNL     1      36.878 -25.806 -15.082  0.00  0.00    -0.004 C 
ATOM     31  C   UNL     1      37.666 -25.177 -12.480  0.00  0.00    -0.000 C 
ATOM     32  C   UNL     1      36.924 -26.803 -14.106  0.00  0.00    -0.000 C 
ATOM     33  C   UNL     1      37.318 -26.487 -12.806  0.00  0.00    -0.000 C 
ENDBRANCH  27  28
ENDBRANCH   1  27
TORSDOF 7
ENDMDL
MODEL 6
REMARK VINA RESULT:      -9.1     10.391     14.176
REMARK  Name = 445459
REMARK  7 active torsions:
REMARK  status: ('A' for Active; 'I' for Inactive)
REMARK    1  A    between atoms: C_1  and  C_7
REMARK    2  A    between atoms: C_1  and  N_13
REMARK    3  A    between atoms: C_1  and  C_27
REMARK    4  A    between atoms: C_4  and  C_9
REMARK    5  A    between atoms: C_9  and  O_10
REMARK    6  A    between atoms: C_14  and  C_18
REMARK    7  A    between atoms: C_27  and  C_28
REMARK                            x       y       z     vdW  Elec       q    Type
REMARK                         _______ _______ _______ _____ _____    ______ ____
ROOT
ATOM      1  C   UNL     1      32.263 -10.701 -23.842  0.00  0.00    +0.153 C 
ENDROOT
BRANCH   1   7
ATOM      2  O   UNL     1      34.539 -10.139 -23.379  0.00  0.00    -0.273 OA
ATOM      3  N   UNL     1      33.072  -8.427 -23.813  0.00  0.00    -0.277 N 
ATOM      4  C   UNL     1      32.695  -6.486 -24.343  0.00  0.00    +0.138 C 
ATOM      5  C   UNL     1      33.861  -7.218 -23.668  0.00  0.00    +0.106 C 
ATOM      6  C   UNL     1      31.836  -7.738 -24.127  0.00  0.00    +0.106 C 
ATOM      7  C   UNL     1      33.408  -9.742 -23.652  0.00  0.00    +0.244 C 
BRANCH   4   9
ATOM      8  O   UNL     1      31.944  -5.061 -22.441  0.00  0.00    -0.250 OA
ATOM      9  C   UNL     1      32.201  -5.184 -23.637  0.00  0.00    +0.317 C 
BRANCH   9  10
ATOM     10  O   UNL     1      32.081  -4.144 -24.507  0.00  0.00    -0.480 OA
ATOM     11  H   UNL     1      32.025  -4.307 -25.429  0.00  0.00    +0.295 HD
ENDBRANCH   9  10
ENDBRANCH   4   9
ENDBRANCH   1   7
BRANCH   1  13
ATOM     12  O   UNL     1      33.119 -12.667 -25.673  0.00  0.00    -0.269 OA
ATOM     13  N   UNL     1      32.824 -11.989 -23.499  0.00  0.00    -0.294 N 
ATOM     14  C   UNL     1      33.239 -12.940 -24.455  0.00  0.00    +0.260 C 
ATOM     15  H   UNL     1      32.922 -12.214 -22.545  0.00  0.00    +0.150 HD
BRANCH  14  18
ATOM     16 CL   UNL     1      36.295 -18.977 -20.847  0.00  0.00    -0.082 Cl
ATOM     17  N   UNL     1      34.028 -15.260 -24.743  0.00  0.00    -0.309 N 
ATOM     18  C   UNL     1      33.802 -14.158 -23.962  0.00  0.00    +0.102 C 
ATOM     19  C   UNL     1      34.207 -14.455 -22.681  0.00  0.00    +0.020 C 
ATOM     20  C   UNL     1      34.699 -15.791 -22.682  0.00  0.00    +0.016 C 
ATOM     21  C   UNL     1      34.575 -16.272 -23.987  0.00  0.00    +0.048 C 
ATOM     22  C   UNL     1      35.239 -16.638 -21.695  0.00  0.00    +0.013 C 
ATOM     23  C   UNL     1      34.966 -17.565 -24.355  0.00  0.00    +0.015 C 
ATOM     24  C   UNL     1      35.633 -17.934 -22.048  0.00  0.00    +0.058 C 
ATOM     25  C   UNL     1      35.498 -18.388 -23.359  0.00  0.00    +0.013 C 
ATOM     26  H   UNL     1      33.828 -15.320 -25.705  0.00  0.00    +0.152 HD
ENDBRANCH  14  18
ENDBRANCH   1  13
BRANCH   1  27
ATOM     27  C   UNL     1      31.081 -10.314 -22.955  0.00  0.00    +0.055 C 
BRANCH  27  28
ATOM     28  C   UNL     1      31.408 -10.400 -21.484  0.00  0.00    -0.020 C 
ATOM     29  C   UNL     1      31.812  -9.259 -20.809  0.00  0.00    -0.004 C 
ATOM     30  C   UNL     1      31.297 -11.619 -20.834  0.00  0.00    -0.004 C 
ATOM     31  C   UNL     1      32.113  -9.338 -19.449  0.00  0.00    -0.000 C 
ATOM     32  C   UNL     1      31.599 -11.699 -19.473  0.00  0.00    -0.000 C 
ATOM     33  C   UNL     1      32.007 -10.558 -18.782  0.00  0.00    -0.000 C 
ENDBRANCH  27  28
ENDBRANCH   1  27
TORSDOF 7
ENDMDL
MODEL 7
REMARK VINA RESULT:      -9.1      3.172      5.913
REMARK  Name = 445459
REMARK  7 active torsions:
REMARK  status: ('A' for Active; 'I' for Inactive)
REMARK    1  A    between atoms: C_1  and  C_7
REMARK    2  A    between atoms: C_1  and  N_13
REMARK    3  A    between atoms: C_1  and  C_27
REMARK    4  A    between atoms: C_4  and  C_9
REMARK    5  A    between atoms: C_9  and  O_10
REMARK    6  A    between atoms: C_14  and  C_18
REMARK    7  A    between atoms: C_27  and  C_28
REMARK                            x       y       z     vdW  Elec       q    Type
REMARK                         _______ _______ _______ _____ _____    ______ ____
ROOT
ATOM      1  C   UNL     1      35.625 -23.653 -14.807  0.00  0.00    +0.153 C 
ENDROOT
BRANCH   1   7
ATOM      2  O   UNL     1      37.411 -22.183 -15.412  0.00  0.00    -0.273 OA
ATOM      3  N   UNL     1      35.703 -22.481 -16.917  0.00  0.00    -0.277 N 
ATOM      4  C   UNL     1      34.953 -22.360 -18.817  0.00  0.00    +0.138 C 
ATOM      5  C   UNL     1      36.035 -21.612 -18.029  0.00  0.00    +0.106 C 
ATOM      6  C   UNL     1      34.466 -22.967 -17.495  0.00  0.00    +0.106 C 
ATOM      7  C   UNL     1      36.341 -22.700 -15.728  0.00  0.00    +0.244 C 
BRANCH   4   9
ATOM      8  O   UNL     1      32.703 -21.613 -19.587  0.00  0.00    -0.250 OA
ATOM      9  C   UNL     1      33.925 -21.471 -19.586  0.00  0.00    +0.317 C 
BRANCH   9  10
ATOM     10  O   UNL     1      34.532 -20.473 -20.284  0.00  0.00    -0.480 OA
ATOM     11  H   UNL     1      34.125 -20.124 -21.053  0.00  0.00    +0.295 HD
ENDBRANCH   9  10
ENDBRANCH   4   9
ENDBRANCH   1   7
BRANCH   1  13
ATOM     12  O   UNL     1      33.434 -24.232 -13.130  0.00  0.00    -0.269 OA
ATOM     13  N   UNL     1      34.231 -23.493 -15.154  0.00  0.00    -0.294 N 
ATOM     14  C   UNL     1      33.168 -23.798 -14.277  0.00  0.00    +0.260 C 
ATOM     15  H   UNL     1      34.011 -23.154 -16.052  0.00  0.00    +0.150 HD
BRANCH  14  18
ATOM     16 CL   UNL     1      26.012 -21.724 -16.088  0.00  0.00    -0.082 Cl
ATOM     17  N   UNL     1      31.252 -24.283 -15.755  0.00  0.00    -0.309 N 
ATOM     18  C   UNL     1      31.841 -23.561 -14.752  0.00  0.00    +0.102 C 
ATOM     19  C   UNL     1      30.938 -22.614 -14.325  0.00  0.00    +0.020 C 
ATOM     20  C   UNL     1      29.753 -22.766 -15.100  0.00  0.00    +0.016 C 
ATOM     21  C   UNL     1      29.977 -23.820 -15.988  0.00  0.00    +0.048 C 
ATOM     22  C   UNL     1      28.509 -22.107 -15.129  0.00  0.00    +0.013 C 
ATOM     23  C   UNL     1      29.015 -24.248 -16.910  0.00  0.00    +0.015 C 
ATOM     24  C   UNL     1      27.537 -22.525 -16.045  0.00  0.00    +0.058 C 
ATOM     25  C   UNL     1      27.788 -23.579 -16.921  0.00  0.00    +0.013 C 
ATOM     26  H   UNL     1      31.680 -25.026 -16.240  0.00  0.00    +0.152 HD
ENDBRANCH  14  18
ENDBRANCH   1  13
BRANCH   1  27
ATOM     27  C   UNL     1      36.128 -25.080 -15.011  0.00  0.00    +0.055 C 
BRANCH  27  28
ATOM     28  C   UNL     1      37.539 -25.276 -14.511  0.00  0.00    -0.020 C 
ATOM     29  C   UNL     1      37.795 -25.203 -13.151  0.00  0.00    -0.004 C 
ATOM     30  C   UNL     1      38.553 -25.526 -15.422  0.00  0.00    -0.004 C 
ATOM     31  C   UNL     1      39.098 -25.385 -12.689  0.00  0.00    -0.000 C 
ATOM     32  C   UNL     1      39.858 -25.707 -14.960  0.00  0.00    -0.000 C 
ATOM     33  C   UNL     1      40.129 -25.637 -13.594  0.00  0.00    -0.000 C 
ENDBRANCH  27  28
ENDBRANCH   1  27
TORSDOF 7
ENDMDL
MODEL 8
REMARK VINA RESULT:      -8.8     11.486     15.638
REMARK  Name = 445459
REMARK  7 active torsions:
REMARK  status: ('A' for Active; 'I' for Inactive)
REMARK    1  A    between atoms: C_1  and  C_7
REMARK    2  A    between atoms: C_1  and  N_13
REMARK    3  A    between atoms: C_1  and  C_27
REMARK    4  A    between atoms: C_4  and  C_9
REMARK    5  A    between atoms: C_9  and  O_10
REMARK    6  A    between atoms: C_14  and  C_18
REMARK    7  A    between atoms: C_27  and  C_28
REMARK                            x       y       z     vdW  Elec       q    Type
REMARK                         _______ _______ _______ _____ _____    ______ ____
ROOT
ATOM      1  C   UNL     1      32.811  -7.961 -23.592  0.00  0.00    +0.153 C 
ENDROOT
BRANCH   1   7
ATOM      2  O   UNL     1      33.279  -6.678 -21.630  0.00  0.00    -0.273 OA
ATOM      3  N   UNL     1      32.297  -8.737 -21.364  0.00  0.00    -0.277 N 
ATOM      4  C   UNL     1      31.243 -10.083 -20.239  0.00  0.00    +0.138 C 
ATOM      5  C   UNL     1      32.175  -8.905 -19.929  0.00  0.00    +0.106 C 
ATOM      6  C   UNL     1      31.718 -10.023 -21.696  0.00  0.00    +0.106 C 
ATOM      7  C   UNL     1      32.826  -7.718 -22.106  0.00  0.00    +0.244 C 
BRANCH   4   9
ATOM      8  O   UNL     1      32.005 -12.440 -19.961  0.00  0.00    -0.250 OA
ATOM      9  C   UNL     1      31.539 -11.412 -19.474  0.00  0.00    +0.317 C 
BRANCH   9  10
ATOM     10  O   UNL     1      31.224 -11.322 -18.152  0.00  0.00    -0.480 OA
ATOM     11  H   UNL     1      31.586 -10.633 -17.630  0.00  0.00    +0.295 HD
ENDBRANCH   9  10
ENDBRANCH   4   9
ENDBRANCH   1   7
BRANCH   1  13
ATOM     12  O   UNL     1      34.956  -9.361 -24.771  0.00  0.00    -0.269 OA
ATOM     13  N   UNL     1      32.918  -9.398 -23.713  0.00  0.00    -0.294 N 
ATOM     14  C   UNL     1      34.015 -10.052 -24.313  0.00  0.00    +0.260 C 
ATOM     15  H   UNL     1      32.185  -9.951 -23.357  0.00  0.00    +0.150 HD
BRANCH  14  18
ATOM     16 CL   UNL     1      33.715 -17.624 -25.485  0.00  0.00    -0.082 Cl
ATOM     17  N   UNL     1      34.182 -12.259 -23.221  0.00  0.00    -0.309 N 
ATOM     18  C   UNL     1      33.993 -11.481 -24.332  0.00  0.00    +0.102 C 
ATOM     19  C   UNL     1      33.791 -12.318 -25.406  0.00  0.00    +0.020 C 
ATOM     20  C   UNL     1      33.860 -13.657 -24.930  0.00  0.00    +0.016 C 
ATOM     21  C   UNL     1      34.106 -13.592 -23.557  0.00  0.00    +0.048 C 
ATOM     22  C   UNL     1      33.737 -14.922 -25.537  0.00  0.00    +0.013 C 
ATOM     23  C   UNL     1      34.236 -14.733 -22.757  0.00  0.00    +0.015 C 
ATOM     24  C   UNL     1      33.864 -16.073 -24.750  0.00  0.00    +0.058 C 
ATOM     25  C   UNL     1      34.110 -15.977 -23.382  0.00  0.00    +0.013 C 
ATOM     26  H   UNL     1      34.348 -11.914 -22.314  0.00  0.00    +0.152 HD
ENDBRANCH  14  18
ENDBRANCH   1  13
BRANCH   1  27
ATOM     27  C   UNL     1      31.532  -7.408 -24.216  0.00  0.00    +0.055 C 
BRANCH  27  28
ATOM     28  C   UNL     1      31.712  -6.014 -24.768  0.00  0.00    -0.020 C 
ATOM     29  C   UNL     1      30.815  -5.020 -24.411  0.00  0.00    -0.004 C 
ATOM     30  C   UNL     1      32.772  -5.754 -25.624  0.00  0.00    -0.004 C 
ATOM     31  C   UNL     1      30.981  -3.732 -24.920  0.00  0.00    -0.000 C 
ATOM     32  C   UNL     1      32.938  -4.466 -26.134  0.00  0.00    -0.000 C 
ATOM     33  C   UNL     1      32.043  -3.456 -25.782  0.00  0.00    -0.000 C 
ENDBRANCH  27  28
ENDBRANCH   1  27
TORSDOF 7
ENDMDL
MODEL 9
REMARK VINA RESULT:      -8.3     12.189     15.608
REMARK  Name = 445459
REMARK  7 active torsions:
REMARK  status: ('A' for Active; 'I' for Inactive)
REMARK    1  A    between atoms: C_1  and  C_7
REMARK    2  A    between atoms: C_1  and  N_13
REMARK    3  A    between atoms: C_1  and  C_27
REMARK    4  A    between atoms: C_4  and  C_9
REMARK    5  A    between atoms: C_9  and  O_10
REMARK    6  A    between atoms: C_14  and  C_18
REMARK    7  A    between atoms: C_27  and  C_28
REMARK                            x       y       z     vdW  Elec       q    Type
REMARK                         _______ _______ _______ _____ _____    ______ ____
ROOT
ATOM      1  C   UNL     1      33.162 -10.576 -23.369  0.00  0.00    +0.153 C 
ENDROOT
BRANCH   1   7
ATOM      2  O   UNL     1      33.643 -11.364 -25.574  0.00  0.00    -0.273 OA
ATOM      3  N   UNL     1      33.846 -12.845 -23.831  0.00  0.00    -0.277 N 
ATOM      4  C   UNL     1      34.564 -14.592 -23.044  0.00  0.00    +0.138 C 
ATOM      5  C   UNL     1      34.217 -14.101 -24.454  0.00  0.00    +0.106 C 
ATOM      6  C   UNL     1      33.830 -13.369 -22.480  0.00  0.00    +0.106 C 
ATOM      7  C   UNL     1      33.570 -11.621 -24.374  0.00  0.00    +0.244 C 
BRANCH   4   9
ATOM      8  O   UNL     1      33.301 -16.228 -21.650  0.00  0.00    -0.250 OA
ATOM      9  C   UNL     1      33.987 -15.987 -22.641  0.00  0.00    +0.317 C 
BRANCH   9  10
ATOM     10  O   UNL     1      34.324 -16.957 -23.534  0.00  0.00    -0.480 OA
ATOM     11  H   UNL     1      33.654 -17.417 -24.002  0.00  0.00    +0.295 HD
ENDBRANCH   9  10
ENDBRANCH   4   9
ENDBRANCH   1   7
BRANCH   1  13
ATOM     12  O   UNL     1      34.582  -8.232 -22.706  0.00  0.00    -0.269 OA
ATOM     13  N   UNL     1      33.161  -9.344 -24.127  0.00  0.00    -0.294 N 
ATOM     14  C   UNL     1      33.890  -8.196 -23.752  0.00  0.00    +0.260 C 
ATOM     15  H   UNL     1      32.622  -9.305 -24.950  0.00  0.00    +0.150 HD
BRANCH  14  18
ATOM     16 CL   UNL     1      34.475  -2.395 -28.732  0.00  0.00    -0.082 Cl
ATOM     17  N   UNL     1      32.727  -6.231 -24.688  0.00  0.00    -0.309 N 
ATOM     18  C   UNL     1      33.814  -7.062 -24.619  0.00  0.00    +0.102 C 
ATOM     19  C   UNL     1      34.757  -6.601 -25.508  0.00  0.00    +0.020 C 
ATOM     20  C   UNL     1      34.224  -5.444 -26.144  0.00  0.00    +0.016 C 
ATOM     21  C   UNL     1      32.951  -5.234 -25.611  0.00  0.00    +0.048 C 
ATOM     22  C   UNL     1      34.705  -4.554 -27.123  0.00  0.00    +0.013 C 
ATOM     23  C   UNL     1      32.130  -4.174 -26.012  0.00  0.00    +0.015 C 
ATOM     24  C   UNL     1      33.895  -3.489 -27.534  0.00  0.00    +0.058 C 
ATOM     25  C   UNL     1      32.628  -3.303 -26.986  0.00  0.00    +0.013 C 
ATOM     26  H   UNL     1      31.906  -6.332 -24.155  0.00  0.00    +0.152 HD
ENDBRANCH  14  18
ENDBRANCH   1  13
BRANCH   1  27
ATOM     27  C   UNL     1      31.796 -10.905 -22.772  0.00  0.00    +0.055 C 
BRANCH  27  28
ATOM     28  C   UNL     1      31.718 -10.596 -21.297  0.00  0.00    -0.020 C 
ATOM     29  C   UNL     1      31.897  -9.291 -20.865  0.00  0.00    -0.004 C 
ATOM     30  C   UNL     1      31.467 -11.623 -20.400  0.00  0.00    -0.004 C 
ATOM     31  C   UNL     1      31.824  -9.005 -19.502  0.00  0.00    -0.000 C 
ATOM     32  C   UNL     1      31.395 -11.336 -19.036  0.00  0.00    -0.000 C 
ATOM     33  C   UNL     1      31.573 -10.028 -18.588  0.00  0.00    -0.000 C 
ENDBRANCH  27  28
ENDBRANCH   1  27
TORSDOF 7
ENDMDL
