MODEL 1
REMARK VINA RESULT:      -9.5      0.000      0.000
REMARK  Name = 3000541
REMARK  7 active torsions:
REMARK  status: ('A' for Active; 'I' for Inactive)
REMARK    1  A    between atoms: N_1  and  C_4
REMARK    2  A    between atoms: N_1  and  C_14
REMARK    3  A    between atoms: C_4  and  N_6
REMARK    4  A    between atoms: C_14  and  C_15
REMARK    5  A    between atoms: C_15  and  C_18
REMARK    6  A    between atoms: C_20  and  O_23
REMARK    7  A    between atoms: O_23  and  C_24
REMARK                            x       y       z     vdW  Elec       q    Type
REMARK                         _______ _______ _______ _____ _____    ______ ____
ROOT
ATOM      1  N   UNL     1      35.599 -17.125 -23.174  0.00  0.00    -0.315 N 
ATOM      2  H   UNL     1      36.184 -16.342 -23.050  0.00  0.00    +0.148 HD
ENDROOT
BRANCH   1   4
ATOM      3  S   UNL     1      34.303 -18.378 -25.090  0.00  0.00    -0.019 S 
ATOM      4  C   UNL     1      34.620 -17.013 -24.164  0.00  0.00    +0.136 C 
BRANCH   4   6
ATOM      5 CL   UNL     1      31.678 -12.175 -20.307  0.00  0.00    -0.081 Cl
ATOM      6  N   UNL     1      34.059 -15.746 -24.272  0.00  0.00    -0.281 N 
ATOM      7  N   UNL     1      33.526 -15.261 -22.019  0.00  0.00    -0.228 NA
ATOM      8  C   UNL     1      33.483 -14.880 -23.307  0.00  0.00    +0.133 C 
ATOM      9  C   UNL     1      32.922 -13.713 -23.776  0.00  0.00    +0.035 C 
ATOM     10  C   UNL     1      32.353 -12.859 -22.838  0.00  0.00    +0.016 C 
ATOM     11  C   UNL     1      32.370 -13.203 -21.491  0.00  0.00    +0.077 C 
ATOM     12  C   UNL     1      32.963 -14.405 -21.137  0.00  0.00    +0.112 C 
ATOM     13  H   UNL     1      34.063 -15.382 -25.186  0.00  0.00    +0.155 HD
ENDBRANCH   4   6
ENDBRANCH   1   4
BRANCH   1  14
ATOM     14  C   UNL     1      35.852 -18.251 -22.315  0.00  0.00    +0.095 C 
BRANCH  14  15
ATOM     15  C   UNL     1      34.619 -18.644 -21.492  0.00  0.00    +0.069 C 
BRANCH  15  18
ATOM     16  F   UNL     1      32.504 -20.225 -20.506  0.00  0.00    -0.200 F 
ATOM     17  N   UNL     1      36.127 -20.115 -20.301  0.00  0.00    -0.246 NA
ATOM     18  C   UNL     1      34.843 -19.827 -20.610  0.00  0.00    +0.091 C 
ATOM     19  C   UNL     1      33.755 -20.559 -20.162  0.00  0.00    +0.187 C 
ATOM     20  C   UNL     1      34.001 -21.655 -19.343  0.00  0.00    +0.169 C 
ATOM     21  C   UNL     1      35.308 -21.982 -19.002  0.00  0.00    +0.060 C 
ATOM     22  C   UNL     1      36.327 -21.187 -19.502  0.00  0.00    +0.102 C 
BRANCH  20  23
ATOM     23  O   UNL     1      32.966 -22.406 -18.877  0.00  0.00    -0.473 OA
BRANCH  23  24
ATOM     24  C   UNL     1      33.139 -23.034 -17.607  0.00  0.00    +0.206 C 
ATOM     25  C   UNL     1      31.815 -23.036 -16.873  0.00  0.00    +0.051 C 
ENDBRANCH  23  24
ENDBRANCH  20  23
ENDBRANCH  15  18
ENDBRANCH  14  15
ENDBRANCH   1  14
TORSDOF 7
ENDMDL
MODEL 2
REMARK VINA RESULT:      -9.3      3.227      4.658
REMARK  Name = 3000541
REMARK  7 active torsions:
REMARK  status: ('A' for Active; 'I' for Inactive)
REMARK    1  A    between atoms: N_1  and  C_4
REMARK    2  A    between atoms: N_1  and  C_14
REMARK    3  A    between atoms: C_4  and  N_6
REMARK    4  A    between atoms: C_14  and  C_15
REMARK    5  A    between atoms: C_15  and  C_18
REMARK    6  A    between atoms: C_20  and  O_23
REMARK    7  A    between atoms: O_23  and  C_24
REMARK                            x       y       z     vdW  Elec       q    Type
REMARK                         _______ _______ _______ _____ _____    ______ ____
ROOT
ATOM      1  N   UNL     1      32.654 -13.506 -23.441  0.00  0.00    -0.315 N 
ATOM      2  H   UNL     1      31.821 -13.014 -23.258  0.00  0.00    +0.148 HD
ENDROOT
BRANCH   1   4
ATOM      3  S   UNL     1      33.059 -14.290 -25.919  0.00  0.00    -0.019 S 
ATOM      4  C   UNL     1      33.290 -13.216 -24.650  0.00  0.00    +0.136 C 
BRANCH   4   6
ATOM      5 CL   UNL     1      33.065  -6.686 -22.588  0.00  0.00    -0.081 Cl
ATOM      6  N   UNL     1      34.077 -12.070 -24.619  0.00  0.00    -0.281 N 
ATOM      7  N   UNL     1      32.669 -10.547 -23.482  0.00  0.00    -0.228 NA
ATOM      8  C   UNL     1      33.829 -10.764 -24.124  0.00  0.00    +0.133 C 
ATOM      9  C   UNL     1      34.807  -9.820 -24.346  0.00  0.00    +0.035 C 
ATOM     10  C   UNL     1      34.573  -8.536 -23.866  0.00  0.00    +0.016 C 
ATOM     11  C   UNL     1      33.388  -8.257 -23.193  0.00  0.00    +0.077 C 
ATOM     12  C   UNL     1      32.477  -9.288 -23.030  0.00  0.00    +0.112 C 
ATOM     13  H   UNL     1      34.971 -12.186 -25.015  0.00  0.00    +0.155 HD
ENDBRANCH   4   6
ENDBRANCH   1   4
BRANCH   1  14
ATOM     14  C   UNL     1      33.075 -14.442 -22.432  0.00  0.00    +0.095 C 
BRANCH  14  15
ATOM     15  C   UNL     1      34.556 -14.817 -22.567  0.00  0.00    +0.069 C 
BRANCH  15  18
ATOM     16  F   UNL     1      34.871 -16.456 -20.296  0.00  0.00    -0.200 F 
ATOM     17  N   UNL     1      34.848 -16.810 -23.909  0.00  0.00    -0.246 NA
ATOM     18  C   UNL     1      34.792 -16.288 -22.663  0.00  0.00    +0.091 C 
ATOM     19  C   UNL     1      34.939 -17.032 -21.503  0.00  0.00    +0.187 C 
ATOM     20  C   UNL     1      35.158 -18.399 -21.631  0.00  0.00    +0.169 C 
ATOM     21  C   UNL     1      35.222 -18.972 -22.896  0.00  0.00    +0.060 C 
ATOM     22  C   UNL     1      35.062 -18.141 -23.993  0.00  0.00    +0.102 C 
BRANCH  20  23
ATOM     23  O   UNL     1      35.307 -19.173 -20.522  0.00  0.00    -0.473 OA
BRANCH  23  24
ATOM     24  C   UNL     1      34.639 -20.434 -20.516  0.00  0.00    +0.206 C 
ATOM     25  C   UNL     1      33.157 -20.207 -20.307  0.00  0.00    +0.051 C 
ENDBRANCH  23  24
ENDBRANCH  20  23
ENDBRANCH  15  18
ENDBRANCH  14  15
ENDBRANCH   1  14
TORSDOF 7
ENDMDL
MODEL 3
REMARK VINA RESULT:      -9.3      1.341      1.683
REMARK  Name = 3000541
REMARK  7 active torsions:
REMARK  status: ('A' for Active; 'I' for Inactive)
REMARK    1  A    between atoms: N_1  and  C_4
REMARK    2  A    between atoms: N_1  and  C_14
REMARK    3  A    between atoms: C_4  and  N_6
REMARK    4  A    between atoms: C_14  and  C_15
REMARK    5  A    between atoms: C_15  and  C_18
REMARK    6  A    between atoms: C_20  and  O_23
REMARK    7  A    between atoms: O_23  and  C_24
REMARK                            x       y       z     vdW  Elec       q    Type
REMARK                         _______ _______ _______ _____ _____    ______ ____
ROOT
ATOM      1  N   UNL     1      35.713 -17.412 -22.855  0.00  0.00    -0.315 N 
ATOM      2  H   UNL     1      35.801 -16.668 -22.217  0.00  0.00    +0.148 HD
ENDROOT
BRANCH   1   4
ATOM      3  S   UNL     1      34.402 -18.537 -24.838  0.00  0.00    -0.019 S 
ATOM      4  C   UNL     1      34.868 -17.194 -23.945  0.00  0.00    +0.136 C 
BRANCH   4   6
ATOM      5 CL   UNL     1      31.410 -12.017 -21.085  0.00  0.00    -0.081 Cl
ATOM      6  N   UNL     1      34.555 -15.858 -24.167  0.00  0.00    -0.281 N 
ATOM      7  N   UNL     1      33.322 -15.321 -22.221  0.00  0.00    -0.228 NA
ATOM      8  C   UNL     1      33.792 -14.927 -23.416  0.00  0.00    +0.133 C 
ATOM      9  C   UNL     1      33.595 -13.686 -23.981  0.00  0.00    +0.035 C 
ATOM     10  C   UNL     1      32.847 -12.767 -23.254  0.00  0.00    +0.016 C 
ATOM     11  C   UNL     1      32.337 -13.123 -22.010  0.00  0.00    +0.077 C 
ATOM     12  C   UNL     1      32.600 -14.401 -21.543  0.00  0.00    +0.112 C 
ATOM     13  H   UNL     1      34.933 -15.489 -24.998  0.00  0.00    +0.155 HD
ENDBRANCH   4   6
ENDBRANCH   1   4
BRANCH   1  14
ATOM     14  C   UNL     1      36.470 -18.599 -22.557  0.00  0.00    +0.095 C 
BRANCH  14  15
ATOM     15  C   UNL     1      36.464 -18.933 -21.061  0.00  0.00    +0.069 C 
BRANCH  15  18
ATOM     16  F   UNL     1      36.711 -21.337 -19.608  0.00  0.00    -0.200 F 
ATOM     17  N   UNL     1      34.068 -19.258 -20.978  0.00  0.00    -0.246 NA
ATOM     18  C   UNL     1      35.283 -19.739 -20.634  0.00  0.00    +0.091 C 
ATOM     19  C   UNL     1      35.479 -20.913 -19.922  0.00  0.00    +0.187 C 
ATOM     20  C   UNL     1      34.356 -21.638 -19.541  0.00  0.00    +0.169 C 
ATOM     21  C   UNL     1      33.089 -21.175 -19.877  0.00  0.00    +0.060 C 
ATOM     22  C   UNL     1      33.000 -19.990 -20.591  0.00  0.00    +0.102 C 
BRANCH  20  23
ATOM     23  O   UNL     1      34.496 -22.795 -18.840  0.00  0.00    -0.473 OA
BRANCH  23  24
ATOM     24  C   UNL     1      33.557 -23.039 -17.793  0.00  0.00    +0.206 C 
ATOM     25  C   UNL     1      34.307 -23.233 -16.493  0.00  0.00    +0.051 C 
ENDBRANCH  23  24
ENDBRANCH  20  23
ENDBRANCH  15  18
ENDBRANCH  14  15
ENDBRANCH   1  14
TORSDOF 7
ENDMDL
MODEL 4
REMARK VINA RESULT:      -8.9      6.190      9.712
REMARK  Name = 3000541
REMARK  7 active torsions:
REMARK  status: ('A' for Active; 'I' for Inactive)
REMARK    1  A    between atoms: N_1  and  C_4
REMARK    2  A    between atoms: N_1  and  C_14
REMARK    3  A    between atoms: C_4  and  N_6
REMARK    4  A    between atoms: C_14  and  C_15
REMARK    5  A    between atoms: C_15  and  C_18
REMARK    6  A    between atoms: C_20  and  O_23
REMARK    7  A    between atoms: O_23  and  C_24
REMARK                            x       y       z     vdW  Elec       q    Type
REMARK                         _______ _______ _______ _____ _____    ______ ____
ROOT
ATOM      1  N   UNL     1      35.302 -23.236 -14.237  0.00  0.00    -0.315 N 
ATOM      2  H   UNL     1      34.835 -22.382 -14.385  0.00  0.00    +0.148 HD
ENDROOT
BRANCH   1   4
ATOM      3  S   UNL     1      35.875 -23.970 -11.777  0.00  0.00    -0.019 S 
ATOM      4  C   UNL     1      34.886 -23.984 -13.134  0.00  0.00    +0.136 C 
BRANCH   4   6
ATOM      5 CL   UNL     1      28.558 -23.098 -15.606  0.00  0.00    -0.081 Cl
ATOM      6  N   UNL     1      33.702 -24.685 -13.334  0.00  0.00    -0.281 N 
ATOM      7  N   UNL     1      32.356 -23.062 -14.406  0.00  0.00    -0.228 NA
ATOM      8  C   UNL     1      32.455 -24.297 -13.887  0.00  0.00    +0.133 C 
ATOM      9  C   UNL     1      31.440 -25.228 -13.845  0.00  0.00    +0.035 C 
ATOM     10  C   UNL     1      30.214 -24.857 -14.383  0.00  0.00    +0.016 C 
ATOM     11  C   UNL     1      30.056 -23.590 -14.934  0.00  0.00    +0.077 C 
ATOM     12  C   UNL     1      31.149 -22.738 -14.920  0.00  0.00    +0.112 C 
ATOM     13  H   UNL     1      33.735 -25.622 -13.036  0.00  0.00    +0.155 HD
ENDBRANCH   4   6
ENDBRANCH   1   4
BRANCH   1  14
ATOM     14  C   UNL     1      36.335 -23.569 -15.182  0.00  0.00    +0.095 C 
BRANCH  14  15
ATOM     15  C   UNL     1      36.623 -22.422 -16.159  0.00  0.00    +0.069 C 
BRANCH  15  18
ATOM     16  F   UNL     1      37.188 -21.018 -18.538  0.00  0.00    -0.200 F 
ATOM     17  N   UNL     1      34.493 -23.012 -17.144  0.00  0.00    -0.246 NA
ATOM     18  C   UNL     1      35.664 -22.357 -17.301  0.00  0.00    +0.091 C 
ATOM     19  C   UNL     1      36.009 -21.647 -18.440  0.00  0.00    +0.187 C 
ATOM     20  C   UNL     1      35.091 -21.607 -19.484  0.00  0.00    +0.169 C 
ATOM     21  C   UNL     1      33.875 -22.269 -19.359  0.00  0.00    +0.060 C 
ATOM     22  C   UNL     1      33.626 -22.951 -18.179  0.00  0.00    +0.102 C 
BRANCH  20  23
ATOM     23  O   UNL     1      35.382 -20.924 -20.624  0.00  0.00    -0.473 OA
BRANCH  23  24
ATOM     24  C   UNL     1      34.877 -19.594 -20.732  0.00  0.00    +0.206 C 
ATOM     25  C   UNL     1      34.393 -19.363 -22.147  0.00  0.00    +0.051 C 
ENDBRANCH  23  24
ENDBRANCH  20  23
ENDBRANCH  15  18
ENDBRANCH  14  15
ENDBRANCH   1  14
TORSDOF 7
ENDMDL
MODEL 5
REMARK VINA RESULT:      -8.8      4.842      9.278
REMARK  Name = 3000541
REMARK  7 active torsions:
REMARK  status: ('A' for Active; 'I' for Inactive)
REMARK    1  A    between atoms: N_1  and  C_4
REMARK    2  A    between atoms: N_1  and  C_14
REMARK    3  A    between atoms: C_4  and  N_6
REMARK    4  A    between atoms: C_14  and  C_15
REMARK    5  A    between atoms: C_15  and  C_18
REMARK    6  A    between atoms: C_20  and  O_23
REMARK    7  A    between atoms: O_23  and  C_24
REMARK                            x       y       z     vdW  Elec       q    Type
REMARK                         _______ _______ _______ _____ _____    ______ ____
ROOT
ATOM      1  N   UNL     1      34.723 -15.546 -23.038  0.00  0.00    -0.315 N 
ATOM      2  H   UNL     1      35.366 -15.150 -22.406  0.00  0.00    +0.148 HD
ENDROOT
BRANCH   1   4
ATOM      3  S   UNL     1      34.470 -17.135 -25.118  0.00  0.00    -0.019 S 
ATOM      4  C   UNL     1      35.084 -16.773 -23.598  0.00  0.00    +0.136 C 
BRANCH   4   6
ATOM      5 CL   UNL     1      34.646 -21.902 -19.077  0.00  0.00    -0.081 Cl
ATOM      6  N   UNL     1      35.890 -17.558 -22.782  0.00  0.00    -0.281 N 
ATOM      7  N   UNL     1      34.311 -19.035 -21.822  0.00  0.00    -0.228 NA
ATOM      8  C   UNL     1      35.585 -18.614 -21.884  0.00  0.00    +0.133 C 
ATOM      9  C   UNL     1      36.631 -19.121 -21.144  0.00  0.00    +0.035 C 
ATOM     10  C   UNL     1      36.342 -20.154 -20.260  0.00  0.00    +0.016 C 
ATOM     11  C   UNL     1      35.039 -20.630 -20.156  0.00  0.00    +0.077 C 
ATOM     12  C   UNL     1      34.069 -20.041 -20.952  0.00  0.00    +0.112 C 
ATOM     13  H   UNL     1      36.849 -17.343 -22.837  0.00  0.00    +0.155 HD
ENDBRANCH   4   6
ENDBRANCH   1   4
BRANCH   1  14
ATOM     14  C   UNL     1      33.520 -14.794 -23.277  0.00  0.00    +0.095 C 
BRANCH  14  15
ATOM     15  C   UNL     1      33.801 -13.436 -23.930  0.00  0.00    +0.069 C 
BRANCH  15  18
ATOM     16  F   UNL     1      34.163 -10.752 -24.714  0.00  0.00    -0.200 F 
ATOM     17  N   UNL     1      32.160 -12.635 -22.342  0.00  0.00    -0.246 NA
ATOM     18  C   UNL     1      33.044 -12.308 -23.311  0.00  0.00    +0.091 C 
ATOM     19  C   UNL     1      33.274 -11.012 -23.746  0.00  0.00    +0.187 C 
ATOM     20  C   UNL     1      32.551  -9.987 -23.148  0.00  0.00    +0.169 C 
ATOM     21  C   UNL     1      31.632 -10.284 -22.147  0.00  0.00    +0.060 C 
ATOM     22  C   UNL     1      31.476 -11.612 -21.784  0.00  0.00    +0.102 C 
BRANCH  20  23
ATOM     23  O   UNL     1      32.739  -8.699 -23.540  0.00  0.00    -0.473 OA
BRANCH  23  24
ATOM     24  C   UNL     1      33.586  -7.888 -22.726  0.00  0.00    +0.206 C 
ATOM     25  C   UNL     1      34.815  -7.503 -23.521  0.00  0.00    +0.051 C 
ENDBRANCH  23  24
ENDBRANCH  20  23
ENDBRANCH  15  18
ENDBRANCH  14  15
ENDBRANCH   1  14
TORSDOF 7
ENDMDL
MODEL 6
REMARK VINA RESULT:      -8.8      4.169      8.414
REMARK  Name = 3000541
REMARK  7 active torsions:
REMARK  status: ('A' for Active; 'I' for Inactive)
REMARK    1  A    between atoms: N_1  and  C_4
REMARK    2  A    between atoms: N_1  and  C_14
REMARK    3  A    between atoms: C_4  and  N_6
REMARK    4  A    between atoms: C_14  and  C_15
REMARK    5  A    between atoms: C_15  and  C_18
REMARK    6  A    between atoms: C_20  and  O_23
REMARK    7  A    between atoms: O_23  and  C_24
REMARK                            x       y       z     vdW  Elec       q    Type
REMARK                         _______ _______ _______ _____ _____    ______ ____
ROOT
ATOM      1  N   UNL     1      34.954 -15.875 -22.759  0.00  0.00    -0.315 N 
ATOM      2  H   UNL     1      35.471 -15.142 -23.163  0.00  0.00    +0.148 HD
ENDROOT
BRANCH   1   4
ATOM      3  S   UNL     1      34.565 -17.339 -24.910  0.00  0.00    -0.019 S 
ATOM      4  C   UNL     1      35.116 -17.137 -23.337  0.00  0.00    +0.136 C 
BRANCH   4   6
ATOM      5 CL   UNL     1      33.340 -22.038 -18.891  0.00  0.00    -0.081 Cl
ATOM      6  N   UNL     1      35.688 -18.082 -22.493  0.00  0.00    -0.281 N 
ATOM      7  N   UNL     1      33.778 -19.170 -21.620  0.00  0.00    -0.228 NA
ATOM      8  C   UNL     1      35.115 -19.042 -21.620  0.00  0.00    +0.133 C 
ATOM      9  C   UNL     1      35.987 -19.769 -20.840  0.00  0.00    +0.035 C 
ATOM     10  C   UNL     1      35.435 -20.712 -19.980  0.00  0.00    +0.016 C 
ATOM     11  C   UNL     1      34.056 -20.886 -19.939  0.00  0.00    +0.077 C 
ATOM     12  C   UNL     1      33.279 -20.096 -20.772  0.00  0.00    +0.112 C 
ATOM     13  H   UNL     1      36.672 -18.085 -22.502  0.00  0.00    +0.155 HD
ENDBRANCH   4   6
ENDBRANCH   1   4
BRANCH   1  14
ATOM     14  C   UNL     1      34.118 -15.525 -21.642  0.00  0.00    +0.095 C 
BRANCH  14  15
ATOM     15  C   UNL     1      32.781 -14.917 -22.082  0.00  0.00    +0.069 C 
BRANCH  15  18
ATOM     16  F   UNL     1      31.384 -12.705 -21.031  0.00  0.00    -0.200 F 
ATOM     17  N   UNL     1      33.740 -13.399 -23.705  0.00  0.00    -0.246 NA
ATOM     18  C   UNL     1      32.909 -13.542 -22.648  0.00  0.00    +0.091 C 
ATOM     19  C   UNL     1      32.191 -12.501 -22.080  0.00  0.00    +0.187 C 
ATOM     20  C   UNL     1      32.334 -11.234 -22.634  0.00  0.00    +0.169 C 
ATOM     21  C   UNL     1      33.180 -11.047 -23.722  0.00  0.00    +0.060 C 
ATOM     22  C   UNL     1      33.853 -12.153 -24.216  0.00  0.00    +0.102 C 
BRANCH  20  23
ATOM     23  O   UNL     1      31.652 -10.179 -22.112  0.00  0.00    -0.473 OA
BRANCH  23  24
ATOM     24  C   UNL     1      32.401  -8.998 -21.826  0.00  0.00    +0.206 C 
ATOM     25  C   UNL     1      32.276  -8.680 -20.351  0.00  0.00    +0.051 C 
ENDBRANCH  23  24
ENDBRANCH  20  23
ENDBRANCH  15  18
ENDBRANCH  14  15
ENDBRANCH   1  14
TORSDOF 7
ENDMDL
MODEL 7
REMARK VINA RESULT:      -8.8      5.254      8.531
REMARK  Name = 3000541
REMARK  7 active torsions:
REMARK  status: ('A' for Active; 'I' for Inactive)
REMARK    1  A    between atoms: N_1  and  C_4
REMARK    2  A    between atoms: N_1  and  C_14
REMARK    3  A    between atoms: C_4  and  N_6
REMARK    4  A    between atoms: C_14  and  C_15
REMARK    5  A    between atoms: C_15  and  C_18
REMARK    6  A    between atoms: C_20  and  O_23
REMARK    7  A    between atoms: O_23  and  C_24
REMARK                            x       y       z     vdW  Elec       q    Type
REMARK                         _______ _______ _______ _____ _____    ______ ____
ROOT
ATOM      1  N   UNL     1      35.795 -22.372 -16.902  0.00  0.00    -0.315 N 
ATOM      2  H   UNL     1      34.957 -22.553 -17.386  0.00  0.00    +0.148 HD
ENDROOT
BRANCH   1   4
ATOM      3  S   UNL     1      37.433 -23.546 -15.211  0.00  0.00    -0.019 S 
ATOM      4  C   UNL     1      35.920 -22.958 -15.641  0.00  0.00    +0.136 C 
BRANCH   4   6
ATOM      5 CL   UNL     1      29.137 -23.185 -16.583  0.00  0.00    -0.081 Cl
ATOM      6  N   UNL     1      34.735 -23.009 -14.916  0.00  0.00    -0.281 N 
ATOM      7  N   UNL     1      33.120 -23.145 -16.639  0.00  0.00    -0.228 NA
ATOM      8  C   UNL     1      33.377 -23.053 -15.324  0.00  0.00    +0.133 C 
ATOM      9  C   UNL     1      32.427 -22.997 -14.327  0.00  0.00    +0.035 C 
ATOM     10  C   UNL     1      31.093 -23.038 -14.717  0.00  0.00    +0.016 C 
ATOM     11  C   UNL     1      30.771 -23.133 -16.066  0.00  0.00    +0.077 C 
ATOM     12  C   UNL     1      31.812 -23.182 -16.979  0.00  0.00    +0.112 C 
ATOM     13  H   UNL     1      34.861 -23.015 -13.940  0.00  0.00    +0.155 HD
ENDBRANCH   4   6
ENDBRANCH   1   4
BRANCH   1  14
ATOM     14  C   UNL     1      36.750 -21.533 -17.576  0.00  0.00    +0.095 C 
BRANCH  14  15
ATOM     15  C   UNL     1      36.694 -21.693 -19.100  0.00  0.00    +0.069 C 
BRANCH  15  18
ATOM     16  F   UNL     1      37.031 -19.451 -20.776  0.00  0.00    -0.200 F 
ATOM     17  N   UNL     1      34.312 -21.469 -19.464  0.00  0.00    -0.246 NA
ATOM     18  C   UNL     1      35.545 -20.982 -19.733  0.00  0.00    +0.091 C 
ATOM     19  C   UNL     1      35.785 -19.885 -20.545  0.00  0.00    +0.187 C 
ATOM     20  C   UNL     1      34.690 -19.248 -21.118  0.00  0.00    +0.169 C 
ATOM     21  C   UNL     1      33.407 -19.720 -20.865  0.00  0.00    +0.060 C 
ATOM     22  C   UNL     1      33.273 -20.824 -20.038  0.00  0.00    +0.102 C 
BRANCH  20  23
ATOM     23  O   UNL     1      34.873 -18.168 -21.924  0.00  0.00    -0.473 OA
BRANCH  23  24
ATOM     24  C   UNL     1      35.602 -18.375 -23.134  0.00  0.00    +0.206 C 
ATOM     25  C   UNL     1      34.677 -18.981 -24.169  0.00  0.00    +0.051 C 
ENDBRANCH  23  24
ENDBRANCH  20  23
ENDBRANCH  15  18
ENDBRANCH  14  15
ENDBRANCH   1  14
TORSDOF 7
ENDMDL
MODEL 8
REMARK VINA RESULT:      -8.7      5.620      9.858
REMARK  Name = 3000541
REMARK  7 active torsions:
REMARK  status: ('A' for Active; 'I' for Inactive)
REMARK    1  A    between atoms: N_1  and  C_4
REMARK    2  A    between atoms: N_1  and  C_14
REMARK    3  A    between atoms: C_4  and  N_6
REMARK    4  A    between atoms: C_14  and  C_15
REMARK    5  A    between atoms: C_15  and  C_18
REMARK    6  A    between atoms: C_20  and  O_23
REMARK    7  A    between atoms: O_23  and  C_24
REMARK                            x       y       z     vdW  Elec       q    Type
REMARK                         _______ _______ _______ _____ _____    ______ ____
ROOT
ATOM      1  N   UNL     1      32.108 -13.402 -23.033  0.00  0.00    -0.315 N 
ATOM      2  H   UNL     1      31.296 -13.866 -23.340  0.00  0.00    +0.148 HD
ENDROOT
BRANCH   1   4
ATOM      3  S   UNL     1      33.842 -12.002 -24.432  0.00  0.00    -0.019 S 
ATOM      4  C   UNL     1      33.212 -13.460 -23.887  0.00  0.00    +0.136 C 
BRANCH   4   6
ATOM      5 CL   UNL     1      36.135 -18.952 -21.016  0.00  0.00    -0.081 Cl
ATOM      6  N   UNL     1      33.620 -14.751 -24.205  0.00  0.00    -0.281 N 
ATOM      7  N   UNL     1      34.399 -15.539 -22.116  0.00  0.00    -0.228 NA
ATOM      8  C   UNL     1      34.230 -15.769 -23.428  0.00  0.00    +0.133 C 
ATOM      9  C   UNL     1      34.600 -16.919 -24.092  0.00  0.00    +0.035 C 
ATOM     10  C   UNL     1      35.199 -17.922 -23.339  0.00  0.00    +0.016 C 
ATOM     11  C   UNL     1      35.399 -17.737 -21.975  0.00  0.00    +0.077 C 
ATOM     12  C   UNL     1      34.985 -16.538 -21.418  0.00  0.00    +0.112 C 
ATOM     13  H   UNL     1      33.457 -15.004 -25.142  0.00  0.00    +0.155 HD
ENDBRANCH   4   6
ENDBRANCH   1   4
BRANCH   1  14
ATOM     14  C   UNL     1      32.022 -12.743 -21.757  0.00  0.00    +0.095 C 
BRANCH  14  15
ATOM     15  C   UNL     1      31.023 -11.580 -21.768  0.00  0.00    +0.069 C 
BRANCH  15  18
ATOM     16  F   UNL     1      31.996  -9.647 -23.574  0.00  0.00    -0.200 F 
ATOM     17  N   UNL     1      31.657 -10.073 -19.984  0.00  0.00    -0.246 NA
ATOM     18  C   UNL     1      31.611 -10.285 -21.318  0.00  0.00    +0.091 C 
ATOM     19  C   UNL     1      32.071  -9.380 -22.263  0.00  0.00    +0.187 C 
ATOM     20  C   UNL     1      32.613  -8.184 -21.809  0.00  0.00    +0.169 C 
ATOM     21  C   UNL     1      32.678  -7.930 -20.443  0.00  0.00    +0.060 C 
ATOM     22  C   UNL     1      32.191  -8.899 -19.580  0.00  0.00    +0.102 C 
BRANCH  20  23
ATOM     23  O   UNL     1      33.077  -7.263 -22.696  0.00  0.00    -0.473 OA
BRANCH  23  24
ATOM     24  C   UNL     1      34.378  -7.484 -23.240  0.00  0.00    +0.206 C 
ATOM     25  C   UNL     1      34.465  -6.816 -24.596  0.00  0.00    +0.051 C 
ENDBRANCH  23  24
ENDBRANCH  20  23
ENDBRANCH  15  18
ENDBRANCH  14  15
ENDBRANCH   1  14
TORSDOF 7
ENDMDL
MODEL 9
REMARK VINA RESULT:      -8.7      3.773      5.334
REMARK  Name = 3000541
REMARK  7 active torsions:
REMARK  status: ('A' for Active; 'I' for Inactive)
REMARK    1  A    between atoms: N_1  and  C_4
REMARK    2  A    between atoms: N_1  and  C_14
REMARK    3  A    between atoms: C_4  and  N_6
REMARK    4  A    between atoms: C_14  and  C_15
REMARK    5  A    between atoms: C_15  and  C_18
REMARK    6  A    between atoms: C_20  and  O_23
REMARK    7  A    between atoms: O_23  and  C_24
REMARK                            x       y       z     vdW  Elec       q    Type
REMARK                         _______ _______ _______ _____ _____    ______ ____
ROOT
ATOM      1  N   UNL     1      33.894 -12.802 -24.141  0.00  0.00    -0.315 N 
ATOM      2  H   UNL     1      34.388 -12.620 -23.308  0.00  0.00    +0.148 HD
ENDROOT
BRANCH   1   4
ATOM      3  S   UNL     1      33.779 -12.451 -26.745  0.00  0.00    -0.019 S 
ATOM      4  C   UNL     1      34.101 -11.904 -25.191  0.00  0.00    +0.136 C 
BRANCH   4   6
ATOM      5 CL   UNL     1      32.367  -6.484 -21.375  0.00  0.00    -0.081 Cl
ATOM      6  N   UNL     1      34.594 -10.667 -24.794  0.00  0.00    -0.281 N 
ATOM      7  N   UNL     1      32.884  -9.905 -23.349  0.00  0.00    -0.228 NA
ATOM      8  C   UNL     1      34.052  -9.653 -23.963  0.00  0.00    +0.133 C 
ATOM      9  C   UNL     1      34.774  -8.486 -23.854  0.00  0.00    +0.035 C 
ATOM     10  C   UNL     1      34.250  -7.486 -23.043  0.00  0.00    +0.016 C 
ATOM     11  C   UNL     1      33.044  -7.694 -22.383  0.00  0.00    +0.077 C 
ATOM     12  C   UNL     1      32.406  -8.911 -22.569  0.00  0.00    +0.112 C 
ATOM     13  H   UNL     1      35.484 -10.453 -25.158  0.00  0.00    +0.155 HD
ENDBRANCH   4   6
ENDBRANCH   1   4
BRANCH   1  14
ATOM     14  C   UNL     1      33.043 -13.962 -24.135  0.00  0.00    +0.095 C 
BRANCH  14  15
ATOM     15  C   UNL     1      33.827 -15.262 -24.353  0.00  0.00    +0.069 C 
BRANCH  15  18
ATOM     16  F   UNL     1      34.797 -17.907 -24.253  0.00  0.00    -0.200 F 
ATOM     17  N   UNL     1      34.203 -15.151 -21.965  0.00  0.00    -0.246 NA
ATOM     18  C   UNL     1      34.279 -15.905 -23.084  0.00  0.00    +0.091 C 
ATOM     19  C   UNL     1      34.744 -17.211 -23.109  0.00  0.00    +0.187 C 
ATOM     20  C   UNL     1      35.156 -17.778 -21.909  0.00  0.00    +0.169 C 
ATOM     21  C   UNL     1      35.093 -17.034 -20.736  0.00  0.00    +0.060 C 
ATOM     22  C   UNL     1      34.613 -15.736 -20.818  0.00  0.00    +0.102 C 
BRANCH  20  23
ATOM     23  O   UNL     1      35.621 -19.056 -21.882  0.00  0.00    -0.473 OA
BRANCH  23  24
ATOM     24  C   UNL     1      35.002 -19.953 -20.960  0.00  0.00    +0.206 C 
ATOM     25  C   UNL     1      36.073 -20.782 -20.283  0.00  0.00    +0.051 C 
ENDBRANCH  23  24
ENDBRANCH  20  23
ENDBRANCH  15  18
ENDBRANCH  14  15
ENDBRANCH   1  14
TORSDOF 7
ENDMDL
