MODEL 1
REMARK VINA RESULT:     -10.4      0.000      0.000
REMARK  Name = 447271
REMARK  5 active torsions:
REMARK  status: ('A' for Active; 'I' for Inactive)
REMARK    1  A    between atoms: C_1  and  O_18
REMARK    2  A    between atoms: C_4  and  N_11
REMARK    3  A    between atoms: O_18  and  C_21
REMARK    4  A    between atoms: C_19  and  C_25
REMARK    5  A    between atoms: C_22  and  O_28
REMARK                            x       y       z     vdW  Elec       q    Type
REMARK                         _______ _______ _______ _____ _____    ______ ____
ROOT
ATOM      1  C   UNL     1      32.681 -12.997 -23.391  0.00  0.00    +0.137 C 
ATOM      2  C   UNL     1      32.615 -13.347 -22.042  0.00  0.00    +0.014 C 
ATOM      3  C   UNL     1      33.291 -13.855 -24.306  0.00  0.00    +0.014 C 
ATOM      4  C   UNL     1      33.772 -15.412 -22.523  0.00  0.00    +0.078 C 
ATOM      5  C   UNL     1      33.162 -14.555 -21.609  0.00  0.00    +0.016 C 
ATOM      6  C   UNL     1      33.837 -15.063 -23.872  0.00  0.00    +0.016 C 
ATOM      7  C   UNL     1      31.967 -12.442 -21.047  0.00  0.00    +0.034 C 
ATOM      8  C   UNL     1      33.370 -13.498 -25.754  0.00  0.00    +0.034 C 
ENDROOT
BRANCH   4  11
ATOM      9  O   UNL     1      35.093 -16.015 -19.943  0.00  0.00    -0.250 OA
ATOM     10  O   UNL     1      35.846 -20.307 -21.360  0.00  0.00    -0.268 OA
ATOM     11  N   UNL     1      34.338 -16.663 -22.074  0.00  0.00    -0.142 N 
ATOM     12  N   UNL     1      34.178 -17.683 -22.978  0.00  0.00    -0.164 NA
ATOM     13  N   UNL     1      35.507 -18.124 -20.631  0.00  0.00    -0.233 N 
ATOM     14  C   UNL     1      34.981 -16.854 -20.840  0.00  0.00    +0.333 C 
ATOM     15  C   UNL     1      34.663 -18.849 -22.731  0.00  0.00    +0.176 C 
ATOM     16  C   UNL     1      35.408 -19.177 -21.497  0.00  0.00    +0.274 C 
ATOM     17  H   UNL     1      35.992 -18.278 -19.787  0.00  0.00    +0.160 HD
ENDBRANCH   4  11
BRANCH   1  18
ATOM     18  O   UNL     1      32.148 -11.815 -23.815  0.00  0.00    -0.454 OA
BRANCH  18  21
ATOM     19  C   UNL     1      33.271  -8.500 -22.750  0.00  0.00    +0.014 C 
ATOM     20  C   UNL     1      32.487  -9.647 -22.878  0.00  0.00    +0.036 C 
ATOM     21  C   UNL     1      32.925 -10.679 -23.689  0.00  0.00    +0.145 C 
ATOM     22  C   UNL     1      34.482  -8.404 -23.435  0.00  0.00    +0.130 C 
ATOM     23  C   UNL     1      34.124 -10.601 -24.376  0.00  0.00    +0.041 C 
ATOM     24  C   UNL     1      34.909  -9.455 -24.248  0.00  0.00    +0.039 C 
BRANCH  19  25
ATOM     25  C   UNL     1      32.799  -7.386 -21.876  0.00  0.00    +0.025 C 
ATOM     26  C   UNL     1      32.656  -7.813 -20.404  0.00  0.00    +0.005 C 
ATOM     27  C   UNL     1      31.479  -6.769 -22.373  0.00  0.00    +0.005 C 
ENDBRANCH  19  25
BRANCH  22  28
ATOM     28  O   UNL     1      35.261  -7.292 -23.322  0.00  0.00    -0.506 OA
ATOM     29  H   UNL     1      36.187  -7.354 -23.447  0.00  0.00    +0.292 HD
ENDBRANCH  22  28
ENDBRANCH  18  21
ENDBRANCH   1  18
TORSDOF 5
ENDMDL
MODEL 2
REMARK VINA RESULT:     -10.4      0.012      1.654
REMARK  Name = 447271
REMARK  5 active torsions:
REMARK  status: ('A' for Active; 'I' for Inactive)
REMARK    1  A    between atoms: C_1  and  O_18
REMARK    2  A    between atoms: C_4  and  N_11
REMARK    3  A    between atoms: O_18  and  C_21
REMARK    4  A    between atoms: C_19  and  C_25
REMARK    5  A    between atoms: C_22  and  O_28
REMARK                            x       y       z     vdW  Elec       q    Type
REMARK                         _______ _______ _______ _____ _____    ______ ____
ROOT
ATOM      1  C   UNL     1      32.689 -13.004 -23.394  0.00  0.00    +0.137 C 
ATOM      2  C   UNL     1      33.300 -13.863 -24.308  0.00  0.00    +0.014 C 
ATOM      3  C   UNL     1      32.625 -13.352 -22.044  0.00  0.00    +0.014 C 
ATOM      4  C   UNL     1      33.780 -15.419 -22.523  0.00  0.00    +0.078 C 
ATOM      5  C   UNL     1      33.845 -15.070 -23.871  0.00  0.00    +0.016 C 
ATOM      6  C   UNL     1      33.170 -14.560 -21.609  0.00  0.00    +0.016 C 
ATOM      7  C   UNL     1      33.379 -13.508 -25.756  0.00  0.00    +0.034 C 
ATOM      8  C   UNL     1      31.976 -12.444 -21.052  0.00  0.00    +0.034 C 
ENDROOT
BRANCH   4  11
ATOM      9  O   UNL     1      35.103 -16.017 -19.943  0.00  0.00    -0.250 OA
ATOM     10  O   UNL     1      35.848 -20.313 -21.352  0.00  0.00    -0.268 OA
ATOM     11  N   UNL     1      34.345 -16.669 -22.072  0.00  0.00    -0.142 N 
ATOM     12  N   UNL     1      34.183 -17.691 -22.974  0.00  0.00    -0.164 NA
ATOM     13  N   UNL     1      35.513 -18.128 -20.627  0.00  0.00    -0.233 N 
ATOM     14  C   UNL     1      34.989 -16.858 -20.838  0.00  0.00    +0.333 C 
ATOM     15  C   UNL     1      34.666 -18.857 -22.726  0.00  0.00    +0.176 C 
ATOM     16  C   UNL     1      35.412 -19.183 -21.492  0.00  0.00    +0.274 C 
ATOM     17  H   UNL     1      35.999 -18.282 -19.784  0.00  0.00    +0.160 HD
ENDBRANCH   4  11
BRANCH   1  18
ATOM     18  O   UNL     1      32.155 -11.823 -23.820  0.00  0.00    -0.454 OA
BRANCH  18  21
ATOM     19  C   UNL     1      33.271  -8.507 -22.754  0.00  0.00    +0.014 C 
ATOM     20  C   UNL     1      32.489  -9.654 -22.883  0.00  0.00    +0.036 C 
ATOM     21  C   UNL     1      32.931 -10.685 -23.693  0.00  0.00    +0.145 C 
ATOM     22  C   UNL     1      34.483  -8.408 -23.437  0.00  0.00    +0.130 C 
ATOM     23  C   UNL     1      34.130 -10.605 -24.379  0.00  0.00    +0.041 C 
ATOM     24  C   UNL     1      34.912  -9.458 -24.250  0.00  0.00    +0.039 C 
BRANCH  19  25
ATOM     25  C   UNL     1      32.796  -7.393 -21.881  0.00  0.00    +0.025 C 
ATOM     26  C   UNL     1      32.677  -7.813 -20.404  0.00  0.00    +0.005 C 
ATOM     27  C   UNL     1      31.461  -6.796 -22.364  0.00  0.00    +0.005 C 
ENDBRANCH  19  25
BRANCH  22  28
ATOM     28  O   UNL     1      35.259  -7.295 -23.323  0.00  0.00    -0.506 OA
ATOM     29  H   UNL     1      36.092  -7.346 -22.896  0.00  0.00    +0.292 HD
ENDBRANCH  22  28
ENDBRANCH  18  21
ENDBRANCH   1  18
TORSDOF 5
ENDMDL
MODEL 3
REMARK VINA RESULT:     -10.3      4.499     11.035
REMARK  Name = 447271
REMARK  5 active torsions:
REMARK  status: ('A' for Active; 'I' for Inactive)
REMARK    1  A    between atoms: C_1  and  O_18
REMARK    2  A    between atoms: C_4  and  N_11
REMARK    3  A    between atoms: O_18  and  C_21
REMARK    4  A    between atoms: C_19  and  C_25
REMARK    5  A    between atoms: C_22  and  O_28
REMARK                            x       y       z     vdW  Elec       q    Type
REMARK                         _______ _______ _______ _____ _____    ______ ____
ROOT
ATOM      1  C   UNL     1      35.047 -21.069 -20.046  0.00  0.00    +0.137 C 
ATOM      2  C   UNL     1      36.190 -20.378 -20.449  0.00  0.00    +0.014 C 
ATOM      3  C   UNL     1      33.789 -20.486 -20.200  0.00  0.00    +0.014 C 
ATOM      4  C   UNL     1      34.817 -18.521 -21.158  0.00  0.00    +0.078 C 
ATOM      5  C   UNL     1      36.074 -19.104 -21.005  0.00  0.00    +0.016 C 
ATOM      6  C   UNL     1      33.674 -19.212 -20.755  0.00  0.00    +0.016 C 
ATOM      7  C   UNL     1      37.545 -20.985 -20.292  0.00  0.00    +0.034 C 
ATOM      8  C   UNL     1      32.554 -21.211 -19.775  0.00  0.00    +0.034 C 
ENDROOT
BRANCH   4  11
ATOM      9  O   UNL     1      34.936 -15.898 -19.790  0.00  0.00    -0.250 OA
ATOM     10  O   UNL     1      34.197 -13.804 -23.798  0.00  0.00    -0.268 OA
ATOM     11  N   UNL     1      34.698 -17.202 -21.733  0.00  0.00    -0.142 N 
ATOM     12  N   UNL     1      34.555 -17.220 -23.098  0.00  0.00    -0.164 NA
ATOM     13  N   UNL     1      34.539 -14.845 -21.745  0.00  0.00    -0.233 N 
ATOM     14  C   UNL     1      34.732 -16.003 -21.002  0.00  0.00    +0.333 C 
ATOM     15  C   UNL     1      34.402 -16.119 -23.748  0.00  0.00    +0.176 C 
ATOM     16  C   UNL     1      34.365 -14.790 -23.101  0.00  0.00    +0.274 C 
ATOM     17  H   UNL     1      34.526 -13.991 -21.256  0.00  0.00    +0.160 HD
ENDBRANCH   4  11
BRANCH   1  18
ATOM     18  O   UNL     1      35.160 -22.315 -19.501  0.00  0.00    -0.454 OA
BRANCH  18  21
ATOM     19  C   UNL     1      34.305 -22.902 -15.993  0.00  0.00    +0.014 C 
ATOM     20  C   UNL     1      34.186 -22.810 -17.380  0.00  0.00    +0.036 C 
ATOM     21  C   UNL     1      35.278 -22.405 -18.127  0.00  0.00    +0.145 C 
ATOM     22  C   UNL     1      35.515 -22.587 -15.375  0.00  0.00    +0.130 C 
ATOM     23  C   UNL     1      36.486 -22.088 -17.531  0.00  0.00    +0.041 C 
ATOM     24  C   UNL     1      36.606 -22.179 -16.144  0.00  0.00    +0.039 C 
BRANCH  19  25
ATOM     25  C   UNL     1      33.128 -23.339 -15.186  0.00  0.00    +0.025 C 
ATOM     26  C   UNL     1      33.343 -24.715 -14.530  0.00  0.00    +0.005 C 
ATOM     27  C   UNL     1      31.824 -23.347 -16.005  0.00  0.00    +0.005 C 
ENDBRANCH  19  25
BRANCH  22  28
ATOM     28  O   UNL     1      35.649 -22.670 -14.022  0.00  0.00    -0.506 OA
ATOM     29  H   UNL     1      35.756 -21.891 -13.513  0.00  0.00    +0.292 HD
ENDBRANCH  22  28
ENDBRANCH  18  21
ENDBRANCH   1  18
TORSDOF 5
ENDMDL
MODEL 4
REMARK VINA RESULT:     -10.3      4.502     10.995
REMARK  Name = 447271
REMARK  5 active torsions:
REMARK  status: ('A' for Active; 'I' for Inactive)
REMARK    1  A    between atoms: C_1  and  O_18
REMARK    2  A    between atoms: C_4  and  N_11
REMARK    3  A    between atoms: O_18  and  C_21
REMARK    4  A    between atoms: C_19  and  C_25
REMARK    5  A    between atoms: C_22  and  O_28
REMARK                            x       y       z     vdW  Elec       q    Type
REMARK                         _______ _______ _______ _____ _____    ______ ____
ROOT
ATOM      1  C   UNL     1      35.058 -21.074 -20.043  0.00  0.00    +0.137 C 
ATOM      2  C   UNL     1      33.797 -20.504 -20.222  0.00  0.00    +0.014 C 
ATOM      3  C   UNL     1      36.202 -20.371 -20.421  0.00  0.00    +0.014 C 
ATOM      4  C   UNL     1      34.824 -18.529 -21.158  0.00  0.00    +0.078 C 
ATOM      5  C   UNL     1      33.681 -19.231 -20.780  0.00  0.00    +0.016 C 
ATOM      6  C   UNL     1      36.085 -19.098 -20.979  0.00  0.00    +0.016 C 
ATOM      7  C   UNL     1      32.561 -21.242 -19.824  0.00  0.00    +0.034 C 
ATOM      8  C   UNL     1      37.559 -20.964 -20.236  0.00  0.00    +0.034 C 
ENDROOT
BRANCH   4  11
ATOM      9  O   UNL     1      34.938 -15.903 -19.795  0.00  0.00    -0.250 OA
ATOM     10  O   UNL     1      34.199 -13.817 -23.807  0.00  0.00    -0.268 OA
ATOM     11  N   UNL     1      34.703 -17.210 -21.736  0.00  0.00    -0.142 N 
ATOM     12  N   UNL     1      34.562 -17.231 -23.101  0.00  0.00    -0.164 NA
ATOM     13  N   UNL     1      34.540 -14.853 -21.753  0.00  0.00    -0.233 N 
ATOM     14  C   UNL     1      34.734 -16.010 -21.007  0.00  0.00    +0.333 C 
ATOM     15  C   UNL     1      34.407 -16.132 -23.753  0.00  0.00    +0.176 C 
ATOM     16  C   UNL     1      34.367 -14.802 -23.108  0.00  0.00    +0.274 C 
ATOM     17  H   UNL     1      34.525 -13.998 -21.264  0.00  0.00    +0.160 HD
ENDBRANCH   4  11
BRANCH   1  18
ATOM     18  O   UNL     1      35.172 -22.320 -19.498  0.00  0.00    -0.454 OA
BRANCH  18  21
ATOM     19  C   UNL     1      34.278 -22.914 -16.001  0.00  0.00    +0.014 C 
ATOM     20  C   UNL     1      34.175 -22.822 -17.389  0.00  0.00    +0.036 C 
ATOM     21  C   UNL     1      35.274 -22.411 -18.123  0.00  0.00    +0.145 C 
ATOM     22  C   UNL     1      35.479 -22.593 -15.368  0.00  0.00    +0.130 C 
ATOM     23  C   UNL     1      36.474 -22.089 -17.512  0.00  0.00    +0.041 C 
ATOM     24  C   UNL     1      36.577 -22.181 -16.124  0.00  0.00    +0.039 C 
BRANCH  19  25
ATOM     25  C   UNL     1      33.093 -23.356 -15.208  0.00  0.00    +0.025 C 
ATOM     26  C   UNL     1      33.295 -24.746 -14.577  0.00  0.00    +0.005 C 
ATOM     27  C   UNL     1      31.794 -23.341 -16.035  0.00  0.00    +0.005 C 
ENDBRANCH  19  25
BRANCH  22  28
ATOM     28  O   UNL     1      35.597 -22.677 -14.014  0.00  0.00    -0.506 OA
ATOM     29  H   UNL     1      36.364 -23.057 -13.633  0.00  0.00    +0.292 HD
ENDBRANCH  22  28
ENDBRANCH  18  21
ENDBRANCH   1  18
TORSDOF 5
ENDMDL
MODEL 5
REMARK VINA RESULT:     -10.1      2.219      4.327
REMARK  Name = 447271
REMARK  5 active torsions:
REMARK  status: ('A' for Active; 'I' for Inactive)
REMARK    1  A    between atoms: C_1  and  O_18
REMARK    2  A    between atoms: C_4  and  N_11
REMARK    3  A    between atoms: O_18  and  C_21
REMARK    4  A    between atoms: C_19  and  C_25
REMARK    5  A    between atoms: C_22  and  O_28
REMARK                            x       y       z     vdW  Elec       q    Type
REMARK                         _______ _______ _______ _____ _____    ______ ____
ROOT
ATOM      1  C   UNL     1      34.761 -16.057 -22.833  0.00  0.00    +0.137 C 
ATOM      2  C   UNL     1      34.647 -17.263 -23.525  0.00  0.00    +0.014 C 
ATOM      3  C   UNL     1      34.779 -16.051 -21.438  0.00  0.00    +0.014 C 
ATOM      4  C   UNL     1      34.565 -18.458 -21.426  0.00  0.00    +0.078 C 
ATOM      5  C   UNL     1      34.548 -18.463 -22.820  0.00  0.00    +0.016 C 
ATOM      6  C   UNL     1      34.681 -17.252 -20.735  0.00  0.00    +0.016 C 
ATOM      7  C   UNL     1      34.625 -17.290 -25.018  0.00  0.00    +0.034 C 
ATOM      8  C   UNL     1      34.903 -14.770 -20.681  0.00  0.00    +0.034 C 
ENDROOT
BRANCH   4  11
ATOM      9  O   UNL     1      32.157 -20.104 -20.921  0.00  0.00    -0.250 OA
ATOM     10  O   UNL     1      34.706 -23.045 -18.503  0.00  0.00    -0.268 OA
ATOM     11  N   UNL     1      34.463 -19.700 -20.698  0.00  0.00    -0.142 N 
ATOM     12  N   UNL     1      35.673 -20.157 -20.238  0.00  0.00    -0.164 NA
ATOM     13  N   UNL     1      33.384 -21.548 -19.697  0.00  0.00    -0.233 N 
ATOM     14  C   UNL     1      33.267 -20.402 -20.475  0.00  0.00    +0.333 C 
ATOM     15  C   UNL     1      35.735 -21.236 -19.540  0.00  0.00    +0.176 C 
ATOM     16  C   UNL     1      34.550 -22.046 -19.185  0.00  0.00    +0.274 C 
ATOM     17  H   UNL     1      32.557 -22.044 -19.497  0.00  0.00    +0.160 HD
ENDBRANCH   4  11
BRANCH   1  18
ATOM     18  O   UNL     1      34.857 -14.883 -23.521  0.00  0.00    -0.454 OA
BRANCH  18  21
ATOM     19  C   UNL     1      33.163 -11.641 -23.479  0.00  0.00    +0.014 C 
ATOM     20  C   UNL     1      34.112 -12.627 -23.749  0.00  0.00    +0.036 C 
ATOM     21  C   UNL     1      33.916 -13.905 -23.254  0.00  0.00    +0.145 C 
ATOM     22  C   UNL     1      32.034 -11.947 -22.719  0.00  0.00    +0.130 C 
ATOM     23  C   UNL     1      32.803 -14.227 -22.498  0.00  0.00    +0.041 C 
ATOM     24  C   UNL     1      31.854 -13.241 -22.229  0.00  0.00    +0.039 C 
BRANCH  19  25
ATOM     25  C   UNL     1      33.372 -10.262 -24.012  0.00  0.00    +0.025 C 
ATOM     26  C   UNL     1      34.712 -10.116 -24.756  0.00  0.00    +0.005 C 
ATOM     27  C   UNL     1      33.263  -9.186 -22.915  0.00  0.00    +0.005 C 
ENDBRANCH  19  25
BRANCH  22  28
ATOM     28  O   UNL     1      31.098 -10.996 -22.447  0.00  0.00    -0.506 OA
ATOM     29  H   UNL     1      30.217 -11.107 -22.744  0.00  0.00    +0.292 HD
ENDBRANCH  22  28
ENDBRANCH  18  21
ENDBRANCH   1  18
TORSDOF 5
ENDMDL
MODEL 6
REMARK VINA RESULT:     -10.0      2.241      4.107
REMARK  Name = 447271
REMARK  5 active torsions:
REMARK  status: ('A' for Active; 'I' for Inactive)
REMARK    1  A    between atoms: C_1  and  O_18
REMARK    2  A    between atoms: C_4  and  N_11
REMARK    3  A    between atoms: O_18  and  C_21
REMARK    4  A    between atoms: C_19  and  C_25
REMARK    5  A    between atoms: C_22  and  O_28
REMARK                            x       y       z     vdW  Elec       q    Type
REMARK                         _______ _______ _______ _____ _____    ______ ____
ROOT
ATOM      1  C   UNL     1      34.781 -16.131 -22.787  0.00  0.00    +0.137 C 
ATOM      2  C   UNL     1      34.780 -16.142 -21.392  0.00  0.00    +0.014 C 
ATOM      3  C   UNL     1      34.655 -17.326 -23.495  0.00  0.00    +0.014 C 
ATOM      4  C   UNL     1      34.529 -18.545 -21.413  0.00  0.00    +0.078 C 
ATOM      5  C   UNL     1      34.654 -17.350 -20.706  0.00  0.00    +0.016 C 
ATOM      6  C   UNL     1      34.529 -18.533 -22.808  0.00  0.00    +0.016 C 
ATOM      7  C   UNL     1      34.915 -14.873 -20.616  0.00  0.00    +0.034 C 
ATOM      8  C   UNL     1      34.653 -17.333 -24.988  0.00  0.00    +0.034 C 
ENDROOT
BRANCH   4  11
ATOM      9  O   UNL     1      32.095 -20.173 -20.981  0.00  0.00    -0.250 OA
ATOM     10  O   UNL     1      34.561 -23.167 -18.542  0.00  0.00    -0.268 OA
ATOM     11  N   UNL     1      34.399 -19.795 -20.702  0.00  0.00    -0.142 N 
ATOM     12  N   UNL     1      35.594 -20.269 -20.220  0.00  0.00    -0.164 NA
ATOM     13  N   UNL     1      33.280 -21.644 -19.747  0.00  0.00    -0.233 N 
ATOM     14  C   UNL     1      33.192 -20.488 -20.514  0.00  0.00    +0.333 C 
ATOM     15  C   UNL     1      35.631 -21.356 -19.534  0.00  0.00    +0.176 C 
ATOM     16  C   UNL     1      34.430 -22.159 -19.215  0.00  0.00    +0.274 C 
ATOM     17  H   UNL     1      32.444 -22.134 -19.571  0.00  0.00    +0.160 HD
ENDBRANCH   4  11
BRANCH   1  18
ATOM     18  O   UNL     1      34.905 -14.950 -23.459  0.00  0.00    -0.454 OA
BRANCH  18  21
ATOM     19  C   UNL     1      33.190 -11.719 -23.498  0.00  0.00    +0.014 C 
ATOM     20  C   UNL     1      34.144 -12.706 -23.743  0.00  0.00    +0.036 C 
ATOM     21  C   UNL     1      33.959 -13.971 -23.215  0.00  0.00    +0.145 C 
ATOM     22  C   UNL     1      32.064 -12.013 -22.729  0.00  0.00    +0.130 C 
ATOM     23  C   UNL     1      32.848 -14.282 -22.450  0.00  0.00    +0.041 C 
ATOM     24  C   UNL     1      31.893 -13.295 -22.205  0.00  0.00    +0.039 C 
BRANCH  19  25
ATOM     25  C   UNL     1      33.388 -10.353 -24.066  0.00  0.00    +0.025 C 
ATOM     26  C   UNL     1      34.719 -10.222 -24.831  0.00  0.00    +0.005 C 
ATOM     27  C   UNL     1      33.290  -9.251 -22.995  0.00  0.00    +0.005 C 
ENDBRANCH  19  25
BRANCH  22  28
ATOM     28  O   UNL     1      31.122 -11.062 -22.479  0.00  0.00    -0.506 OA
ATOM     29  H   UNL     1      31.345 -10.302 -21.978  0.00  0.00    +0.292 HD
ENDBRANCH  22  28
ENDBRANCH  18  21
ENDBRANCH   1  18
TORSDOF 5
ENDMDL
MODEL 7
REMARK VINA RESULT:     -10.0      3.955     10.603
REMARK  Name = 447271
REMARK  5 active torsions:
REMARK  status: ('A' for Active; 'I' for Inactive)
REMARK    1  A    between atoms: C_1  and  O_18
REMARK    2  A    between atoms: C_4  and  N_11
REMARK    3  A    between atoms: O_18  and  C_21
REMARK    4  A    between atoms: C_19  and  C_25
REMARK    5  A    between atoms: C_22  and  O_28
REMARK                            x       y       z     vdW  Elec       q    Type
REMARK                         _______ _______ _______ _____ _____    ______ ____
ROOT
ATOM      1  C   UNL     1      35.120 -20.221 -20.633  0.00  0.00    +0.137 C 
ATOM      2  C   UNL     1      33.760 -19.912 -20.657  0.00  0.00    +0.014 C 
ATOM      3  C   UNL     1      36.065 -19.239 -20.931  0.00  0.00    +0.014 C 
ATOM      4  C   UNL     1      34.289 -17.638 -21.279  0.00  0.00    +0.078 C 
ATOM      5  C   UNL     1      33.345 -18.620 -20.981  0.00  0.00    +0.016 C 
ATOM      6  C   UNL     1      35.649 -17.947 -21.255  0.00  0.00    +0.016 C 
ATOM      7  C   UNL     1      32.734 -20.950 -20.342  0.00  0.00    +0.034 C 
ATOM      8  C   UNL     1      37.525 -19.551 -20.909  0.00  0.00    +0.034 C 
ENDROOT
BRANCH   4  11
ATOM      9  O   UNL     1      35.334 -15.842 -23.389  0.00  0.00    -0.250 OA
ATOM     10  O   UNL     1      32.371 -12.607 -22.065  0.00  0.00    -0.268 OA
ATOM     11  N   UNL     1      33.859 -16.301 -21.614  0.00  0.00    -0.142 N 
ATOM     12  N   UNL     1      32.799 -15.870 -20.858  0.00  0.00    -0.164 NA
ATOM     13  N   UNL     1      33.909 -14.220 -22.733  0.00  0.00    -0.233 N 
ATOM     14  C   UNL     1      34.437 -15.501 -22.614  0.00  0.00    +0.333 C 
ATOM     15  C   UNL     1      32.328 -14.683 -21.019  0.00  0.00    +0.176 C 
ATOM     16  C   UNL     1      32.873 -13.717 -21.996  0.00  0.00    +0.274 C 
ATOM     17  H   UNL     1      34.315 -13.625 -23.404  0.00  0.00    +0.160 HD
ENDBRANCH   4  11
BRANCH   1  18
ATOM     18  O   UNL     1      35.526 -21.485 -20.317  0.00  0.00    -0.454 OA
BRANCH  18  21
ATOM     19  C   UNL     1      34.693 -22.781 -17.000  0.00  0.00    +0.014 C 
ATOM     20  C   UNL     1      34.584 -22.455 -18.352  0.00  0.00    +0.036 C 
ATOM     21  C   UNL     1      35.634 -21.808 -18.977  0.00  0.00    +0.145 C 
ATOM     22  C   UNL     1      35.851 -22.454 -16.295  0.00  0.00    +0.130 C 
ATOM     23  C   UNL     1      36.791 -21.475 -18.294  0.00  0.00    +0.041 C 
ATOM     24  C   UNL     1      36.900 -21.801 -16.942  0.00  0.00    +0.039 C 
BRANCH  19  25
ATOM     25  C   UNL     1      33.560 -23.480 -16.323  0.00  0.00    +0.025 C 
ATOM     26  C   UNL     1      32.209 -23.212 -17.012  0.00  0.00    +0.005 C 
ATOM     27  C   UNL     1      33.463 -23.129 -14.827  0.00  0.00    +0.005 C 
ENDBRANCH  19  25
BRANCH  22  28
ATOM     28  O   UNL     1      35.974 -22.764 -14.974  0.00  0.00    -0.506 OA
ATOM     29  H   UNL     1      36.674 -22.399 -14.470  0.00  0.00    +0.292 HD
ENDBRANCH  22  28
ENDBRANCH  18  21
ENDBRANCH   1  18
TORSDOF 5
ENDMDL
MODEL 8
REMARK VINA RESULT:      -9.8      2.776      9.099
REMARK  Name = 447271
REMARK  5 active torsions:
REMARK  status: ('A' for Active; 'I' for Inactive)
REMARK    1  A    between atoms: C_1  and  O_18
REMARK    2  A    between atoms: C_4  and  N_11
REMARK    3  A    between atoms: O_18  and  C_21
REMARK    4  A    between atoms: C_19  and  C_25
REMARK    5  A    between atoms: C_22  and  O_28
REMARK                            x       y       z     vdW  Elec       q    Type
REMARK                         _______ _______ _______ _____ _____    ______ ____
ROOT
ATOM      1  C   UNL     1      34.728 -16.562 -22.694  0.00  0.00    +0.137 C 
ATOM      2  C   UNL     1      34.623 -15.768 -21.551  0.00  0.00    +0.014 C 
ATOM      3  C   UNL     1      34.280 -16.078 -23.923  0.00  0.00    +0.014 C 
ATOM      4  C   UNL     1      33.621 -14.007 -22.867  0.00  0.00    +0.078 C 
ATOM      5  C   UNL     1      34.070 -14.491 -21.639  0.00  0.00    +0.016 C 
ATOM      6  C   UNL     1      33.726 -14.800 -24.010  0.00  0.00    +0.016 C 
ATOM      7  C   UNL     1      35.096 -16.270 -20.227  0.00  0.00    +0.034 C 
ATOM      8  C   UNL     1      34.385 -16.912 -25.157  0.00  0.00    +0.034 C 
ENDROOT
BRANCH   4  11
ATOM      9  O   UNL     1      34.304 -11.828 -24.751  0.00  0.00    -0.250 OA
ATOM     10  O   UNL     1      31.212  -9.131 -22.712  0.00  0.00    -0.268 OA
ATOM     11  N   UNL     1      33.048 -12.685 -22.956  0.00  0.00    -0.142 N 
ATOM     12  N   UNL     1      32.030 -12.476 -22.060  0.00  0.00    -0.164 NA
ATOM     13  N   UNL     1      32.813 -10.469 -23.741  0.00  0.00    -0.233 N 
ATOM     14  C   UNL     1      33.458 -11.694 -23.864  0.00  0.00    +0.333 C 
ATOM     15  C   UNL     1      31.446 -11.331 -21.998  0.00  0.00    +0.176 C 
ATOM     16  C   UNL     1      31.811 -10.184 -22.855  0.00  0.00    +0.274 C 
ATOM     17  H   UNL     1      33.101  -9.744 -24.343  0.00  0.00    +0.160 HD
ENDBRANCH   4  11
BRANCH   1  18
ATOM     18  O   UNL     1      35.268 -17.812 -22.609  0.00  0.00    -0.454 OA
BRANCH  18  21
ATOM     19  C   UNL     1      34.719 -20.650 -20.368  0.00  0.00    +0.014 C 
ATOM     20  C   UNL     1      35.368 -19.718 -21.177  0.00  0.00    +0.036 C 
ATOM     21  C   UNL     1      34.624 -18.735 -21.807  0.00  0.00    +0.145 C 
ATOM     22  C   UNL     1      33.335 -20.585 -20.200  0.00  0.00    +0.130 C 
ATOM     23  C   UNL     1      33.251 -18.655 -21.653  0.00  0.00    +0.041 C 
ATOM     24  C   UNL     1      32.602 -19.587 -20.843  0.00  0.00    +0.039 C 
BRANCH  19  25
ATOM     25  C   UNL     1      35.520 -21.711 -19.688  0.00  0.00    +0.025 C 
ATOM     26  C   UNL     1      34.977 -22.050 -18.287  0.00  0.00    +0.005 C 
ATOM     27  C   UNL     1      37.014 -21.351 -19.597  0.00  0.00    +0.005 C 
ENDBRANCH  19  25
BRANCH  22  28
ATOM     28  O   UNL     1      32.685 -21.487 -19.413  0.00  0.00    -0.506 OA
ATOM     29  H   UNL     1      32.463 -22.330 -19.754  0.00  0.00    +0.292 HD
ENDBRANCH  22  28
ENDBRANCH  18  21
ENDBRANCH   1  18
TORSDOF 5
ENDMDL
MODEL 9
REMARK VINA RESULT:      -9.7      4.376      7.743
REMARK  Name = 447271
REMARK  5 active torsions:
REMARK  status: ('A' for Active; 'I' for Inactive)
REMARK    1  A    between atoms: C_1  and  O_18
REMARK    2  A    between atoms: C_4  and  N_11
REMARK    3  A    between atoms: O_18  and  C_21
REMARK    4  A    between atoms: C_19  and  C_25
REMARK    5  A    between atoms: C_22  and  O_28
REMARK                            x       y       z     vdW  Elec       q    Type
REMARK                         _______ _______ _______ _____ _____    ______ ____
ROOT
ATOM      1  C   UNL     1      35.034 -19.934 -21.119  0.00  0.00    +0.137 C 
ATOM      2  C   UNL     1      36.231 -20.255 -20.478  0.00  0.00    +0.014 C 
ATOM      3  C   UNL     1      33.824 -20.418 -20.621  0.00  0.00    +0.014 C 
ATOM      4  C   UNL     1      35.009 -21.546 -18.844  0.00  0.00    +0.078 C 
ATOM      5  C   UNL     1      36.218 -21.061 -19.341  0.00  0.00    +0.016 C 
ATOM      6  C   UNL     1      33.812 -21.225 -19.484  0.00  0.00    +0.016 C 
ATOM      7  C   UNL     1      37.536 -19.746 -20.997  0.00  0.00    +0.034 C 
ATOM      8  C   UNL     1      32.533 -20.084 -21.293  0.00  0.00    +0.034 C 
ENDROOT
BRANCH   4  11
ATOM      9  O   UNL     1      32.806 -23.231 -17.806  0.00  0.00    -0.250 OA
ATOM     10  O   UNL     1      35.441 -24.445 -14.259  0.00  0.00    -0.268 OA
ATOM     11  N   UNL     1      34.995 -22.382 -17.665  0.00  0.00    -0.142 N 
ATOM     12  N   UNL     1      36.196 -22.395 -17.000  0.00  0.00    -0.164 NA
ATOM     13  N   UNL     1      34.071 -23.817 -16.031  0.00  0.00    -0.233 N 
ATOM     14  C   UNL     1      33.889 -23.126 -17.224  0.00  0.00    +0.333 C 
ATOM     15  C   UNL     1      36.325 -23.068 -15.911  0.00  0.00    +0.176 C 
ATOM     16  C   UNL     1      35.229 -23.853 -15.304  0.00  0.00    +0.274 C 
ATOM     17  H   UNL     1      33.303 -24.322 -15.680  0.00  0.00    +0.160 HD
ENDBRANCH   4  11
BRANCH   1  18
ATOM     18  O   UNL     1      35.047 -19.146 -22.233  0.00  0.00    -0.454 OA
BRANCH  18  21
ATOM     19  C   UNL     1      34.251 -15.658 -22.994  0.00  0.00    +0.014 C 
ATOM     20  C   UNL     1      34.485 -17.022 -23.164  0.00  0.00    +0.036 C 
ATOM     21  C   UNL     1      34.815 -17.793 -22.064  0.00  0.00    +0.145 C 
ATOM     22  C   UNL     1      34.351 -15.086 -21.725  0.00  0.00    +0.130 C 
ATOM     23  C   UNL     1      34.920 -17.243 -20.798  0.00  0.00    +0.041 C 
ATOM     24  C   UNL     1      34.686 -15.879 -20.627  0.00  0.00    +0.039 C 
BRANCH  19  25
ATOM     25  C   UNL     1      33.895 -14.824 -24.180  0.00  0.00    +0.025 C 
ATOM     26  C   UNL     1      32.639 -13.966 -23.939  0.00  0.00    +0.005 C 
ATOM     27  C   UNL     1      33.717 -15.665 -25.457  0.00  0.00    +0.005 C 
ENDBRANCH  19  25
BRANCH  22  28
ATOM     28  O   UNL     1      34.126 -13.755 -21.541  0.00  0.00    -0.506 OA
ATOM     29  H   UNL     1      34.782 -13.131 -21.782  0.00  0.00    +0.292 HD
ENDBRANCH  22  28
ENDBRANCH  18  21
ENDBRANCH   1  18
TORSDOF 5
ENDMDL
