MODEL 1
REMARK VINA RESULT:      -7.4      0.000      0.000
REMARK  Name = 445211
REMARK  3 active torsions:
REMARK  status: ('A' for Active; 'I' for Inactive)
REMARK    1  A    between atoms: N_1  and  C_13
REMARK    2  A    between atoms: C_13  and  C_14
REMARK    3  A    between atoms: C_14  and  O_16
REMARK                            x       y       z     vdW  Elec       q    Type
REMARK                         _______ _______ _______ _____ _____    ______ ____
ROOT
ATOM      1  N   UNL     1      34.779 -19.449 -21.136  0.00  0.00    -0.269 N 
ATOM      2  N   UNL     1      32.904 -20.509 -20.560  0.00  0.00    -0.242 NA
ATOM      3  N   UNL     1      36.368 -20.610 -19.713  0.00  0.00    -0.228 NA
ATOM      4  N   UNL     1      35.267 -22.321 -18.366  0.00  0.00    -0.229 NA
ATOM      5  C   UNL     1      35.140 -20.375 -20.199  0.00  0.00    +0.151 C 
ATOM      6  C   UNL     1      33.965 -21.021 -19.856  0.00  0.00    +0.140 C 
ATOM      7  C   UNL     1      33.426 -19.568 -21.319  0.00  0.00    +0.221 C 
ATOM      8  C   UNL     1      34.057 -22.029 -18.901  0.00  0.00    +0.143 C 
ATOM      9  C   UNL     1      36.332 -21.604 -18.799  0.00  0.00    +0.253 C 
ATOM     10  N   UNL     1      32.915 -22.739 -18.493  0.00  0.00    -0.342 N 
ATOM     11  H   UNL     1      32.992 -23.451 -17.817  0.00  0.00    +0.144 HD
ATOM     12  H   UNL     1      32.036 -22.525 -18.885  0.00  0.00    +0.144 HD
ENDROOT
BRANCH   1  13
ATOM     13  C   UNL     1      35.647 -18.516 -21.812  0.00  0.00    +0.123 C 
BRANCH  13  14
ATOM     14  C   UNL     1      34.941 -17.207 -22.175  0.00  0.00    +0.130 C 
ATOM     15  C   UNL     1      34.817 -16.302 -20.957  0.00  0.00    +0.034 C 
BRANCH  14  16
ATOM     16  O   UNL     1      35.698 -16.501 -23.154  0.00  0.00    -0.383 OA
ATOM     17  H   UNL     1      35.345 -16.694 -24.038  0.00  0.00    +0.210 HD
ENDBRANCH  14  16
ENDBRANCH  13  14
ENDBRANCH   1  13
TORSDOF 3
ENDMDL
MODEL 2
REMARK VINA RESULT:      -7.4      4.012      6.698
REMARK  Name = 445211
REMARK  3 active torsions:
REMARK  status: ('A' for Active; 'I' for Inactive)
REMARK    1  A    between atoms: N_1  and  C_13
REMARK    2  A    between atoms: C_13  and  C_14
REMARK    3  A    between atoms: C_14  and  O_16
REMARK                            x       y       z     vdW  Elec       q    Type
REMARK                         _______ _______ _______ _____ _____    ______ ____
ROOT
ATOM      1  N   UNL     1      35.045 -17.465 -23.846  0.00  0.00    -0.269 N 
ATOM      2  N   UNL     1      33.843 -17.222 -25.708  0.00  0.00    -0.242 NA
ATOM      3  N   UNL     1      34.826 -15.233 -22.914  0.00  0.00    -0.228 NA
ATOM      4  N   UNL     1      33.466 -13.802 -24.349  0.00  0.00    -0.229 NA
ATOM      5  C   UNL     1      34.597 -16.175 -23.842  0.00  0.00    +0.151 C 
ATOM      6  C   UNL     1      33.854 -16.044 -25.003  0.00  0.00    +0.140 C 
ATOM      7  C   UNL     1      34.566 -18.053 -24.987  0.00  0.00    +0.221 C 
ATOM      8  C   UNL     1      33.276 -14.802 -25.244  0.00  0.00    +0.143 C 
ATOM      9  C   UNL     1      34.218 -14.076 -23.256  0.00  0.00    +0.253 C 
ATOM     10  N   UNL     1      32.505 -14.580 -26.398  0.00  0.00    -0.342 N 
ATOM     11  H   UNL     1      32.100 -13.696 -26.558  0.00  0.00    +0.144 HD
ATOM     12  H   UNL     1      32.368 -15.308 -27.046  0.00  0.00    +0.144 HD
ENDROOT
BRANCH   1  13
ATOM     13  C   UNL     1      35.866 -18.100 -22.845  0.00  0.00    +0.123 C 
BRANCH  13  14
ATOM     14  C   UNL     1      35.098 -18.403 -21.555  0.00  0.00    +0.130 C 
ATOM     15  C   UNL     1      35.597 -19.692 -20.917  0.00  0.00    +0.034 C 
BRANCH  14  16
ATOM     16  O   UNL     1      35.301 -17.355 -20.611  0.00  0.00    -0.383 OA
ATOM     17  H   UNL     1      36.024 -16.782 -20.914  0.00  0.00    +0.210 HD
ENDBRANCH  14  16
ENDBRANCH  13  14
ENDBRANCH   1  13
TORSDOF 3
ENDMDL
MODEL 3
REMARK VINA RESULT:      -6.9      6.952      8.286
REMARK  Name = 445211
REMARK  3 active torsions:
REMARK  status: ('A' for Active; 'I' for Inactive)
REMARK    1  A    between atoms: N_1  and  C_13
REMARK    2  A    between atoms: C_13  and  C_14
REMARK    3  A    between atoms: C_14  and  O_16
REMARK                            x       y       z     vdW  Elec       q    Type
REMARK                         _______ _______ _______ _____ _____    ______ ____
ROOT
ATOM      1  N   UNL     1      35.798 -23.795 -15.367  0.00  0.00    -0.269 N 
ATOM      2  N   UNL     1      37.860 -23.233 -14.733  0.00  0.00    -0.242 NA
ATOM      3  N   UNL     1      36.009 -26.215 -15.376  0.00  0.00    -0.228 NA
ATOM      4  N   UNL     1      38.255 -26.911 -14.725  0.00  0.00    -0.229 NA
ATOM      5  C   UNL     1      36.475 -24.969 -15.199  0.00  0.00    +0.151 C 
ATOM      6  C   UNL     1      37.750 -24.600 -14.806  0.00  0.00    +0.140 C 
ATOM      7  C   UNL     1      36.672 -22.781 -15.076  0.00  0.00    +0.221 C 
ATOM      8  C   UNL     1      38.657 -25.627 -14.565  0.00  0.00    +0.143 C 
ATOM      9  C   UNL     1      36.975 -27.122 -15.114  0.00  0.00    +0.253 C 
ATOM     10  N   UNL     1      39.973 -25.344 -14.161  0.00  0.00    -0.342 N 
ATOM     11  H   UNL     1      40.606 -26.079 -13.993  0.00  0.00    +0.144 HD
ATOM     12  H   UNL     1      40.262 -24.409 -14.045  0.00  0.00    +0.144 HD
ENDROOT
BRANCH   1  13
ATOM     13  C   UNL     1      34.423 -23.639 -15.774  0.00  0.00    +0.123 C 
BRANCH  13  14
ATOM     14  C   UNL     1      33.452 -23.643 -14.589  0.00  0.00    +0.130 C 
ATOM     15  C   UNL     1      32.064 -23.192 -15.024  0.00  0.00    +0.034 C 
BRANCH  14  16
ATOM     16  O   UNL     1      33.326 -24.963 -14.068  0.00  0.00    -0.383 OA
ATOM     17  H   UNL     1      32.779 -25.496 -14.666  0.00  0.00    +0.210 HD
ENDBRANCH  14  16
ENDBRANCH  13  14
ENDBRANCH   1  13
TORSDOF 3
ENDMDL
MODEL 4
REMARK VINA RESULT:      -6.8      3.213      5.782
REMARK  Name = 445211
REMARK  3 active torsions:
REMARK  status: ('A' for Active; 'I' for Inactive)
REMARK    1  A    between atoms: N_1  and  C_13
REMARK    2  A    between atoms: C_13  and  C_14
REMARK    3  A    between atoms: C_14  and  O_16
REMARK                            x       y       z     vdW  Elec       q    Type
REMARK                         _______ _______ _______ _____ _____    ______ ____
ROOT
ATOM      1  N   UNL     1      35.611 -18.028 -21.998  0.00  0.00    -0.269 N 
ATOM      2  N   UNL     1      34.946 -17.287 -23.993  0.00  0.00    -0.242 NA
ATOM      3  N   UNL     1      34.987 -16.128 -20.619  0.00  0.00    -0.228 NA
ATOM      4  N   UNL     1      33.969 -14.358 -21.956  0.00  0.00    -0.229 NA
ATOM      5  C   UNL     1      35.087 -16.784 -21.785  0.00  0.00    +0.151 C 
ATOM      6  C   UNL     1      34.681 -16.343 -23.033  0.00  0.00    +0.140 C 
ATOM      7  C   UNL     1      35.504 -18.285 -23.339  0.00  0.00    +0.221 C 
ATOM      8  C   UNL     1      34.102 -15.079 -23.096  0.00  0.00    +0.143 C 
ATOM      9  C   UNL     1      34.413 -14.919 -20.805  0.00  0.00    +0.253 C 
ATOM     10  N   UNL     1      33.659 -14.552 -24.321  0.00  0.00    -0.342 N 
ATOM     11  H   UNL     1      33.251 -13.656 -24.353  0.00  0.00    +0.144 HD
ATOM     12  H   UNL     1      33.756 -15.078 -25.148  0.00  0.00    +0.144 HD
ENDROOT
BRANCH   1  13
ATOM     13  C   UNL     1      36.173 -18.912 -21.007  0.00  0.00    +0.123 C 
BRANCH  13  14
ATOM     14  C   UNL     1      35.372 -20.208 -20.850  0.00  0.00    +0.130 C 
ATOM     15  C   UNL     1      35.999 -21.107 -19.792  0.00  0.00    +0.034 C 
BRANCH  14  16
ATOM     16  O   UNL     1      34.045 -19.911 -20.423  0.00  0.00    -0.383 OA
ATOM     17  H   UNL     1      33.977 -18.967 -20.211  0.00  0.00    +0.210 HD
ENDBRANCH  14  16
ENDBRANCH  13  14
ENDBRANCH   1  13
TORSDOF 3
ENDMDL
MODEL 5
REMARK VINA RESULT:      -6.7      6.358      7.960
REMARK  Name = 445211
REMARK  3 active torsions:
REMARK  status: ('A' for Active; 'I' for Inactive)
REMARK    1  A    between atoms: N_1  and  C_13
REMARK    2  A    between atoms: C_13  and  C_14
REMARK    3  A    between atoms: C_14  and  O_16
REMARK                            x       y       z     vdW  Elec       q    Type
REMARK                         _______ _______ _______ _____ _____    ______ ____
ROOT
ATOM      1  N   UNL     1      30.693 -23.433 -15.419  0.00  0.00    -0.269 N 
ATOM      2  N   UNL     1      31.454 -24.203 -13.470  0.00  0.00    -0.242 NA
ATOM      3  N   UNL     1      32.786 -23.237 -16.635  0.00  0.00    -0.228 NA
ATOM      4  N   UNL     1      34.680 -23.930 -15.260  0.00  0.00    -0.229 NA
ATOM      5  C   UNL     1      32.048 -23.536 -15.555  0.00  0.00    +0.151 C 
ATOM      6  C   UNL     1      32.501 -24.015 -14.337  0.00  0.00    +0.140 C 
ATOM      7  C   UNL     1      30.385 -23.846 -14.149  0.00  0.00    +0.221 C 
ATOM      8  C   UNL     1      33.872 -24.212 -14.209  0.00  0.00    +0.143 C 
ATOM      9  C   UNL     1      34.095 -23.467 -16.391  0.00  0.00    +0.253 C 
ATOM     10  N   UNL     1      34.419 -24.697 -13.008  0.00  0.00    -0.342 N 
ATOM     11  H   UNL     1      35.391 -24.832 -12.929  0.00  0.00    +0.144 HD
ATOM     12  H   UNL     1      33.830 -24.901 -12.246  0.00  0.00    +0.144 HD
ENDROOT
BRANCH   1  13
ATOM     13  C   UNL     1      29.754 -22.979 -16.415  0.00  0.00    +0.123 C 
BRANCH  13  14
ATOM     14  C   UNL     1      28.341 -23.523 -16.186  0.00  0.00    +0.130 C 
ATOM     15  C   UNL     1      27.373 -22.394 -15.859  0.00  0.00    +0.034 C 
BRANCH  14  16
ATOM     16  O   UNL     1      27.867 -24.160 -17.369  0.00  0.00    -0.383 OA
ATOM     17  H   UNL     1      26.901 -24.076 -17.417  0.00  0.00    +0.210 HD
ENDBRANCH  14  16
ENDBRANCH  13  14
ENDBRANCH   1  13
TORSDOF 3
ENDMDL
MODEL 6
REMARK VINA RESULT:      -6.7      1.299      2.607
REMARK  Name = 445211
REMARK  3 active torsions:
REMARK  status: ('A' for Active; 'I' for Inactive)
REMARK    1  A    between atoms: N_1  and  C_13
REMARK    2  A    between atoms: C_13  and  C_14
REMARK    3  A    between atoms: C_14  and  O_16
REMARK                            x       y       z     vdW  Elec       q    Type
REMARK                         _______ _______ _______ _____ _____    ______ ____
ROOT
ATOM      1  N   UNL     1      35.082 -18.751 -21.630  0.00  0.00    -0.269 N 
ATOM      2  N   UNL     1      36.773 -19.605 -20.455  0.00  0.00    -0.242 NA
ATOM      3  N   UNL     1      33.269 -20.156 -20.834  0.00  0.00    -0.228 NA
ATOM      4  N   UNL     1      34.061 -21.783 -19.196  0.00  0.00    -0.229 NA
ATOM      5  C   UNL     1      34.547 -19.754 -20.873  0.00  0.00    +0.151 C 
ATOM      6  C   UNL     1      35.611 -20.270 -20.152  0.00  0.00    +0.140 C 
ATOM      7  C   UNL     1      36.421 -18.700 -21.345  0.00  0.00    +0.221 C 
ATOM      8  C   UNL     1      35.332 -21.324 -19.288  0.00  0.00    +0.143 C 
ATOM      9  C   UNL     1      33.121 -21.179 -19.964  0.00  0.00    +0.253 C 
ATOM     10  N   UNL     1      36.351 -21.908 -18.515  0.00  0.00    -0.342 N 
ATOM     11  H   UNL     1      36.142 -22.653 -17.906  0.00  0.00    +0.144 HD
ATOM     12  H   UNL     1      37.274 -21.572 -18.583  0.00  0.00    +0.144 HD
ENDROOT
BRANCH   1  13
ATOM     13  C   UNL     1      34.380 -17.898 -22.559  0.00  0.00    +0.123 C 
BRANCH  13  14
ATOM     14  C   UNL     1      35.251 -17.473 -23.744  0.00  0.00    +0.130 C 
ATOM     15  C   UNL     1      34.486 -17.606 -25.054  0.00  0.00    +0.034 C 
BRANCH  14  16
ATOM     16  O   UNL     1      35.624 -16.103 -23.607  0.00  0.00    -0.383 OA
ATOM     17  H   UNL     1      36.587 -16.021 -23.691  0.00  0.00    +0.210 HD
ENDBRANCH  14  16
ENDBRANCH  13  14
ENDBRANCH   1  13
TORSDOF 3
ENDMDL
MODEL 7
REMARK VINA RESULT:      -6.7      3.410      6.150
REMARK  Name = 445211
REMARK  3 active torsions:
REMARK  status: ('A' for Active; 'I' for Inactive)
REMARK    1  A    between atoms: N_1  and  C_13
REMARK    2  A    between atoms: C_13  and  C_14
REMARK    3  A    between atoms: C_14  and  O_16
REMARK                            x       y       z     vdW  Elec       q    Type
REMARK                         _______ _______ _______ _____ _____    ______ ____
ROOT
ATOM      1  N   UNL     1      35.063 -17.154 -21.906  0.00  0.00    -0.269 N 
ATOM      2  N   UNL     1      34.113 -15.162 -22.219  0.00  0.00    -0.242 NA
ATOM      3  N   UNL     1      35.034 -17.992 -24.186  0.00  0.00    -0.228 NA
ATOM      4  N   UNL     1      34.035 -16.372 -25.714  0.00  0.00    -0.229 NA
ATOM      5  C   UNL     1      34.789 -17.071 -23.242  0.00  0.00    +0.151 C 
ATOM      6  C   UNL     1      34.201 -15.829 -23.415  0.00  0.00    +0.140 C 
ATOM      7  C   UNL     1      34.638 -15.983 -21.335  0.00  0.00    +0.221 C 
ATOM      8  C   UNL     1      33.818 -15.489 -24.709  0.00  0.00    +0.143 C 
ATOM      9  C   UNL     1      34.621 -17.551 -25.394  0.00  0.00    +0.253 C 
ATOM     10  N   UNL     1      33.215 -14.248 -24.977  0.00  0.00    -0.342 N 
ATOM     11  H   UNL     1      32.949 -14.018 -25.897  0.00  0.00    +0.144 HD
ATOM     12  H   UNL     1      33.059 -13.607 -24.245  0.00  0.00    +0.144 HD
ENDROOT
BRANCH   1  13
ATOM     13  C   UNL     1      35.682 -18.259 -21.217  0.00  0.00    +0.123 C 
BRANCH  13  14
ATOM     14  C   UNL     1      34.824 -19.527 -21.242  0.00  0.00    +0.130 C 
ATOM     15  C   UNL     1      35.370 -20.571 -20.278  0.00  0.00    +0.034 C 
BRANCH  14  16
ATOM     16  O   UNL     1      33.493 -19.223 -20.831  0.00  0.00    -0.383 OA
ATOM     17  H   UNL     1      33.379 -18.260 -20.791  0.00  0.00    +0.210 HD
ENDBRANCH  14  16
ENDBRANCH  13  14
ENDBRANCH   1  13
TORSDOF 3
ENDMDL
MODEL 8
REMARK VINA RESULT:      -6.6      3.364      5.189
REMARK  Name = 445211
REMARK  3 active torsions:
REMARK  status: ('A' for Active; 'I' for Inactive)
REMARK    1  A    between atoms: N_1  and  C_13
REMARK    2  A    between atoms: C_13  and  C_14
REMARK    3  A    between atoms: C_14  and  O_16
REMARK                            x       y       z     vdW  Elec       q    Type
REMARK                         _______ _______ _______ _____ _____    ______ ____
ROOT
ATOM      1  N   UNL     1      34.350 -15.112 -22.710  0.00  0.00    -0.269 N 
ATOM      2  N   UNL     1      34.930 -15.998 -20.748  0.00  0.00    -0.242 NA
ATOM      3  N   UNL     1      34.675 -17.041 -24.150  0.00  0.00    -0.228 NA
ATOM      4  N   UNL     1      35.446 -18.976 -22.880  0.00  0.00    -0.229 NA
ATOM      5  C   UNL     1      34.685 -16.411 -22.966  0.00  0.00    +0.151 C 
ATOM      6  C   UNL     1      35.041 -16.943 -21.738  0.00  0.00    +0.140 C 
ATOM      7  C   UNL     1      34.513 -14.912 -21.365  0.00  0.00    +0.221 C 
ATOM      8  C   UNL     1      35.433 -18.278 -21.719  0.00  0.00    +0.143 C 
ATOM      9  C   UNL     1      35.072 -18.324 -24.007  0.00  0.00    +0.253 C 
ATOM     10  N   UNL     1      35.810 -18.900 -20.516  0.00  0.00    -0.342 N 
ATOM     11  H   UNL     1      36.084 -19.845 -20.516  0.00  0.00    +0.144 HD
ATOM     12  H   UNL     1      35.798 -18.390 -19.674  0.00  0.00    +0.144 HD
ENDROOT
BRANCH   1  13
ATOM     13  C   UNL     1      33.906 -14.128 -23.666  0.00  0.00    +0.123 C 
BRANCH  13  14
ATOM     14  C   UNL     1      33.248 -12.914 -23.004  0.00  0.00    +0.130 C 
ATOM     15  C   UNL     1      33.472 -11.657 -23.832  0.00  0.00    +0.034 C 
BRANCH  14  16
ATOM     16  O   UNL     1      31.840 -13.116 -22.908  0.00  0.00    -0.383 OA
ATOM     17  H   UNL     1      31.556 -13.742 -23.592  0.00  0.00    +0.210 HD
ENDBRANCH  14  16
ENDBRANCH  13  14
ENDBRANCH   1  13
TORSDOF 3
ENDMDL
MODEL 9
REMARK VINA RESULT:      -6.6      7.187      8.859
REMARK  Name = 445211
REMARK  3 active torsions:
REMARK  status: ('A' for Active; 'I' for Inactive)
REMARK    1  A    between atoms: N_1  and  C_13
REMARK    2  A    between atoms: C_13  and  C_14
REMARK    3  A    between atoms: C_14  and  O_16
REMARK                            x       y       z     vdW  Elec       q    Type
REMARK                         _______ _______ _______ _____ _____    ______ ____
ROOT
ATOM      1  N   UNL     1      35.114 -24.357 -13.985  0.00  0.00    -0.269 N 
ATOM      2  N   UNL     1      36.540 -24.079 -15.676  0.00  0.00    -0.242 NA
ATOM      3  N   UNL     1      36.537 -25.569 -12.434  0.00  0.00    -0.228 NA
ATOM      4  N   UNL     1      38.766 -25.921 -13.365  0.00  0.00    -0.229 NA
ATOM      5  C   UNL     1      36.283 -24.945 -13.595  0.00  0.00    +0.151 C 
ATOM      6  C   UNL     1      37.154 -24.762 -14.656  0.00  0.00    +0.140 C 
ATOM      7  C   UNL     1      35.318 -23.852 -15.242  0.00  0.00    +0.221 C 
ATOM      8  C   UNL     1      38.438 -25.278 -14.512  0.00  0.00    +0.143 C 
ATOM      9  C   UNL     1      37.809 -26.024 -12.411  0.00  0.00    +0.253 C 
ATOM     10  N   UNL     1      39.388 -25.136 -15.538  0.00  0.00    -0.342 N 
ATOM     11  H   UNL     1      40.294 -25.505 -15.424  0.00  0.00    +0.144 HD
ATOM     12  H   UNL     1      39.148 -24.668 -16.370  0.00  0.00    +0.144 HD
ENDROOT
BRANCH   1  13
ATOM     13  C   UNL     1      33.890 -24.277 -13.228  0.00  0.00    +0.123 C 
BRANCH  13  14
ATOM     14  C   UNL     1      32.666 -24.009 -14.109  0.00  0.00    +0.130 C 
ATOM     15  C   UNL     1      31.559 -25.014 -13.819  0.00  0.00    +0.034 C 
BRANCH  14  16
ATOM     16  O   UNL     1      32.144 -22.711 -13.834  0.00  0.00    -0.383 OA
ATOM     17  H   UNL     1      32.562 -22.357 -13.033  0.00  0.00    +0.210 HD
ENDBRANCH  14  16
ENDBRANCH  13  14
ENDBRANCH   1  13
TORSDOF 3
ENDMDL
