MODEL 1
REMARK VINA RESULT:      -6.7      0.000      0.000
REMARK  Name = 12162152
REMARK  6 active torsions:
REMARK  status: ('A' for Active; 'I' for Inactive)
REMARK    1  A    between atoms: C_1  and  C_2
REMARK    2  A    between atoms: C_1  and  C_8
REMARK    3  A    between atoms: C_1  and  C_12
REMARK    4  A    between atoms: C_1  and  C_13
REMARK    5  A    between atoms: C_13  and  C_14
REMARK    6  A    between atoms: C_14  and  N_16
REMARK                            x       y       z     vdW  Elec       q    Type
REMARK                         _______ _______ _______ _____ _____    ______ ____
ROOT
ATOM      1  C   UNL     1      32.334  -8.708 -22.786  0.00  0.00    +0.096 C 
ENDROOT
BRANCH   1   2
ATOM      2  C   UNL     1      31.959  -9.527 -21.529  0.00  0.00    -0.010 C 
ATOM      3  C   UNL     1      31.248 -10.683 -21.703  0.00  0.00    -0.003 C 
ATOM      4  C   UNL     1      32.358  -9.052 -20.310  0.00  0.00    -0.003 C 
ATOM      5  C   UNL     1      30.910 -11.422 -20.570  0.00  0.00    -0.000 C 
ATOM      6  C   UNL     1      32.020  -9.791 -19.176  0.00  0.00    -0.000 C 
ATOM      7  C   UNL     1      31.296 -10.976 -19.306  0.00  0.00    -0.000 C 
ENDBRANCH   1   2
BRANCH   1   8
ATOM      8  C   UNL     1      31.172  -7.662 -23.086  0.00  0.00    +0.017 C 
ATOM      9  C   UNL     1      31.225  -6.416 -22.184  0.00  0.00    +0.001 C 
ATOM     10  C   UNL     1      31.104  -7.201 -24.553  0.00  0.00    +0.001 C 
ENDBRANCH   1   8
BRANCH   1  12
ATOM     11  N   UNL     1      34.600  -7.357 -22.520  0.00  0.00    -0.196 NA
ATOM     12  C   UNL     1      33.604  -7.942 -22.630  0.00  0.00    +0.075 C 
ENDBRANCH   1  12
BRANCH   1  13
ATOM     13  C   UNL     1      32.504  -9.675 -24.018  0.00  0.00    -0.003 C 
BRANCH  13  14
ATOM     14  C   UNL     1      33.701 -10.661 -24.003  0.00  0.00    -0.057 C 
ATOM     15  C   UNL     1      34.830 -10.127 -24.888  0.00  0.00    -0.023 C 
BRANCH  14  16
ATOM     16  N   UNL     1      33.322 -11.994 -24.466  0.00  0.00    +0.385 N 
ATOM     17  C   UNL     1      33.855 -13.020 -23.569  0.00  0.00    -0.101 C 
ATOM     18  C   UNL     1      33.793 -12.215 -25.833  0.00  0.00    -0.101 C 
ATOM     19  H   UNL     1      32.303 -12.059 -24.461  0.00  0.00    -0.080 HD
ENDBRANCH  14  16
ENDBRANCH  13  14
ENDBRANCH   1  13
TORSDOF 6
ENDMDL
MODEL 2
REMARK VINA RESULT:      -6.5     14.011     16.576
REMARK  Name = 12162152
REMARK  6 active torsions:
REMARK  status: ('A' for Active; 'I' for Inactive)
REMARK    1  A    between atoms: C_1  and  C_2
REMARK    2  A    between atoms: C_1  and  C_8
REMARK    3  A    between atoms: C_1  and  C_12
REMARK    4  A    between atoms: C_1  and  C_13
REMARK    5  A    between atoms: C_13  and  C_14
REMARK    6  A    between atoms: C_14  and  N_16
REMARK                            x       y       z     vdW  Elec       q    Type
REMARK                         _______ _______ _______ _____ _____    ______ ____
ROOT
ATOM      1  C   UNL     1      35.005 -24.133 -14.299  0.00  0.00    +0.096 C 
ENDROOT
BRANCH   1   2
ATOM      2  C   UNL     1      33.462 -24.058 -14.232  0.00  0.00    -0.010 C 
ATOM      3  C   UNL     1      32.848 -22.960 -14.770  0.00  0.00    -0.003 C 
ATOM      4  C   UNL     1      32.792 -25.093 -13.638  0.00  0.00    -0.003 C 
ATOM      5  C   UNL     1      31.456 -22.891 -14.710  0.00  0.00    -0.000 C 
ATOM      6  C   UNL     1      31.401 -25.024 -13.578  0.00  0.00    -0.000 C 
ATOM      7  C   UNL     1      30.733 -23.924 -14.115  0.00  0.00    -0.000 C 
ENDBRANCH   1   2
BRANCH   1   8
ATOM      8  C   UNL     1      35.577 -24.317 -12.825  0.00  0.00    +0.017 C 
ATOM      9  C   UNL     1      36.477 -25.557 -12.671  0.00  0.00    +0.001 C 
ATOM     10  C   UNL     1      36.338 -23.092 -12.288  0.00  0.00    +0.001 C 
ENDBRANCH   1   8
BRANCH   1  12
ATOM     11  N   UNL     1      35.871 -26.161 -15.773  0.00  0.00    -0.196 NA
ATOM     12  C   UNL     1      35.501 -25.273 -15.124  0.00  0.00    +0.075 C 
ENDBRANCH   1  12
BRANCH   1  13
ATOM     13  C   UNL     1      35.574 -22.804 -14.923  0.00  0.00    -0.003 C 
BRANCH  13  14
ATOM     14  C   UNL     1      36.284 -22.898 -16.300  0.00  0.00    -0.057 C 
ATOM     15  C   UNL     1      37.756 -22.501 -16.158  0.00  0.00    -0.023 C 
BRANCH  14  16
ATOM     16  N   UNL     1      35.654 -22.043 -17.303  0.00  0.00    +0.385 N 
ATOM     17  C   UNL     1      34.533 -22.736 -17.939  0.00  0.00    -0.101 C 
ATOM     18  C   UNL     1      36.631 -21.625 -18.308  0.00  0.00    -0.101 C 
ATOM     19  H   UNL     1      35.295 -21.209 -16.836  0.00  0.00    -0.080 HD
ENDBRANCH  14  16
ENDBRANCH  13  14
ENDBRANCH   1  13
TORSDOF 6
ENDMDL
MODEL 3
REMARK VINA RESULT:      -6.4     13.916     16.685
REMARK  Name = 12162152
REMARK  6 active torsions:
REMARK  status: ('A' for Active; 'I' for Inactive)
REMARK    1  A    between atoms: C_1  and  C_2
REMARK    2  A    between atoms: C_1  and  C_8
REMARK    3  A    between atoms: C_1  and  C_12
REMARK    4  A    between atoms: C_1  and  C_13
REMARK    5  A    between atoms: C_13  and  C_14
REMARK    6  A    between atoms: C_14  and  N_16
REMARK                            x       y       z     vdW  Elec       q    Type
REMARK                         _______ _______ _______ _____ _____    ______ ____
ROOT
ATOM      1  C   UNL     1      34.750 -23.881 -15.346  0.00  0.00    +0.096 C 
ENDROOT
BRANCH   1   2
ATOM      2  C   UNL     1      35.005 -23.074 -16.640  0.00  0.00    -0.010 C 
ATOM      3  C   UNL     1      34.023 -23.059 -17.593  0.00  0.00    -0.003 C 
ATOM      4  C   UNL     1      36.200 -22.419 -16.765  0.00  0.00    -0.003 C 
ATOM      5  C   UNL     1      34.253 -22.332 -18.760  0.00  0.00    -0.000 C 
ATOM      6  C   UNL     1      36.430 -21.692 -17.932  0.00  0.00    -0.000 C 
ATOM      7  C   UNL     1      35.457 -21.648 -18.930  0.00  0.00    -0.000 C 
ENDBRANCH   1   2
BRANCH   1   8
ATOM      8  C   UNL     1      33.180 -24.015 -15.121  0.00  0.00    +0.017 C 
ATOM      9  C   UNL     1      32.805 -25.017 -14.015  0.00  0.00    +0.001 C 
ATOM     10  C   UNL     1      32.470 -22.680 -14.832  0.00  0.00    +0.001 C 
ENDBRANCH   1   8
BRANCH   1  12
ATOM     11  N   UNL     1      35.776 -26.325 -15.441  0.00  0.00    -0.196 NA
ATOM     12  C   UNL     1      35.321 -25.259 -15.392  0.00  0.00    +0.075 C 
ENDBRANCH   1  12
BRANCH   1  13
ATOM     13  C   UNL     1      35.397 -23.134 -14.119  0.00  0.00    -0.003 C 
BRANCH  13  14
ATOM     14  C   UNL     1      36.140 -23.991 -13.061  0.00  0.00    -0.057 C 
ATOM     15  C   UNL     1      35.443 -23.866 -11.703  0.00  0.00    -0.023 C 
BRANCH  14  16
ATOM     16  N   UNL     1      37.539 -23.596 -12.917  0.00  0.00    +0.385 N 
ATOM     17  C   UNL     1      38.403 -24.776 -12.860  0.00  0.00    -0.101 C 
ATOM     18  C   UNL     1      37.719 -22.774 -11.721  0.00  0.00    -0.101 C 
ATOM     19  H   UNL     1      37.802 -23.042 -13.732  0.00  0.00    -0.080 HD
ENDBRANCH  14  16
ENDBRANCH  13  14
ENDBRANCH   1  13
TORSDOF 6
ENDMDL
MODEL 4
REMARK VINA RESULT:      -6.4      2.317      4.782
REMARK  Name = 12162152
REMARK  6 active torsions:
REMARK  status: ('A' for Active; 'I' for Inactive)
REMARK    1  A    between atoms: C_1  and  C_2
REMARK    2  A    between atoms: C_1  and  C_8
REMARK    3  A    between atoms: C_1  and  C_12
REMARK    4  A    between atoms: C_1  and  C_13
REMARK    5  A    between atoms: C_13  and  C_14
REMARK    6  A    between atoms: C_14  and  N_16
REMARK                            x       y       z     vdW  Elec       q    Type
REMARK                         _______ _______ _______ _____ _____    ______ ____
ROOT
ATOM      1  C   UNL     1      32.625  -7.434 -23.279  0.00  0.00    +0.096 C 
ENDROOT
BRANCH   1   2
ATOM      2  C   UNL     1      33.118  -6.547 -24.446  0.00  0.00    -0.010 C 
ATOM      3  C   UNL     1      32.233  -5.661 -24.999  0.00  0.00    -0.003 C 
ATOM      4  C   UNL     1      34.411  -6.696 -24.866  0.00  0.00    -0.003 C 
ATOM      5  C   UNL     1      32.677  -4.861 -26.051  0.00  0.00    -0.000 C 
ATOM      6  C   UNL     1      34.855  -5.897 -25.919  0.00  0.00    -0.000 C 
ATOM      7  C   UNL     1      33.988  -4.979 -26.511  0.00  0.00    -0.000 C 
ENDBRANCH   1   2
BRANCH   1   8
ATOM      8  C   UNL     1      32.596  -6.564 -21.946  0.00  0.00    +0.017 C 
ATOM      9  C   UNL     1      31.312  -5.731 -21.789  0.00  0.00    +0.001 C 
ATOM     10  C   UNL     1      32.809  -7.380 -20.658  0.00  0.00    +0.001 C 
ENDBRANCH   1   8
BRANCH   1  12
ATOM     11  N   UNL     1      30.179  -8.385 -23.662  0.00  0.00    -0.196 NA
ATOM     12  C   UNL     1      31.253  -7.978 -23.496  0.00  0.00    +0.075 C 
ENDBRANCH   1  12
BRANCH   1  13
ATOM     13  C   UNL     1      33.602  -8.654 -23.092  0.00  0.00    -0.003 C 
BRANCH  13  14
ATOM     14  C   UNL     1      33.164 -10.027 -23.667  0.00  0.00    -0.057 C 
ATOM     15  C   UNL     1      32.358 -10.800 -22.619  0.00  0.00    -0.023 C 
BRANCH  14  16
ATOM     16  N   UNL     1      34.304 -10.838 -24.085  0.00  0.00    +0.385 N 
ATOM     17  C   UNL     1      35.050 -10.168 -25.150  0.00  0.00    -0.101 C 
ATOM     18  C   UNL     1      33.859 -12.160 -24.527  0.00  0.00    -0.101 C 
ATOM     19  H   UNL     1      34.924 -10.958 -23.283  0.00  0.00    -0.080 HD
ENDBRANCH  14  16
ENDBRANCH  13  14
ENDBRANCH   1  13
TORSDOF 6
ENDMDL
MODEL 5
REMARK VINA RESULT:      -6.2      6.944      9.762
REMARK  Name = 12162152
REMARK  6 active torsions:
REMARK  status: ('A' for Active; 'I' for Inactive)
REMARK    1  A    between atoms: C_1  and  C_2
REMARK    2  A    between atoms: C_1  and  C_8
REMARK    3  A    between atoms: C_1  and  C_12
REMARK    4  A    between atoms: C_1  and  C_13
REMARK    5  A    between atoms: C_13  and  C_14
REMARK    6  A    between atoms: C_14  and  N_16
REMARK                            x       y       z     vdW  Elec       q    Type
REMARK                         _______ _______ _______ _____ _____    ______ ____
ROOT
ATOM      1  C   UNL     1      34.857 -18.452 -22.275  0.00  0.00    +0.096 C 
ENDROOT
BRANCH   1   2
ATOM      2  C   UNL     1      34.199 -17.256 -21.546  0.00  0.00    -0.010 C 
ATOM      3  C   UNL     1      32.850 -17.302 -21.324  0.00  0.00    -0.003 C 
ATOM      4  C   UNL     1      35.002 -16.216 -21.163  0.00  0.00    -0.003 C 
ATOM      5  C   UNL     1      32.257 -16.225 -20.666  0.00  0.00    -0.000 C 
ATOM      6  C   UNL     1      34.409 -15.139 -20.506  0.00  0.00    -0.000 C 
ATOM      7  C   UNL     1      33.036 -15.143 -20.257  0.00  0.00    -0.000 C 
ENDBRANCH   1   2
BRANCH   1   8
ATOM      8  C   UNL     1      34.447 -18.407 -23.812  0.00  0.00    +0.017 C 
ATOM      9  C   UNL     1      34.973 -17.161 -24.548  0.00  0.00    +0.001 C 
ATOM     10  C   UNL     1      34.862 -19.656 -24.611  0.00  0.00    +0.001 C 
ENDBRANCH   1   8
BRANCH   1  12
ATOM     11  N   UNL     1      37.505 -18.440 -22.141  0.00  0.00    -0.196 NA
ATOM     12  C   UNL     1      36.347 -18.435 -22.202  0.00  0.00    +0.075 C 
ENDBRANCH   1  12
BRANCH   1  13
ATOM     13  C   UNL     1      34.359 -19.802 -21.635  0.00  0.00    -0.003 C 
BRANCH  13  14
ATOM     14  C   UNL     1      34.986 -20.236 -20.285  0.00  0.00    -0.057 C 
ATOM     15  C   UNL     1      36.120 -21.235 -20.532  0.00  0.00    -0.023 C 
BRANCH  14  16
ATOM     16  N   UNL     1      34.002 -20.844 -19.392  0.00  0.00    +0.385 N 
ATOM     17  C   UNL     1      34.344 -22.242 -19.126  0.00  0.00    -0.101 C 
ATOM     18  C   UNL     1      32.660 -20.747 -19.965  0.00  0.00    -0.101 C 
ATOM     19  H   UNL     1      34.013 -20.335 -18.507  0.00  0.00    -0.080 HD
ENDBRANCH  14  16
ENDBRANCH  13  14
ENDBRANCH   1  13
TORSDOF 6
ENDMDL
MODEL 6
REMARK VINA RESULT:      -6.2      7.009     10.300
REMARK  Name = 12162152
REMARK  6 active torsions:
REMARK  status: ('A' for Active; 'I' for Inactive)
REMARK    1  A    between atoms: C_1  and  C_2
REMARK    2  A    between atoms: C_1  and  C_8
REMARK    3  A    between atoms: C_1  and  C_12
REMARK    4  A    between atoms: C_1  and  C_13
REMARK    5  A    between atoms: C_13  and  C_14
REMARK    6  A    between atoms: C_14  and  N_16
REMARK                            x       y       z     vdW  Elec       q    Type
REMARK                         _______ _______ _______ _____ _____    ______ ____
ROOT
ATOM      1  C   UNL     1      34.867 -19.022 -21.485  0.00  0.00    +0.096 C 
ENDROOT
BRANCH   1   2
ATOM      2  C   UNL     1      34.392 -20.199 -20.601  0.00  0.00    -0.010 C 
ATOM      3  C   UNL     1      33.098 -20.187 -20.155  0.00  0.00    -0.003 C 
ATOM      4  C   UNL     1      35.291 -21.188 -20.309  0.00  0.00    -0.003 C 
ATOM      5  C   UNL     1      32.670 -21.247 -19.358  0.00  0.00    -0.000 C 
ATOM      6  C   UNL     1      34.862 -22.249 -19.511  0.00  0.00    -0.000 C 
ATOM      7  C   UNL     1      33.551 -22.278 -19.036  0.00  0.00    -0.000 C 
ENDBRANCH   1   2
BRANCH   1   8
ATOM      8  C   UNL     1      36.382 -18.689 -21.131  0.00  0.00    +0.017 C 
ATOM      9  C   UNL     1      37.008 -19.681 -20.133  0.00  0.00    +0.001 C 
ATOM     10  C   UNL     1      37.307 -18.583 -22.357  0.00  0.00    +0.001 C 
ENDBRANCH   1   8
BRANCH   1  12
ATOM     11  N   UNL     1      34.743 -19.537 -24.084  0.00  0.00    -0.196 NA
ATOM     12  C   UNL     1      34.798 -19.322 -22.945  0.00  0.00    +0.075 C 
ENDBRANCH   1  12
BRANCH   1  13
ATOM     13  C   UNL     1      33.971 -17.757 -21.211  0.00  0.00    -0.003 C 
BRANCH  13  14
ATOM     14  C   UNL     1      34.517 -16.374 -21.654  0.00  0.00    -0.057 C 
ATOM     15  C   UNL     1      34.426 -15.379 -20.494  0.00  0.00    -0.023 C 
BRANCH  14  16
ATOM     16  N   UNL     1      33.789 -15.837 -22.801  0.00  0.00    +0.385 N 
ATOM     17  C   UNL     1      34.678 -15.695 -23.954  0.00  0.00    -0.101 C 
ATOM     18  C   UNL     1      33.179 -14.551 -22.465  0.00  0.00    -0.101 C 
ATOM     19  H   UNL     1      33.045 -16.492 -23.046  0.00  0.00    -0.080 HD
ENDBRANCH  14  16
ENDBRANCH  13  14
ENDBRANCH   1  13
TORSDOF 6
ENDMDL
MODEL 7
REMARK VINA RESULT:      -5.9     14.122     16.963
REMARK  Name = 12162152
REMARK  6 active torsions:
REMARK  status: ('A' for Active; 'I' for Inactive)
REMARK    1  A    between atoms: C_1  and  C_2
REMARK    2  A    between atoms: C_1  and  C_8
REMARK    3  A    between atoms: C_1  and  C_12
REMARK    4  A    between atoms: C_1  and  C_13
REMARK    5  A    between atoms: C_13  and  C_14
REMARK    6  A    between atoms: C_14  and  N_16
REMARK                            x       y       z     vdW  Elec       q    Type
REMARK                         _______ _______ _______ _____ _____    ______ ____
ROOT
ATOM      1  C   UNL     1      35.802 -24.274 -14.521  0.00  0.00    +0.096 C 
ENDROOT
BRANCH   1   2
ATOM      2  C   UNL     1      36.177 -23.262 -15.628  0.00  0.00    -0.010 C 
ATOM      3  C   UNL     1      35.310 -23.104 -16.675  0.00  0.00    -0.003 C 
ATOM      4  C   UNL     1      37.356 -22.579 -15.503  0.00  0.00    -0.003 C 
ATOM      5  C   UNL     1      35.647 -22.192 -17.674  0.00  0.00    -0.000 C 
ATOM      6  C   UNL     1      37.693 -21.666 -16.502  0.00  0.00    -0.000 C 
ATOM      7  C   UNL     1      36.839 -21.473 -17.588  0.00  0.00    -0.000 C 
ENDBRANCH   1   2
BRANCH   1   8
ATOM      8  C   UNL     1      36.815 -25.501 -14.578  0.00  0.00    +0.017 C 
ATOM      9  C   UNL     1      37.119 -26.107 -13.196  0.00  0.00    +0.001 C 
ATOM     10  C   UNL     1      36.376 -26.635 -15.522  0.00  0.00    +0.001 C 
ENDBRANCH   1   8
BRANCH   1  12
ATOM     11  N   UNL     1      35.910 -23.231 -12.085  0.00  0.00    -0.196 NA
ATOM     12  C   UNL     1      35.871 -23.693 -13.148  0.00  0.00    +0.075 C 
ENDBRANCH   1  12
BRANCH   1  13
ATOM     13  C   UNL     1      34.333 -24.792 -14.751  0.00  0.00    -0.003 C 
BRANCH  13  14
ATOM     14  C   UNL     1      33.198 -24.138 -13.920  0.00  0.00    -0.057 C 
ATOM     15  C   UNL     1      32.133 -25.183 -13.574  0.00  0.00    -0.023 C 
BRANCH  14  16
ATOM     16  N   UNL     1      32.563 -23.030 -14.632  0.00  0.00    +0.385 N 
ATOM     17  C   UNL     1      31.435 -22.505 -13.864  0.00  0.00    -0.101 C 
ATOM     18  C   UNL     1      32.122 -23.459 -15.959  0.00  0.00    -0.101 C 
ATOM     19  H   UNL     1      33.251 -22.285 -14.746  0.00  0.00    -0.080 HD
ENDBRANCH  14  16
ENDBRANCH  13  14
ENDBRANCH   1  13
TORSDOF 6
ENDMDL
MODEL 8
REMARK VINA RESULT:      -5.8      1.928      4.624
REMARK  Name = 12162152
REMARK  6 active torsions:
REMARK  status: ('A' for Active; 'I' for Inactive)
REMARK    1  A    between atoms: C_1  and  C_2
REMARK    2  A    between atoms: C_1  and  C_8
REMARK    3  A    between atoms: C_1  and  C_12
REMARK    4  A    between atoms: C_1  and  C_13
REMARK    5  A    between atoms: C_13  and  C_14
REMARK    6  A    between atoms: C_14  and  N_16
REMARK                            x       y       z     vdW  Elec       q    Type
REMARK                         _______ _______ _______ _____ _____    ______ ____
ROOT
ATOM      1  C   UNL     1      32.783  -7.876 -22.441  0.00  0.00    +0.096 C 
ENDROOT
BRANCH   1   2
ATOM      2  C   UNL     1      32.090  -6.674 -23.125  0.00  0.00    -0.010 C 
ATOM      3  C   UNL     1      31.609  -6.847 -24.395  0.00  0.00    -0.003 C 
ATOM      4  C   UNL     1      31.997  -5.502 -22.426  0.00  0.00    -0.003 C 
ATOM      5  C   UNL     1      30.985  -5.764 -25.012  0.00  0.00    -0.000 C 
ATOM      6  C   UNL     1      31.372  -4.419 -23.043  0.00  0.00    -0.000 C 
ATOM      7  C   UNL     1      30.866  -4.550 -24.337  0.00  0.00    -0.000 C 
ENDBRANCH   1   2
BRANCH   1   8
ATOM      8  C   UNL     1      34.216  -8.089 -23.099  0.00  0.00    +0.017 C 
ATOM      9  C   UNL     1      34.304  -9.355 -23.972  0.00  0.00    +0.001 C 
ATOM     10  C   UNL     1      34.714  -6.890 -23.926  0.00  0.00    +0.001 C 
ENDBRANCH   1   8
BRANCH   1  12
ATOM     11  N   UNL     1      33.118  -7.530 -19.833  0.00  0.00    -0.196 NA
ATOM     12  C   UNL     1      32.981  -7.681 -20.975  0.00  0.00    +0.075 C 
ENDBRANCH   1  12
BRANCH   1  13
ATOM     13  C   UNL     1      31.913  -9.174 -22.640  0.00  0.00    -0.003 C 
BRANCH  13  14
ATOM     14  C   UNL     1      32.162 -10.366 -21.679  0.00  0.00    -0.057 C 
ATOM     15  C   UNL     1      32.105 -11.684 -22.455  0.00  0.00    -0.023 C 
BRANCH  14  16
ATOM     16  N   UNL     1      31.187 -10.410 -20.592  0.00  0.00    +0.385 N 
ATOM     17  C   UNL     1      31.847 -10.709 -19.321  0.00  0.00    -0.101 C 
ATOM     18  C   UNL     1      30.149 -11.401 -20.874  0.00  0.00    -0.101 C 
ATOM     19  H   UNL     1      30.746  -9.493 -20.518  0.00  0.00    -0.080 HD
ENDBRANCH  14  16
ENDBRANCH  13  14
ENDBRANCH   1  13
TORSDOF 6
ENDMDL
MODEL 9
REMARK VINA RESULT:      -5.8      3.831      7.010
REMARK  Name = 12162152
REMARK  6 active torsions:
REMARK  status: ('A' for Active; 'I' for Inactive)
REMARK    1  A    between atoms: C_1  and  C_2
REMARK    2  A    between atoms: C_1  and  C_8
REMARK    3  A    between atoms: C_1  and  C_12
REMARK    4  A    between atoms: C_1  and  C_13
REMARK    5  A    between atoms: C_13  and  C_14
REMARK    6  A    between atoms: C_14  and  N_16
REMARK                            x       y       z     vdW  Elec       q    Type
REMARK                         _______ _______ _______ _____ _____    ______ ____
ROOT
ATOM      1  C   UNL     1      34.094 -15.228 -22.107  0.00  0.00    +0.096 C 
ENDROOT
BRANCH   1   2
ATOM      2  C   UNL     1      34.399 -16.725 -22.345  0.00  0.00    -0.010 C 
ATOM      3  C   UNL     1      34.572 -17.528 -21.250  0.00  0.00    -0.003 C 
ATOM      4  C   UNL     1      34.481 -17.168 -23.637  0.00  0.00    -0.003 C 
ATOM      5  C   UNL     1      34.847 -18.878 -21.464  0.00  0.00    -0.000 C 
ATOM      6  C   UNL     1      34.756 -18.518 -23.851  0.00  0.00    -0.000 C 
ATOM      7  C   UNL     1      34.938 -19.374 -22.764  0.00  0.00    -0.000 C 
ENDBRANCH   1   2
BRANCH   1   8
ATOM      8  C   UNL     1      32.531 -15.050 -21.870  0.00  0.00    +0.017 C 
ATOM      9  C   UNL     1      31.961 -16.013 -20.812  0.00  0.00    +0.001 C 
ATOM     10  C   UNL     1      32.109 -13.616 -21.502  0.00  0.00    +0.001 C 
ENDBRANCH   1   8
BRANCH   1  12
ATOM     11  N   UNL     1      35.336 -14.222 -19.990  0.00  0.00    -0.196 NA
ATOM     12  C   UNL     1      34.800 -14.668 -20.918  0.00  0.00    +0.075 C 
ENDBRANCH   1  12
BRANCH   1  13
ATOM     13  C   UNL     1      34.535 -14.391 -23.366  0.00  0.00    -0.003 C 
BRANCH  13  14
ATOM     14  C   UNL     1      33.468 -13.494 -24.048  0.00  0.00    -0.057 C 
ATOM     15  C   UNL     1      32.909 -14.197 -25.288  0.00  0.00    -0.023 C 
BRANCH  14  16
ATOM     16  N   UNL     1      34.010 -12.195 -24.440  0.00  0.00    +0.385 N 
ATOM     17  C   UNL     1      33.376 -11.122 -23.675  0.00  0.00    -0.101 C 
ATOM     18  C   UNL     1      33.829 -11.975 -25.874  0.00  0.00    -0.101 C 
ATOM     19  H   UNL     1      35.010 -12.189 -24.236  0.00  0.00    -0.080 HD
ENDBRANCH  14  16
ENDBRANCH  13  14
ENDBRANCH   1  13
TORSDOF 6
ENDMDL
