MODEL 1
REMARK VINA RESULT:      -7.0      0.000      0.000
REMARK  Name = 4470573
REMARK  0 active torsions:
REMARK  status: ('A' for Active; 'I' for Inactive)
REMARK                            x       y       z     vdW  Elec       q    Type
REMARK                         _______ _______ _______ _____ _____    ______ ____
ROOT
ATOM      1  O   UNL     1      36.785 -21.521 -19.208  0.00  0.00    -0.213 OA
ATOM      2  N   UNL     1      32.835 -21.983 -18.893  0.00  0.00    -0.263 N 
ATOM      3  N   UNL     1      32.623 -20.252 -20.667  0.00  0.00    -0.232 NA
ATOM      4  N   UNL     1      35.015 -22.593 -18.184  0.00  0.00    -0.305 NA
ATOM      5  N   UNL     1      33.092 -23.580 -17.253  0.00  0.00    -0.320 N 
ATOM      6  C   UNL     1      34.634 -20.912 -19.915  0.00  0.00    +0.196 C 
ATOM      7  C   UNL     1      34.974 -19.898 -20.935  0.00  0.00    +0.019 C 
ATOM      8  C   UNL     1      33.309 -21.073 -19.803  0.00  0.00    +0.132 C 
ATOM      9  C   UNL     1      33.546 -19.596 -21.300  0.00  0.00    +0.097 C 
ATOM     10  C   UNL     1      35.577 -21.692 -19.081  0.00  0.00    +0.193 C 
ATOM     11  C   UNL     1      33.711 -22.711 -18.115  0.00  0.00    +0.248 C 
ATOM     12  H   UNL     1      31.865 -22.117 -18.795  0.00  0.00    +0.157 HD
ATOM     13  H   UNL     1      32.109 -23.637 -17.234  0.00  0.00    +0.146 HD
ATOM     14  H   UNL     1      33.629 -24.146 -16.654  0.00  0.00    +0.146 HD
ENDROOT
TORSDOF 0
ENDMDL
MODEL 2
REMARK VINA RESULT:      -6.6      1.942      2.682
REMARK  Name = 4470573
REMARK  0 active torsions:
REMARK  status: ('A' for Active; 'I' for Inactive)
REMARK                            x       y       z     vdW  Elec       q    Type
REMARK                         _______ _______ _______ _____ _____    ______ ____
ROOT
ATOM      1  O   UNL     1      32.312 -20.155 -20.926  0.00  0.00    -0.213 OA
ATOM      2  N   UNL     1      35.091 -22.045 -18.776  0.00  0.00    -0.263 N 
ATOM      3  N   UNL     1      36.748 -20.498 -19.800  0.00  0.00    -0.232 NA
ATOM      4  N   UNL     1      32.814 -21.814 -19.401  0.00  0.00    -0.305 NA
ATOM      5  N   UNL     1      33.513 -23.451 -17.860  0.00  0.00    -0.320 N 
ATOM      6  C   UNL     1      34.565 -20.376 -20.314  0.00  0.00    +0.196 C 
ATOM      7  C   UNL     1      35.162 -19.299 -21.130  0.00  0.00    +0.019 C 
ATOM      8  C   UNL     1      35.492 -21.016 -19.589  0.00  0.00    +0.132 C 
ATOM      9  C   UNL     1      36.570 -19.541 -20.658  0.00  0.00    +0.097 C 
ATOM     10  C   UNL     1      33.137 -20.761 -20.249  0.00  0.00    +0.193 C 
ATOM     11  C   UNL     1      33.761 -22.407 -18.714  0.00  0.00    +0.248 C 
ATOM     12  H   UNL     1      35.756 -22.529 -18.235  0.00  0.00    +0.157 HD
ATOM     13  H   UNL     1      34.254 -23.867 -17.363  0.00  0.00    +0.146 HD
ATOM     14  H   UNL     1      32.594 -23.785 -17.744  0.00  0.00    +0.146 HD
ENDROOT
TORSDOF 0
ENDMDL
MODEL 3
REMARK VINA RESULT:      -6.6      2.056      2.757
REMARK  Name = 4470573
REMARK  0 active torsions:
REMARK  status: ('A' for Active; 'I' for Inactive)
REMARK                            x       y       z     vdW  Elec       q    Type
REMARK                         _______ _______ _______ _____ _____    ______ ____
ROOT
ATOM      1  O   UNL     1      32.931 -22.152 -19.557  0.00  0.00    -0.213 OA
ATOM      2  N   UNL     1      36.610 -20.661 -19.156  0.00  0.00    -0.263 N 
ATOM      3  N   UNL     1      35.983 -18.996 -20.894  0.00  0.00    -0.232 NA
ATOM      4  N   UNL     1      34.986 -22.265 -18.510  0.00  0.00    -0.305 NA
ATOM      5  N   UNL     1      37.135 -22.227 -17.550  0.00  0.00    -0.320 N 
ATOM      6  C   UNL     1      34.531 -20.563 -20.202  0.00  0.00    +0.196 C 
ATOM      7  C   UNL     1      33.757 -19.812 -21.212  0.00  0.00    +0.019 C 
ATOM      8  C   UNL     1      35.768 -20.068 -20.061  0.00  0.00    +0.132 C 
ATOM      9  C   UNL     1      34.867 -18.849 -21.538  0.00  0.00    +0.097 C 
ATOM     10  C   UNL     1      34.071 -21.723 -19.404  0.00  0.00    +0.193 C 
ATOM     11  C   UNL     1      36.185 -21.742 -18.411  0.00  0.00    +0.248 C 
ATOM     12  H   UNL     1      37.523 -20.314 -19.037  0.00  0.00    +0.157 HD
ATOM     13  H   UNL     1      38.024 -21.804 -17.508  0.00  0.00    +0.146 HD
ATOM     14  H   UNL     1      36.930 -22.998 -16.974  0.00  0.00    +0.146 HD
ENDROOT
TORSDOF 0
ENDMDL
MODEL 4
REMARK VINA RESULT:      -6.5      4.910      7.081
REMARK  Name = 4470573
REMARK  0 active torsions:
REMARK  status: ('A' for Active; 'I' for Inactive)
REMARK                            x       y       z     vdW  Elec       q    Type
REMARK                         _______ _______ _______ _____ _____    ______ ____
ROOT
ATOM      1  O   UNL     1      34.508 -17.667 -25.501  0.00  0.00    -0.213 OA
ATOM      2  N   UNL     1      34.737 -15.540 -22.134  0.00  0.00    -0.263 N 
ATOM      3  N   UNL     1      35.319 -17.668 -20.984  0.00  0.00    -0.232 NA
ATOM      4  N   UNL     1      34.330 -15.609 -24.469  0.00  0.00    -0.305 NA
ATOM      5  N   UNL     1      34.194 -13.600 -23.250  0.00  0.00    -0.320 N 
ATOM      6  C   UNL     1      34.912 -17.608 -23.192  0.00  0.00    +0.196 C 
ATOM      7  C   UNL     1      35.208 -19.034 -22.944  0.00  0.00    +0.019 C 
ATOM      8  C   UNL     1      34.987 -16.887 -22.065  0.00  0.00    +0.132 C 
ATOM      9  C   UNL     1      35.443 -18.865 -21.468  0.00  0.00    +0.097 C 
ATOM     10  C   UNL     1      34.568 -16.978 -24.487  0.00  0.00    +0.193 C 
ATOM     11  C   UNL     1      34.416 -14.950 -23.339  0.00  0.00    +0.248 C 
ATOM     12  H   UNL     1      34.786 -14.992 -21.318  0.00  0.00    +0.157 HD
ATOM     13  H   UNL     1      34.270 -13.145 -22.380  0.00  0.00    +0.146 HD
ATOM     14  H   UNL     1      33.958 -13.086 -24.056  0.00  0.00    +0.146 HD
ENDROOT
TORSDOF 0
ENDMDL
MODEL 5
REMARK VINA RESULT:      -6.5      5.817      6.856
REMARK  Name = 4470573
REMARK  0 active torsions:
REMARK  status: ('A' for Active; 'I' for Inactive)
REMARK                            x       y       z     vdW  Elec       q    Type
REMARK                         _______ _______ _______ _____ _____    ______ ____
ROOT
ATOM      1  O   UNL     1      35.267 -17.501 -20.808  0.00  0.00    -0.213 OA
ATOM      2  N   UNL     1      34.289 -15.588 -24.169  0.00  0.00    -0.263 N 
ATOM      3  N   UNL     1      34.346 -17.807 -25.293  0.00  0.00    -0.232 NA
ATOM      4  N   UNL     1      34.775 -15.500 -21.849  0.00  0.00    -0.305 NA
ATOM      5  N   UNL     1      34.251 -13.561 -23.077  0.00  0.00    -0.320 N 
ATOM      6  C   UNL     1      34.788 -17.597 -23.102  0.00  0.00    +0.196 C 
ATOM      7  C   UNL     1      34.933 -19.049 -23.335  0.00  0.00    +0.019 C 
ATOM      8  C   UNL     1      34.459 -16.948 -24.226  0.00  0.00    +0.132 C 
ATOM      9  C   UNL     1      34.608 -18.978 -24.803  0.00  0.00    +0.097 C 
ATOM     10  C   UNL     1      34.966 -16.877 -21.821  0.00  0.00    +0.193 C 
ATOM     11  C   UNL     1      34.454 -14.913 -22.978  0.00  0.00    +0.248 C 
ATOM     12  H   UNL     1      34.047 -15.091 -24.984  0.00  0.00    +0.157 HD
ATOM     13  H   UNL     1      34.011 -13.161 -23.944  0.00  0.00    +0.146 HD
ATOM     14  H   UNL     1      34.345 -12.989 -22.281  0.00  0.00    +0.146 HD
ENDROOT
TORSDOF 0
ENDMDL
MODEL 6
REMARK VINA RESULT:      -6.5      6.174      7.728
REMARK  Name = 4470573
REMARK  0 active torsions:
REMARK  status: ('A' for Active; 'I' for Inactive)
REMARK                            x       y       z     vdW  Elec       q    Type
REMARK                         _______ _______ _______ _____ _____    ______ ____
ROOT
ATOM      1  O   UNL     1      36.624 -26.025 -11.695  0.00  0.00    -0.213 OA
ATOM      2  N   UNL     1      38.450 -25.083 -15.115  0.00  0.00    -0.263 N 
ATOM      3  N   UNL     1      36.343 -23.936 -15.772  0.00  0.00    -0.232 NA
ATOM      4  N   UNL     1      38.529 -26.144 -12.995  0.00  0.00    -0.305 NA
ATOM      5  N   UNL     1      40.375 -26.162 -14.455  0.00  0.00    -0.320 N 
ATOM      6  C   UNL     1      36.537 -24.974 -13.790  0.00  0.00    +0.196 C 
ATOM      7  C   UNL     1      35.157 -24.447 -13.758  0.00  0.00    +0.019 C 
ATOM      8  C   UNL     1      37.157 -24.662 -14.936  0.00  0.00    +0.132 C 
ATOM      9  C   UNL     1      35.228 -23.813 -15.121  0.00  0.00    +0.097 C 
ATOM     10  C   UNL     1      37.220 -25.755 -12.734  0.00  0.00    +0.193 C 
ATOM     11  C   UNL     1      39.089 -25.812 -14.133  0.00  0.00    +0.248 C 
ATOM     12  H   UNL     1      38.924 -24.865 -15.950  0.00  0.00    +0.157 HD
ATOM     13  H   UNL     1      40.757 -25.891 -15.321  0.00  0.00    +0.146 HD
ATOM     14  H   UNL     1      40.917 -26.683 -13.820  0.00  0.00    +0.146 HD
ENDROOT
TORSDOF 0
ENDMDL
MODEL 7
REMARK VINA RESULT:      -6.5      6.968      8.499
REMARK  Name = 4470573
REMARK  0 active torsions:
REMARK  status: ('A' for Active; 'I' for Inactive)
REMARK                            x       y       z     vdW  Elec       q    Type
REMARK                         _______ _______ _______ _____ _____    ______ ____
ROOT
ATOM      1  O   UNL     1      34.683 -17.817 -25.558  0.00  0.00    -0.213 OA
ATOM      2  N   UNL     1      33.155 -14.251 -24.626  0.00  0.00    -0.263 N 
ATOM      3  N   UNL     1      34.085 -14.594 -22.345  0.00  0.00    -0.232 NA
ATOM      4  N   UNL     1      33.499 -15.955 -26.240  0.00  0.00    -0.305 NA
ATOM      5  N   UNL     1      32.316 -13.987 -26.755  0.00  0.00    -0.320 N 
ATOM      6  C   UNL     1      34.347 -16.137 -23.956  0.00  0.00    +0.196 C 
ATOM      7  C   UNL     1      35.040 -16.740 -22.799  0.00  0.00    +0.019 C 
ATOM      8  C   UNL     1      33.831 -14.939 -23.651  0.00  0.00    +0.132 C 
ATOM      9  C   UNL     1      34.758 -15.594 -21.865  0.00  0.00    +0.097 C 
ATOM     10  C   UNL     1      34.198 -16.717 -25.310  0.00  0.00    +0.193 C 
ATOM     11  C   UNL     1      33.014 -14.788 -25.889  0.00  0.00    +0.248 C 
ATOM     12  H   UNL     1      32.768 -13.369 -24.423  0.00  0.00    +0.157 HD
ATOM     13  H   UNL     1      31.969 -13.117 -26.450  0.00  0.00    +0.146 HD
ATOM     14  H   UNL     1      32.160 -14.281 -27.682  0.00  0.00    +0.146 HD
ENDROOT
TORSDOF 0
ENDMDL
MODEL 8
REMARK VINA RESULT:      -6.4      4.411      5.735
REMARK  Name = 4470573
REMARK  0 active torsions:
REMARK  status: ('A' for Active; 'I' for Inactive)
REMARK                            x       y       z     vdW  Elec       q    Type
REMARK                         _______ _______ _______ _____ _____    ______ ____
ROOT
ATOM      1  O   UNL     1      35.011 -17.773 -24.695  0.00  0.00    -0.213 OA
ATOM      2  N   UNL     1      35.248 -17.337 -20.736  0.00  0.00    -0.263 N 
ATOM      3  N   UNL     1      34.517 -14.985 -21.083  0.00  0.00    -0.232 NA
ATOM      4  N   UNL     1      35.484 -18.725 -22.645  0.00  0.00    -0.305 NA
ATOM      5  N   UNL     1      35.922 -19.524 -20.475  0.00  0.00    -0.320 N 
ATOM      6  C   UNL     1      34.775 -16.393 -22.813  0.00  0.00    +0.196 C 
ATOM      7  C   UNL     1      34.343 -15.139 -23.464  0.00  0.00    +0.019 C 
ATOM      8  C   UNL     1      34.858 -16.255 -21.483  0.00  0.00    +0.132 C 
ATOM      9  C   UNL     1      34.230 -14.359 -22.182  0.00  0.00    +0.097 C 
ATOM     10  C   UNL     1      35.096 -17.679 -23.474  0.00  0.00    +0.193 C 
ATOM     11  C   UNL     1      35.547 -18.536 -21.349  0.00  0.00    +0.248 C 
ATOM     12  H   UNL     1      35.315 -17.257 -19.757  0.00  0.00    +0.157 HD
ATOM     13  H   UNL     1      35.956 -19.339 -19.508  0.00  0.00    +0.146 HD
ATOM     14  H   UNL     1      36.156 -20.418 -20.813  0.00  0.00    +0.146 HD
ENDROOT
TORSDOF 0
ENDMDL
MODEL 9
REMARK VINA RESULT:      -6.4      6.592      8.658
REMARK  Name = 4470573
REMARK  0 active torsions:
REMARK  status: ('A' for Active; 'I' for Inactive)
REMARK                            x       y       z     vdW  Elec       q    Type
REMARK                         _______ _______ _______ _____ _____    ______ ____
ROOT
ATOM      1  O   UNL     1      33.054 -15.763 -26.675  0.00  0.00    -0.213 OA
ATOM      2  N   UNL     1      34.566 -14.473 -23.216  0.00  0.00    -0.263 N 
ATOM      3  N   UNL     1      35.351 -16.804 -22.841  0.00  0.00    -0.232 NA
ATOM      4  N   UNL     1      33.385 -14.003 -25.218  0.00  0.00    -0.305 NA
ATOM      5  N   UNL     1      33.815 -12.333 -23.616  0.00  0.00    -0.320 N 
ATOM      6  C   UNL     1      34.223 -16.237 -24.698  0.00  0.00    +0.196 C 
ATOM      7  C   UNL     1      34.483 -17.679 -24.890  0.00  0.00    +0.019 C 
ATOM      8  C   UNL     1      34.728 -15.796 -23.538  0.00  0.00    +0.132 C 
ATOM      9  C   UNL     1      35.218 -17.854 -23.589  0.00  0.00    +0.097 C 
ATOM     10  C   UNL     1      33.505 -15.328 -25.619  0.00  0.00    +0.193 C 
ATOM     11  C   UNL     1      33.898 -13.623 -24.072  0.00  0.00    +0.248 C 
ATOM     12  H   UNL     1      34.929 -14.129 -22.368  0.00  0.00    +0.157 HD
ATOM     13  H   UNL     1      34.215 -12.091 -22.749  0.00  0.00    +0.146 HD
ATOM     14  H   UNL     1      33.357 -11.648 -24.154  0.00  0.00    +0.146 HD
ENDROOT
TORSDOF 0
ENDMDL
