MODEL 1
REMARK VINA RESULT:      -8.2      0.000      0.000
REMARK  Name = 1829
REMARK  5 active torsions:
REMARK  status: ('A' for Active; 'I' for Inactive)
REMARK    1  A    between atoms: C_2  and  N_9
REMARK    2  A    between atoms: C_3  and  C_17
REMARK    3  A    between atoms: C_10  and  C_13
REMARK    4  A    between atoms: C_13  and  O_14
REMARK    5  A    between atoms: C_17  and  O_18
REMARK                            x       y       z     vdW  Elec       q    Type
REMARK                         _______ _______ _______ _____ _____    ______ ____
ROOT
ATOM      1  I   UNL     1      31.991 -23.490 -14.354  0.00  0.00    -0.043 I 
ATOM      2  C   UNL     1      36.787 -24.325 -14.309  0.00  0.00    +0.057 C 
ATOM      3  C   UNL     1      36.027 -24.557 -13.162  0.00  0.00    +0.089 C 
ATOM      4  C   UNL     1      36.171 -23.854 -15.468  0.00  0.00    +0.015 C 
ATOM      5  C   UNL     1      34.654 -24.319 -13.174  0.00  0.00    +0.013 C 
ATOM      6  C   UNL     1      34.797 -23.615 -15.481  0.00  0.00    +0.007 C 
ATOM      7  C   UNL     1      34.038 -23.846 -14.334  0.00  0.00    +0.030 C 
ENDROOT
BRANCH   2   9
ATOM      8  O   UNL     1      38.358 -26.880 -14.705  0.00  0.00    -0.263 OA
ATOM      9  N   UNL     1      38.164 -24.558 -14.320  0.00  0.00    -0.275 N 
ATOM     10  C   UNL     1      38.823 -25.769 -14.509  0.00  0.00    +0.325 C 
ATOM     11  H   UNL     1      38.738 -23.770 -14.176  0.00  0.00    +0.155 HD
BRANCH  10  13
ATOM     12  O   UNL     1      40.887 -24.562 -14.230  0.00  0.00    -0.240 OA
ATOM     13  C   UNL     1      40.331 -25.619 -14.452  0.00  0.00    +0.393 C 
BRANCH  13  14
ATOM     14  O   UNL     1      40.924 -26.802 -14.679  0.00  0.00    -0.474 OA
ATOM     15  H   UNL     1      40.441 -27.498 -15.081  0.00  0.00    +0.296 HD
ENDBRANCH  13  14
ENDBRANCH  10  13
ENDBRANCH   2   9
BRANCH   3  17
ATOM     16  O   UNL     1      36.960 -24.355 -10.968  0.00  0.00    -0.245 OA
ATOM     17  C   UNL     1      36.640 -25.051 -11.935  0.00  0.00    +0.339 C 
BRANCH  17  18
ATOM     18  O   UNL     1      36.830 -26.397 -11.957  0.00  0.00    -0.477 OA
ATOM     19  H   UNL     1      36.093 -26.975 -11.963  0.00  0.00    +0.295 HD
ENDBRANCH  17  18
ENDBRANCH   3  17
TORSDOF 5
ENDMDL
MODEL 2
REMARK VINA RESULT:      -7.6      6.119      8.129
REMARK  Name = 1829
REMARK  5 active torsions:
REMARK  status: ('A' for Active; 'I' for Inactive)
REMARK    1  A    between atoms: C_2  and  N_9
REMARK    2  A    between atoms: C_3  and  C_17
REMARK    3  A    between atoms: C_10  and  C_13
REMARK    4  A    between atoms: C_13  and  O_14
REMARK    5  A    between atoms: C_17  and  O_18
REMARK                            x       y       z     vdW  Elec       q    Type
REMARK                         _______ _______ _______ _____ _____    ______ ____
ROOT
ATOM      1  I   UNL     1      36.306 -24.451 -13.800  0.00  0.00    -0.043 I 
ATOM      2  C   UNL     1      31.982 -23.281 -15.703  0.00  0.00    +0.057 C 
ATOM      3  C   UNL     1      33.116 -23.311 -16.515  0.00  0.00    +0.089 C 
ATOM      4  C   UNL     1      32.088 -23.586 -14.347  0.00  0.00    +0.015 C 
ATOM      5  C   UNL     1      34.355 -23.647 -15.971  0.00  0.00    +0.013 C 
ATOM      6  C   UNL     1      33.326 -23.922 -13.802  0.00  0.00    +0.007 C 
ATOM      7  C   UNL     1      34.461 -23.951 -14.613  0.00  0.00    +0.030 C 
ENDROOT
BRANCH   2   9
ATOM      8  O   UNL     1      29.395 -24.847 -15.793  0.00  0.00    -0.263 OA
ATOM      9  N   UNL     1      30.730 -22.948 -16.228  0.00  0.00    -0.275 N 
ATOM     10  C   UNL     1      29.575 -23.724 -16.235  0.00  0.00    +0.325 C 
ATOM     11  H   UNL     1      30.657 -22.059 -16.643  0.00  0.00    +0.155 HD
BRANCH  10  13
ATOM     12  O   UNL     1      28.197 -21.826 -16.777  0.00  0.00    -0.240 OA
ATOM     13  C   UNL     1      28.409 -23.016 -16.899  0.00  0.00    +0.393 C 
BRANCH  13  14
ATOM     14  O   UNL     1      27.684 -23.889 -17.615  0.00  0.00    -0.474 OA
ATOM     15  H   UNL     1      27.154 -24.526 -17.178  0.00  0.00    +0.296 HD
ENDBRANCH  13  14
ENDBRANCH  10  13
ENDBRANCH   2   9
BRANCH   3  17
ATOM     16  O   UNL     1      32.366 -22.092 -18.432  0.00  0.00    -0.245 OA
ATOM     17  C   UNL     1      33.040 -22.999 -17.937  0.00  0.00    +0.339 C 
BRANCH  17  18
ATOM     18  O   UNL     1      33.809 -23.829 -18.691  0.00  0.00    -0.477 OA
ATOM     19  H   UNL     1      34.595 -24.192 -18.335  0.00  0.00    +0.295 HD
ENDBRANCH  17  18
ENDBRANCH   3  17
TORSDOF 5
ENDMDL
MODEL 3
REMARK VINA RESULT:      -7.6      5.673      7.586
REMARK  Name = 1829
REMARK  5 active torsions:
REMARK  status: ('A' for Active; 'I' for Inactive)
REMARK    1  A    between atoms: C_2  and  N_9
REMARK    2  A    between atoms: C_3  and  C_17
REMARK    3  A    between atoms: C_10  and  C_13
REMARK    4  A    between atoms: C_13  and  O_14
REMARK    5  A    between atoms: C_17  and  O_18
REMARK                            x       y       z     vdW  Elec       q    Type
REMARK                         _______ _______ _______ _____ _____    ______ ____
ROOT
ATOM      1  I   UNL     1      36.977 -22.361 -16.121  0.00  0.00    -0.043 I 
ATOM      2  C   UNL     1      32.278 -23.632 -16.091  0.00  0.00    +0.057 C 
ATOM      3  C   UNL     1      33.004 -23.613 -14.899  0.00  0.00    +0.089 C 
ATOM      4  C   UNL     1      32.900 -23.285 -17.290  0.00  0.00    +0.015 C 
ATOM      5  C   UNL     1      34.349 -23.249 -14.907  0.00  0.00    +0.013 C 
ATOM      6  C   UNL     1      34.245 -22.921 -17.299  0.00  0.00    +0.007 C 
ATOM      7  C   UNL     1      34.971 -22.904 -16.107  0.00  0.00    +0.030 C 
ENDROOT
BRANCH   2   9
ATOM      8  O   UNL     1      29.831 -22.101 -16.998  0.00  0.00    -0.263 OA
ATOM      9  N   UNL     1      30.928 -23.993 -16.106  0.00  0.00    -0.275 N 
ATOM     10  C   UNL     1      29.847 -23.232 -16.540  0.00  0.00    +0.325 C 
ATOM     11  H   UNL     1      30.717 -24.893 -15.769  0.00  0.00    +0.155 HD
BRANCH  10  13
ATOM     12  O   UNL     1      27.816 -24.242 -17.345  0.00  0.00    -0.240 OA
ATOM     13  C   UNL     1      28.530 -23.971 -16.400  0.00  0.00    +0.393 C 
BRANCH  13  14
ATOM     14  O   UNL     1      28.297 -24.263 -15.111  0.00  0.00    -0.474 OA
ATOM     15  H   UNL     1      28.339 -23.588 -14.463  0.00  0.00    +0.296 HD
ENDBRANCH  13  14
ENDBRANCH  10  13
ENDBRANCH   2   9
BRANCH   3  17
ATOM     16  O   UNL     1      31.965 -25.089 -13.329  0.00  0.00    -0.245 OA
ATOM     17  C   UNL     1      32.384 -23.969 -13.629  0.00  0.00    +0.339 C 
BRANCH  17  18
ATOM     18  O   UNL     1      32.310 -22.912 -12.775  0.00  0.00    -0.477 OA
ATOM     19  H   UNL     1      31.530 -22.767 -12.277  0.00  0.00    +0.295 HD
ENDBRANCH  17  18
ENDBRANCH   3  17
TORSDOF 5
ENDMDL
MODEL 4
REMARK VINA RESULT:      -7.5     13.470     14.921
REMARK  Name = 1829
REMARK  5 active torsions:
REMARK  status: ('A' for Active; 'I' for Inactive)
REMARK    1  A    between atoms: C_2  and  N_9
REMARK    2  A    between atoms: C_3  and  C_17
REMARK    3  A    between atoms: C_10  and  C_13
REMARK    4  A    between atoms: C_13  and  O_14
REMARK    5  A    between atoms: C_17  and  O_18
REMARK                            x       y       z     vdW  Elec       q    Type
REMARK                         _______ _______ _______ _____ _____    ______ ____
ROOT
ATOM      1  I   UNL     1      34.851 -19.556 -21.114  0.00  0.00    -0.043 I 
ATOM      2  C   UNL     1      34.442 -15.025 -22.845  0.00  0.00    +0.057 C 
ATOM      3  C   UNL     1      34.342 -16.114 -23.710  0.00  0.00    +0.089 C 
ATOM      4  C   UNL     1      34.659 -15.235 -21.483  0.00  0.00    +0.015 C 
ATOM      5  C   UNL     1      34.458 -17.412 -23.215  0.00  0.00    +0.013 C 
ATOM      6  C   UNL     1      34.776 -16.533 -20.987  0.00  0.00    +0.007 C 
ATOM      7  C   UNL     1      34.676 -17.622 -21.853  0.00  0.00    +0.030 C 
ENDROOT
BRANCH   2   9
ATOM      8  O   UNL     1      32.157 -13.050 -22.668  0.00  0.00    -0.263 OA
ATOM      9  N   UNL     1      34.327 -13.716 -23.319  0.00  0.00    -0.275 N 
ATOM     10  C   UNL     1      33.238 -12.859 -23.202  0.00  0.00    +0.325 C 
ATOM     11  H   UNL     1      35.112 -13.357 -23.793  0.00  0.00    +0.155 HD
BRANCH  10  13
ATOM     12  O   UNL     1      32.832 -10.520 -23.603  0.00  0.00    -0.240 OA
ATOM     13  C   UNL     1      33.493 -11.510 -23.848  0.00  0.00    +0.393 C 
BRANCH  13  14
ATOM     14  O   UNL     1      34.529 -11.591 -24.697  0.00  0.00    -0.474 OA
ATOM     15  H   UNL     1      34.376 -11.594 -25.622  0.00  0.00    +0.296 HD
ENDBRANCH  13  14
ENDBRANCH  10  13
ENDBRANCH   2   9
BRANCH   3  17
ATOM     16  O   UNL     1      33.334 -15.114 -25.636  0.00  0.00    -0.245 OA
ATOM     17  C   UNL     1      34.114 -15.929 -25.138  0.00  0.00    +0.339 C 
BRANCH  17  18
ATOM     18  O   UNL     1      34.871 -16.769 -25.896  0.00  0.00    -0.477 OA
ATOM     19  H   UNL     1      35.771 -16.910 -25.680  0.00  0.00    +0.295 HD
ENDBRANCH  17  18
ENDBRANCH   3  17
TORSDOF 5
ENDMDL
MODEL 5
REMARK VINA RESULT:      -7.5     10.573     11.754
REMARK  Name = 1829
REMARK  5 active torsions:
REMARK  status: ('A' for Active; 'I' for Inactive)
REMARK    1  A    between atoms: C_2  and  N_9
REMARK    2  A    between atoms: C_3  and  C_17
REMARK    3  A    between atoms: C_10  and  C_13
REMARK    4  A    between atoms: C_13  and  O_14
REMARK    5  A    between atoms: C_17  and  O_18
REMARK                            x       y       z     vdW  Elec       q    Type
REMARK                         _______ _______ _______ _____ _____    ______ ____
ROOT
ATOM      1  I   UNL     1      33.100 -14.529 -26.153  0.00  0.00    -0.043 I 
ATOM      2  C   UNL     1      34.931 -17.615 -22.864  0.00  0.00    +0.057 C 
ATOM      3  C   UNL     1      34.389 -16.397 -22.452  0.00  0.00    +0.089 C 
ATOM      4  C   UNL     1      34.948 -17.947 -24.218  0.00  0.00    +0.015 C 
ATOM      5  C   UNL     1      33.864 -15.513 -23.393  0.00  0.00    +0.013 C 
ATOM      6  C   UNL     1      34.423 -17.063 -25.160  0.00  0.00    +0.007 C 
ATOM      7  C   UNL     1      33.882 -15.845 -24.748  0.00  0.00    +0.030 C 
ENDROOT
BRANCH   2   9
ATOM      8  O   UNL     1      33.654 -19.940 -21.409  0.00  0.00    -0.263 OA
ATOM      9  N   UNL     1      35.463 -18.516 -21.938  0.00  0.00    -0.275 N 
ATOM     10  C   UNL     1      34.812 -19.569 -21.304  0.00  0.00    +0.325 C 
ATOM     11  H   UNL     1      36.411 -18.391 -21.707  0.00  0.00    +0.155 HD
BRANCH  10  13
ATOM     12  O   UNL     1      35.478 -21.444 -19.947  0.00  0.00    -0.240 OA
ATOM     13  C   UNL     1      35.726 -20.328 -20.360  0.00  0.00    +0.393 C 
BRANCH  13  14
ATOM     14  O   UNL     1      36.809 -19.590 -20.072  0.00  0.00    -0.474 OA
ATOM     15  H   UNL     1      36.720 -18.802 -19.572  0.00  0.00    +0.296 HD
ENDBRANCH  13  14
ENDBRANCH  10  13
ENDBRANCH   2   9
BRANCH   3  17
ATOM     16  O   UNL     1      35.209 -16.317 -20.206  0.00  0.00    -0.245 OA
ATOM     17  C   UNL     1      34.355 -16.020 -21.045  0.00  0.00    +0.339 C 
BRANCH  17  18
ATOM     18  O   UNL     1      33.255 -15.284 -20.733  0.00  0.00    -0.477 OA
ATOM     19  H   UNL     1      33.353 -14.429 -20.362  0.00  0.00    +0.295 HD
ENDBRANCH  17  18
ENDBRANCH   3  17
TORSDOF 5
ENDMDL
MODEL 6
REMARK VINA RESULT:      -7.5      6.420      8.380
REMARK  Name = 1829
REMARK  5 active torsions:
REMARK  status: ('A' for Active; 'I' for Inactive)
REMARK    1  A    between atoms: C_2  and  N_9
REMARK    2  A    between atoms: C_3  and  C_17
REMARK    3  A    between atoms: C_10  and  C_13
REMARK    4  A    between atoms: C_13  and  O_14
REMARK    5  A    between atoms: C_17  and  O_18
REMARK                            x       y       z     vdW  Elec       q    Type
REMARK                         _______ _______ _______ _____ _____    ______ ____
ROOT
ATOM      1  I   UNL     1      35.928 -23.840 -14.884  0.00  0.00    -0.043 I 
ATOM      2  C   UNL     1      31.187 -23.596 -15.962  0.00  0.00    +0.057 C 
ATOM      3  C   UNL     1      31.599 -24.138 -14.744  0.00  0.00    +0.089 C 
ATOM      4  C   UNL     1      32.135 -23.124 -16.870  0.00  0.00    +0.015 C 
ATOM      5  C   UNL     1      32.957 -24.208 -14.435  0.00  0.00    +0.013 C 
ATOM      6  C   UNL     1      33.493 -23.194 -16.561  0.00  0.00    +0.007 C 
ATOM      7  C   UNL     1      33.904 -23.736 -15.344  0.00  0.00    +0.030 C 
ENDROOT
BRANCH   2   9
ATOM      8  O   UNL     1      29.030 -21.697 -15.018  0.00  0.00    -0.263 OA
ATOM      9  N   UNL     1      29.832 -23.516 -16.293  0.00  0.00    -0.275 N 
ATOM     10  C   UNL     1      28.891 -22.610 -15.816  0.00  0.00    +0.325 C 
ATOM     11  H   UNL     1      29.504 -24.181 -16.941  0.00  0.00    +0.155 HD
BRANCH  10  13
ATOM     12  O   UNL     1      26.496 -22.392 -15.925  0.00  0.00    -0.240 OA
ATOM     13  C   UNL     1      27.515 -22.841 -16.412  0.00  0.00    +0.393 C 
BRANCH  13  14
ATOM     14  O   UNL     1      27.609 -23.592 -17.520  0.00  0.00    -0.474 OA
ATOM     15  H   UNL     1      27.263 -24.463 -17.527  0.00  0.00    +0.296 HD
ENDBRANCH  13  14
ENDBRANCH  10  13
ENDBRANCH   2   9
BRANCH   3  17
ATOM     16  O   UNL     1      30.515 -24.236 -12.614  0.00  0.00    -0.245 OA
ATOM     17  C   UNL     1      30.635 -24.639 -13.773  0.00  0.00    +0.339 C 
BRANCH  17  18
ATOM     18  O   UNL     1      29.852 -25.627 -14.284  0.00  0.00    -0.477 OA
ATOM     19  H   UNL     1      30.087 -26.041 -15.090  0.00  0.00    +0.295 HD
ENDBRANCH  17  18
ENDBRANCH   3  17
TORSDOF 5
ENDMDL
MODEL 7
REMARK VINA RESULT:      -7.4      2.847      4.541
REMARK  Name = 1829
REMARK  5 active torsions:
REMARK  status: ('A' for Active; 'I' for Inactive)
REMARK    1  A    between atoms: C_2  and  N_9
REMARK    2  A    between atoms: C_3  and  C_17
REMARK    3  A    between atoms: C_10  and  C_13
REMARK    4  A    between atoms: C_13  and  O_14
REMARK    5  A    between atoms: C_17  and  O_18
REMARK                            x       y       z     vdW  Elec       q    Type
REMARK                         _______ _______ _______ _____ _____    ______ ____
ROOT
ATOM      1  I   UNL     1      29.007 -23.095 -16.096  0.00  0.00    -0.043 I 
ATOM      2  C   UNL     1      33.261 -24.470 -14.169  0.00  0.00    +0.057 C 
ATOM      3  C   UNL     1      33.238 -23.622 -15.278  0.00  0.00    +0.089 C 
ATOM      4  C   UNL     1      32.065 -24.923 -13.615  0.00  0.00    +0.015 C 
ATOM      5  C   UNL     1      32.020 -23.228 -15.830  0.00  0.00    +0.013 C 
ATOM      6  C   UNL     1      30.846 -24.529 -14.166  0.00  0.00    +0.007 C 
ATOM      7  C   UNL     1      30.823 -23.682 -15.275  0.00  0.00    +0.030 C 
ENDROOT
BRANCH   2   9
ATOM      8  O   UNL     1      34.618 -23.632 -11.598  0.00  0.00    -0.263 OA
ATOM      9  N   UNL     1      34.470 -24.877 -13.600  0.00  0.00    -0.275 N 
ATOM     10  C   UNL     1      35.037 -24.446 -12.405  0.00  0.00    +0.325 C 
ATOM     11  H   UNL     1      34.982 -25.550 -14.105  0.00  0.00    +0.155 HD
BRANCH  10  13
ATOM     12  O   UNL     1      37.151 -24.719 -11.286  0.00  0.00    -0.240 OA
ATOM     13  C   UNL     1      36.365 -25.122 -12.120  0.00  0.00    +0.393 C 
BRANCH  13  14
ATOM     14  O   UNL     1      36.518 -26.196 -12.910  0.00  0.00    -0.474 OA
ATOM     15  H   UNL     1      36.307 -27.050 -12.585  0.00  0.00    +0.296 HD
ENDBRANCH  13  14
ENDBRANCH  10  13
ENDBRANCH   2   9
BRANCH   3  17
ATOM     16  O   UNL     1      35.366 -22.528 -15.284  0.00  0.00    -0.245 OA
ATOM     17  C   UNL     1      34.470 -23.130 -15.881  0.00  0.00    +0.339 C 
BRANCH  17  18
ATOM     18  O   UNL     1      34.542 -23.408 -17.211  0.00  0.00    -0.477 OA
ATOM     19  H   UNL     1      35.268 -23.894 -17.549  0.00  0.00    +0.295 HD
ENDBRANCH  17  18
ENDBRANCH   3  17
TORSDOF 5
ENDMDL
MODEL 8
REMARK VINA RESULT:      -7.3      3.017      4.456
REMARK  Name = 1829
REMARK  5 active torsions:
REMARK  status: ('A' for Active; 'I' for Inactive)
REMARK    1  A    between atoms: C_2  and  N_9
REMARK    2  A    between atoms: C_3  and  C_17
REMARK    3  A    between atoms: C_10  and  C_13
REMARK    4  A    between atoms: C_13  and  O_14
REMARK    5  A    between atoms: C_17  and  O_18
REMARK                            x       y       z     vdW  Elec       q    Type
REMARK                         _______ _______ _______ _____ _____    ______ ____
ROOT
ATOM      1  I   UNL     1      33.962 -22.505 -19.042  0.00  0.00    -0.043 I 
ATOM      2  C   UNL     1      34.843 -23.344 -14.329  0.00  0.00    +0.057 C 
ATOM      3  C   UNL     1      33.561 -23.538 -14.845  0.00  0.00    +0.089 C 
ATOM      4  C   UNL     1      35.871 -22.910 -15.165  0.00  0.00    +0.015 C 
ATOM      5  C   UNL     1      33.308 -23.298 -16.195  0.00  0.00    +0.013 C 
ATOM      6  C   UNL     1      35.619 -22.670 -16.515  0.00  0.00    +0.007 C 
ATOM      7  C   UNL     1      34.337 -22.863 -17.031  0.00  0.00    +0.030 C 
ENDROOT
BRANCH   2   9
ATOM      8  O   UNL     1      36.473 -25.514 -12.992  0.00  0.00    -0.263 OA
ATOM      9  N   UNL     1      35.119 -23.578 -12.980  0.00  0.00    -0.275 N 
ATOM     10  C   UNL     1      35.882 -24.605 -12.432  0.00  0.00    +0.325 C 
ATOM     11  H   UNL     1      34.726 -22.941 -12.340  0.00  0.00    +0.155 HD
BRANCH  10  13
ATOM     12  O   UNL     1      35.191 -25.125 -10.185  0.00  0.00    -0.240 OA
ATOM     13  C   UNL     1      35.952 -24.526 -10.918  0.00  0.00    +0.393 C 
BRANCH  13  14
ATOM     14  O   UNL     1      36.955 -23.718 -10.542  0.00  0.00    -0.474 OA
ATOM     15  H   UNL     1      37.349 -23.822  -9.698  0.00  0.00    +0.296 HD
ENDBRANCH  13  14
ENDBRANCH  10  13
ENDBRANCH   2   9
BRANCH   3  17
ATOM     16  O   UNL     1      31.852 -25.053 -14.133  0.00  0.00    -0.245 OA
ATOM     17  C   UNL     1      32.464 -23.991 -13.999  0.00  0.00    +0.339 C 
BRANCH  17  18
ATOM     18  O   UNL     1      32.170 -23.102 -13.012  0.00  0.00    -0.477 OA
ATOM     19  H   UNL     1      31.977 -22.211 -13.228  0.00  0.00    +0.295 HD
ENDBRANCH  17  18
ENDBRANCH   3  17
TORSDOF 5
ENDMDL
MODEL 9
REMARK VINA RESULT:      -7.3      3.324      4.522
REMARK  Name = 1829
REMARK  5 active torsions:
REMARK  status: ('A' for Active; 'I' for Inactive)
REMARK    1  A    between atoms: C_2  and  N_9
REMARK    2  A    between atoms: C_3  and  C_17
REMARK    3  A    between atoms: C_10  and  C_13
REMARK    4  A    between atoms: C_13  and  O_14
REMARK    5  A    between atoms: C_17  and  O_18
REMARK                            x       y       z     vdW  Elec       q    Type
REMARK                         _______ _______ _______ _____ _____    ______ ____
ROOT
ATOM      1  I   UNL     1      29.017 -23.157 -16.121  0.00  0.00    -0.043 I 
ATOM      2  C   UNL     1      33.828 -23.375 -15.417  0.00  0.00    +0.057 C 
ATOM      3  C   UNL     1      33.319 -23.190 -16.703  0.00  0.00    +0.089 C 
ATOM      4  C   UNL     1      32.958 -23.497 -14.334  0.00  0.00    +0.015 C 
ATOM      5  C   UNL     1      31.941 -23.127 -16.905  0.00  0.00    +0.013 C 
ATOM      6  C   UNL     1      31.580 -23.434 -14.536  0.00  0.00    +0.007 C 
ATOM      7  C   UNL     1      31.070 -23.250 -15.822  0.00  0.00    +0.030 C 
ENDROOT
BRANCH   2   9
ATOM      8  O   UNL     1      35.724 -25.733 -15.427  0.00  0.00    -0.263 OA
ATOM      9  N   UNL     1      35.206 -23.441 -15.191  0.00  0.00    -0.275 N 
ATOM     10  C   UNL     1      36.020 -24.569 -15.211  0.00  0.00    +0.325 C 
ATOM     11  H   UNL     1      35.653 -22.587 -14.994  0.00  0.00    +0.155 HD
BRANCH  10  13
ATOM     12  O   UNL     1      37.815 -23.249 -14.300  0.00  0.00    -0.240 OA
ATOM     13  C   UNL     1      37.470 -24.238 -14.916  0.00  0.00    +0.393 C 
BRANCH  13  14
ATOM     14  O   UNL     1      38.275 -25.182 -15.428  0.00  0.00    -0.474 OA
ATOM     15  H   UNL     1      38.802 -25.707 -14.858  0.00  0.00    +0.296 HD
ENDBRANCH  13  14
ENDBRANCH  10  13
ENDBRANCH   2   9
BRANCH   3  17
ATOM     16  O   UNL     1      35.212 -22.354 -17.903  0.00  0.00    -0.245 OA
ATOM     17  C   UNL     1      34.201 -23.058 -17.856  0.00  0.00    +0.339 C 
BRANCH  17  18
ATOM     18  O   UNL     1      33.789 -23.812 -18.911  0.00  0.00    -0.477 OA
ATOM     19  H   UNL     1      33.120 -24.456 -18.793  0.00  0.00    +0.295 HD
ENDBRANCH  17  18
ENDBRANCH   3  17
TORSDOF 5
ENDMDL
