MODEL 1
REMARK VINA RESULT:     -10.7      0.000      0.000
REMARK  Name = 23647657
REMARK  5 active torsions:
REMARK  status: ('A' for Active; 'I' for Inactive)
REMARK    1  A    between atoms: C_1  and  S_26
REMARK    2  A    between atoms: C_2  and  C_25
REMARK    3  A    between atoms: C_3  and  C_8
REMARK    4  A    between atoms: C_10  and  C_16
REMARK    5  A    between atoms: S_26  and  N_29
REMARK                            x       y       z     vdW  Elec       q    Type
REMARK                         _______ _______ _______ _____ _____    ______ ____
ROOT
ATOM      1  C   UNL     1      32.363 -11.911 -22.263  0.00  0.00    +0.126 C 
ATOM      2  C   UNL     1      33.246 -12.002 -23.339  0.00  0.00    +0.090 C 
ATOM      3  C   UNL     1      33.529 -14.363 -22.905  0.00  0.00    +0.035 C 
ATOM      4  C   UNL     1      33.829 -13.228 -23.661  0.00  0.00    +0.008 C 
ATOM      5  C   UNL     1      32.063 -13.044 -21.508  0.00  0.00    +0.020 C 
ATOM      6  C   UNL     1      32.647 -14.270 -21.829  0.00  0.00    +0.004 C 
ENDROOT
BRANCH   3   8
ATOM      7  O   UNL     1      34.699 -16.296 -22.198  0.00  0.00    -0.453 OA
ATOM      8  C   UNL     1      34.131 -15.630 -23.238  0.00  0.00    +0.145 C 
ATOM      9  C   UNL     1      34.270 -16.345 -24.404  0.00  0.00    +0.041 C 
ATOM     10  C   UNL     1      35.205 -17.451 -22.706  0.00  0.00    +0.147 C 
ATOM     11  C   UNL     1      34.967 -17.529 -24.059  0.00  0.00    +0.041 C 
BRANCH  10  16
ATOM     12  S   UNL     1      33.581 -19.610 -21.030  0.00  0.00    -0.027 S 
ATOM     13  O   UNL     1      37.222 -20.366 -20.227  0.00  0.00    -0.209 OA
ATOM     14  N   UNL     1      35.126 -21.184 -19.667  0.00  0.00    -0.311 NA
ATOM     15  N   UNL     1      32.788 -21.606 -19.446  0.00  0.00    -0.327 N 
ATOM     16  C   UNL     1      35.873 -18.398 -21.898  0.00  0.00    +0.057 C 
ATOM     17  C   UNL     1      35.270 -19.349 -21.156  0.00  0.00    +0.131 C 
ATOM     18  C   UNL     1      36.002 -20.332 -20.316  0.00  0.00    +0.213 C 
ATOM     19  C   UNL     1      33.877 -20.946 -19.927  0.00  0.00    +0.222 C 
ATOM     20  H   UNL     1      31.884 -21.328 -19.720  0.00  0.00    +0.145 HD
ATOM     21  H   UNL     1      32.904 -22.360 -18.824  0.00  0.00    +0.145 HD
ENDBRANCH  10  16
ENDBRANCH   3   8
BRANCH   2  25
ATOM     22  F   UNL     1      32.517 -10.007 -24.438  0.00  0.00    -0.166 F 
ATOM     23  F   UNL     1      34.510  -9.986 -23.582  0.00  0.00    -0.166 F 
ATOM     24  F   UNL     1      34.113 -11.143 -25.379  0.00  0.00    -0.166 F 
ATOM     25  C   UNL     1      33.588 -10.807 -24.167  0.00  0.00    +0.420 C 
ENDBRANCH   2  25
BRANCH   1  26
ATOM     26  S   UNL     1      31.614 -10.389 -21.832  0.00  0.00    +0.057 S 
ATOM     27  O   UNL     1      32.668  -9.423 -21.562  0.00  0.00    -0.153 OA
ATOM     28  O   UNL     1      30.588 -10.087 -22.817  0.00  0.00    -0.153 OA
BRANCH  26  29
ATOM     29  N   UNL     1      30.857 -10.809 -20.359  0.00  0.00    -0.203 NA
ATOM     30  H   UNL     1      30.934 -10.032 -19.704  0.00  0.00    +0.144 HD
ATOM     31  H   UNL     1      31.313 -11.633 -19.965  0.00  0.00    +0.144 HD
ENDBRANCH  26  29
ENDBRANCH   1  26
TORSDOF 5
ENDMDL
MODEL 2
REMARK VINA RESULT:     -10.5      2.008      2.566
REMARK  Name = 23647657
REMARK  5 active torsions:
REMARK  status: ('A' for Active; 'I' for Inactive)
REMARK    1  A    between atoms: C_1  and  S_26
REMARK    2  A    between atoms: C_2  and  C_25
REMARK    3  A    between atoms: C_3  and  C_8
REMARK    4  A    between atoms: C_10  and  C_16
REMARK    5  A    between atoms: S_26  and  N_29
REMARK                            x       y       z     vdW  Elec       q    Type
REMARK                         _______ _______ _______ _____ _____    ______ ____
ROOT
ATOM      1  C   UNL     1      32.693 -10.969 -22.967  0.00  0.00    +0.126 C 
ATOM      2  C   UNL     1      32.355 -11.997 -22.085  0.00  0.00    +0.090 C 
ATOM      3  C   UNL     1      33.564 -13.573 -23.460  0.00  0.00    +0.035 C 
ATOM      4  C   UNL     1      32.791 -13.299 -22.332  0.00  0.00    +0.008 C 
ATOM      5  C   UNL     1      33.466 -11.244 -24.095  0.00  0.00    +0.020 C 
ATOM      6  C   UNL     1      33.901 -12.546 -24.341  0.00  0.00    +0.004 C 
ENDROOT
BRANCH   3   8
ATOM      7  O   UNL     1      34.703 -15.506 -22.701  0.00  0.00    -0.453 OA
ATOM      8  C   UNL     1      34.015 -14.919 -23.716  0.00  0.00    +0.145 C 
ATOM      9  C   UNL     1      33.906 -15.776 -24.786  0.00  0.00    +0.041 C 
ATOM     10  C   UNL     1      35.036 -16.752 -23.128  0.00  0.00    +0.147 C 
ATOM     11  C   UNL     1      34.569 -16.968 -24.403  0.00  0.00    +0.041 C 
BRANCH  10  16
ATOM     12  S   UNL     1      33.553 -18.967 -21.394  0.00  0.00    -0.027 S 
ATOM     13  O   UNL     1      37.240 -19.527 -20.646  0.00  0.00    -0.209 OA
ATOM     14  N   UNL     1      35.198 -20.441 -20.038  0.00  0.00    -0.311 NA
ATOM     15  N   UNL     1      32.888 -20.977 -19.769  0.00  0.00    -0.327 N 
ATOM     16  C   UNL     1      35.766 -17.654 -22.319  0.00  0.00    +0.057 C 
ATOM     17  C   UNL     1      35.224 -18.623 -21.553  0.00  0.00    +0.131 C 
ATOM     18  C   UNL     1      36.019 -19.556 -20.714  0.00  0.00    +0.213 C 
ATOM     19  C   UNL     1      33.935 -20.269 -20.279  0.00  0.00    +0.222 C 
ATOM     20  H   UNL     1      31.967 -20.748 -20.030  0.00  0.00    +0.145 HD
ATOM     21  H   UNL     1      33.053 -21.715 -19.140  0.00  0.00    +0.145 HD
ENDBRANCH  10  16
ENDBRANCH   3   8
BRANCH   2  25
ATOM     22  F   UNL     1      31.943 -10.653 -20.149  0.00  0.00    -0.166 F 
ATOM     23  F   UNL     1      30.213 -11.498 -21.146  0.00  0.00    -0.166 F 
ATOM     24  F   UNL     1      31.536 -12.784 -19.996  0.00  0.00    -0.166 F 
ATOM     25  C   UNL     1      31.529 -11.736 -20.869  0.00  0.00    +0.420 C 
ENDBRANCH   2  25
BRANCH   1  26
ATOM     26  S   UNL     1      32.163  -9.325 -22.688  0.00  0.00    +0.057 S 
ATOM     27  O   UNL     1      30.728  -9.263 -22.920  0.00  0.00    -0.153 OA
ATOM     28  O   UNL     1      32.714  -8.874 -21.419  0.00  0.00    -0.153 OA
BRANCH  26  29
ATOM     29  N   UNL     1      32.965  -8.510 -23.957  0.00  0.00    -0.203 NA
ATOM     30  H   UNL     1      33.731  -7.955 -23.574  0.00  0.00    +0.144 HD
ATOM     31  H   UNL     1      32.307  -7.895 -24.436  0.00  0.00    +0.144 HD
ENDBRANCH  26  29
ENDBRANCH   1  26
TORSDOF 5
ENDMDL
MODEL 3
REMARK VINA RESULT:     -10.4      6.917     11.245
REMARK  Name = 23647657
REMARK  5 active torsions:
REMARK  status: ('A' for Active; 'I' for Inactive)
REMARK    1  A    between atoms: C_1  and  S_26
REMARK    2  A    between atoms: C_2  and  C_25
REMARK    3  A    between atoms: C_3  and  C_8
REMARK    4  A    between atoms: C_10  and  C_16
REMARK    5  A    between atoms: S_26  and  N_29
REMARK                            x       y       z     vdW  Elec       q    Type
REMARK                         _______ _______ _______ _____ _____    ______ ____
ROOT
ATOM      1  C   UNL     1      36.578 -23.109 -16.125  0.00  0.00    +0.126 C 
ATOM      2  C   UNL     1      35.193 -23.276 -16.171  0.00  0.00    +0.090 C 
ATOM      3  C   UNL     1      35.095 -21.904 -18.158  0.00  0.00    +0.035 C 
ATOM      4  C   UNL     1      34.452 -22.674 -17.187  0.00  0.00    +0.008 C 
ATOM      5  C   UNL     1      37.220 -22.340 -17.095  0.00  0.00    +0.020 C 
ATOM      6  C   UNL     1      36.479 -21.738 -18.111  0.00  0.00    +0.004 C 
ENDROOT
BRANCH   3   8
ATOM      7  O   UNL     1      35.056 -20.645 -20.163  0.00  0.00    -0.453 OA
ATOM      8  C   UNL     1      34.328 -21.282 -19.209  0.00  0.00    +0.145 C 
ATOM      9  C   UNL     1      32.983 -21.180 -19.477  0.00  0.00    +0.041 C 
ATOM     10  C   UNL     1      34.167 -20.130 -21.052  0.00  0.00    +0.147 C 
ATOM     11  C   UNL     1      32.878 -20.432 -20.676  0.00  0.00    +0.041 C 
BRANCH  10  16
ATOM     12  S   UNL     1      34.238 -16.952 -21.008  0.00  0.00    -0.027 S 
ATOM     13  O   UNL     1      35.423 -17.853 -24.508  0.00  0.00    -0.209 OA
ATOM     14  N   UNL     1      35.042 -15.940 -23.255  0.00  0.00    -0.311 NA
ATOM     15  N   UNL     1      34.500 -14.354 -21.557  0.00  0.00    -0.327 N 
ATOM     16  C   UNL     1      34.578 -19.396 -22.187  0.00  0.00    +0.057 C 
ATOM     17  C   UNL     1      34.641 -18.050 -22.261  0.00  0.00    +0.131 C 
ATOM     18  C   UNL     1      35.078 -17.306 -23.470  0.00  0.00    +0.213 C 
ATOM     19  C   UNL     1      34.641 -15.609 -22.067  0.00  0.00    +0.222 C 
ATOM     20  H   UNL     1      34.184 -14.231 -20.633  0.00  0.00    +0.145 HD
ATOM     21  H   UNL     1      34.713 -13.570 -22.113  0.00  0.00    +0.145 HD
ENDBRANCH  10  16
ENDBRANCH   3   8
BRANCH   2  25
ATOM     22  F   UNL     1      34.825 -25.411 -15.158  0.00  0.00    -0.166 F 
ATOM     23  F   UNL     1      34.695 -23.674 -13.866  0.00  0.00    -0.166 F 
ATOM     24  F   UNL     1      33.122 -24.069 -15.314  0.00  0.00    -0.166 F 
ATOM     25  C   UNL     1      34.475 -24.093 -15.147  0.00  0.00    +0.420 C 
ENDBRANCH   2  25
BRANCH   1  26
ATOM     26  S   UNL     1      37.539 -23.851 -14.864  0.00  0.00    +0.057 S 
ATOM     27  O   UNL     1      37.495 -22.990 -13.692  0.00  0.00    -0.153 OA
ATOM     28  O   UNL     1      37.151 -25.248 -14.753  0.00  0.00    -0.153 OA
BRANCH  26  29
ATOM     29  N   UNL     1      39.098 -23.765 -15.557  0.00  0.00    -0.203 NA
ATOM     30  H   UNL     1      39.789 -23.621 -14.821  0.00  0.00    +0.144 HD
ATOM     31  H   UNL     1      39.135 -22.986 -16.215  0.00  0.00    +0.144 HD
ENDBRANCH  26  29
ENDBRANCH   1  26
TORSDOF 5
ENDMDL
MODEL 4
REMARK VINA RESULT:     -10.2      4.570      9.478
REMARK  Name = 23647657
REMARK  5 active torsions:
REMARK  status: ('A' for Active; 'I' for Inactive)
REMARK    1  A    between atoms: C_1  and  S_26
REMARK    2  A    between atoms: C_2  and  C_25
REMARK    3  A    between atoms: C_3  and  C_8
REMARK    4  A    between atoms: C_10  and  C_16
REMARK    5  A    between atoms: S_26  and  N_29
REMARK                            x       y       z     vdW  Elec       q    Type
REMARK                         _______ _______ _______ _____ _____    ______ ____
ROOT
ATOM      1  C   UNL     1      34.052 -21.106 -19.733  0.00  0.00    +0.126 C 
ATOM      2  C   UNL     1      35.236 -20.509 -20.166  0.00  0.00    +0.090 C 
ATOM      3  C   UNL     1      33.970 -18.668 -21.087  0.00  0.00    +0.035 C 
ATOM      4  C   UNL     1      35.195 -19.290 -20.844  0.00  0.00    +0.008 C 
ATOM      5  C   UNL     1      32.828 -20.484 -19.975  0.00  0.00    +0.020 C 
ATOM      6  C   UNL     1      32.787 -19.265 -20.652  0.00  0.00    +0.004 C 
ENDROOT
BRANCH   3   8
ATOM      7  O   UNL     1      33.098 -16.473 -21.254  0.00  0.00    -0.453 OA
ATOM      8  C   UNL     1      33.928 -17.408 -21.786  0.00  0.00    +0.145 C 
ATOM      9  C   UNL     1      34.555 -16.917 -22.908  0.00  0.00    +0.041 C 
ATOM     10  C   UNL     1      33.197 -15.371 -22.044  0.00  0.00    +0.147 C 
ATOM     11  C   UNL     1      34.081 -15.593 -23.074  0.00  0.00    +0.041 C 
BRANCH  10  16
ATOM     12  S   UNL     1      33.832 -12.670 -23.597  0.00  0.00    -0.027 S 
ATOM     13  O   UNL     1      30.965 -11.746 -21.273  0.00  0.00    -0.209 OA
ATOM     14  N   UNL     1      32.293 -10.715 -22.870  0.00  0.00    -0.311 NA
ATOM     15  N   UNL     1      33.899 -10.179 -24.551  0.00  0.00    -0.327 N 
ATOM     16  C   UNL     1      32.462 -14.192 -21.784  0.00  0.00    +0.057 C 
ATOM     17  C   UNL     1      32.659 -13.004 -22.392  0.00  0.00    +0.131 C 
ATOM     18  C   UNL     1      31.869 -11.781 -22.097  0.00  0.00    +0.213 C 
ATOM     19  C   UNL     1      33.270 -11.007 -23.672  0.00  0.00    +0.222 C 
ATOM     20  H   UNL     1      34.634 -10.522 -25.110  0.00  0.00    +0.145 HD
ATOM     21  H   UNL     1      33.620  -9.239 -24.628  0.00  0.00    +0.145 HD
ENDBRANCH  10  16
ENDBRANCH   3   8
BRANCH   2  25
ATOM     22  F   UNL     1      36.850 -21.325 -18.601  0.00  0.00    -0.166 F 
ATOM     23  F   UNL     1      36.679 -22.390 -20.482  0.00  0.00    -0.166 F 
ATOM     24  F   UNL     1      37.597 -20.420 -20.431  0.00  0.00    -0.166 F 
ATOM     25  C   UNL     1      36.564 -21.150 -19.923  0.00  0.00    +0.420 C 
ENDBRANCH   2  25
BRANCH   1  26
ATOM     26  S   UNL     1      34.067 -22.634 -18.880  0.00  0.00    +0.057 S 
ATOM     27  O   UNL     1      34.144 -23.704 -19.864  0.00  0.00    -0.153 OA
ATOM     28  O   UNL     1      35.053 -22.556 -17.814  0.00  0.00    -0.153 OA
BRANCH  26  29
ATOM     29  N   UNL     1      32.505 -22.631 -18.188  0.00  0.00    -0.203 NA
ATOM     30  H   UNL     1      31.837 -23.018 -18.854  0.00  0.00    +0.144 HD
ATOM     31  H   UNL     1      32.238 -21.674 -17.956  0.00  0.00    +0.144 HD
ENDBRANCH  26  29
ENDBRANCH   1  26
TORSDOF 5
ENDMDL
MODEL 5
REMARK VINA RESULT:     -10.1      4.362      6.165
REMARK  Name = 23647657
REMARK  5 active torsions:
REMARK  status: ('A' for Active; 'I' for Inactive)
REMARK    1  A    between atoms: C_1  and  S_26
REMARK    2  A    between atoms: C_2  and  C_25
REMARK    3  A    between atoms: C_3  and  C_8
REMARK    4  A    between atoms: C_10  and  C_16
REMARK    5  A    between atoms: S_26  and  N_29
REMARK                            x       y       z     vdW  Elec       q    Type
REMARK                         _______ _______ _______ _____ _____    ______ ____
ROOT
ATOM      1  C   UNL     1      34.434 -17.259 -23.125  0.00  0.00    +0.126 C 
ATOM      2  C   UNL     1      33.987 -17.029 -21.824  0.00  0.00    +0.090 C 
ATOM      3  C   UNL     1      34.408 -19.344 -21.271  0.00  0.00    +0.035 C 
ATOM      4  C   UNL     1      33.973 -18.071 -20.897  0.00  0.00    +0.008 C 
ATOM      5  C   UNL     1      34.869 -18.530 -23.499  0.00  0.00    +0.020 C 
ATOM      6  C   UNL     1      34.855 -19.573 -22.572  0.00  0.00    +0.004 C 
ENDROOT
BRANCH   3   8
ATOM      7  O   UNL     1      35.518 -20.547 -19.561  0.00  0.00    -0.453 OA
ATOM      8  C   UNL     1      34.393 -20.421 -20.313  0.00  0.00    +0.145 C 
ATOM      9  C   UNL     1      33.473 -21.385 -19.973  0.00  0.00    +0.041 C 
ATOM     10  C   UNL     1      35.313 -21.603 -18.730  0.00  0.00    +0.147 C 
ATOM     11  C   UNL     1      34.070 -22.152 -18.944  0.00  0.00    +0.041 C 
BRANCH  10  16
ATOM     12  S   UNL     1      34.489 -23.218 -16.118  0.00  0.00    -0.027 S 
ATOM     13  O   UNL     1      38.272 -22.912 -15.859  0.00  0.00    -0.209 OA
ATOM     14  N   UNL     1      36.527 -23.831 -14.638  0.00  0.00    -0.311 NA
ATOM     15  N   UNL     1      34.411 -24.565 -13.816  0.00  0.00    -0.327 N 
ATOM     16  C   UNL     1      36.288 -22.025 -17.797  0.00  0.00    +0.057 C 
ATOM     17  C   UNL     1      36.033 -22.714 -16.666  0.00  0.00    +0.131 C 
ATOM     18  C   UNL     1      37.081 -23.145 -15.705  0.00  0.00    +0.213 C 
ATOM     19  C   UNL     1      35.237 -23.949 -14.706  0.00  0.00    +0.222 C 
ATOM     20  H   UNL     1      33.441 -24.588 -13.980  0.00  0.00    +0.145 HD
ATOM     21  H   UNL     1      34.784 -24.988 -13.009  0.00  0.00    +0.145 HD
ENDBRANCH  10  16
ENDBRANCH   3   8
BRANCH   2  25
ATOM     22  F   UNL     1      34.516 -14.758 -21.292  0.00  0.00    -0.166 F 
ATOM     23  F   UNL     1      32.601 -15.125 -22.242  0.00  0.00    -0.166 F 
ATOM     24  F   UNL     1      32.912 -15.703 -20.169  0.00  0.00    -0.166 F 
ATOM     25  C   UNL     1      33.515 -15.679 -21.392  0.00  0.00    +0.420 C 
ENDBRANCH   2  25
BRANCH   1  26
ATOM     26  S   UNL     1      34.466 -15.974 -24.313  0.00  0.00    +0.057 S 
ATOM     27  O   UNL     1      33.093 -15.659 -24.679  0.00  0.00    -0.153 OA
ATOM     28  O   UNL     1      35.347 -14.923 -23.830  0.00  0.00    -0.153 OA
BRANCH  26  29
ATOM     29  N   UNL     1      35.220 -16.767 -25.624  0.00  0.00    -0.203 NA
ATOM     30  H   UNL     1      35.938 -16.161 -26.021  0.00  0.00    +0.144 HD
ATOM     31  H   UNL     1      34.524 -16.982 -26.339  0.00  0.00    +0.144 HD
ENDBRANCH  26  29
ENDBRANCH   1  26
TORSDOF 5
ENDMDL
MODEL 6
REMARK VINA RESULT:     -10.0      8.198     12.612
REMARK  Name = 23647657
REMARK  5 active torsions:
REMARK  status: ('A' for Active; 'I' for Inactive)
REMARK    1  A    between atoms: C_1  and  S_26
REMARK    2  A    between atoms: C_2  and  C_25
REMARK    3  A    between atoms: C_3  and  C_8
REMARK    4  A    between atoms: C_10  and  C_16
REMARK    5  A    between atoms: S_26  and  N_29
REMARK                            x       y       z     vdW  Elec       q    Type
REMARK                         _______ _______ _______ _____ _____    ______ ____
ROOT
ATOM      1  C   UNL     1      36.178 -24.340 -13.466  0.00  0.00    +0.126 C 
ATOM      2  C   UNL     1      37.155 -24.309 -14.462  0.00  0.00    +0.090 C 
ATOM      3  C   UNL     1      35.594 -23.230 -15.958  0.00  0.00    +0.035 C 
ATOM      4  C   UNL     1      36.863 -23.754 -15.708  0.00  0.00    +0.008 C 
ATOM      5  C   UNL     1      34.910 -23.816 -13.716  0.00  0.00    +0.020 C 
ATOM      6  C   UNL     1      34.618 -23.262 -14.963  0.00  0.00    +0.004 C 
ENDROOT
BRANCH   3   8
ATOM      7  O   UNL     1      36.288 -21.921 -17.805  0.00  0.00    -0.453 OA
ATOM      8  C   UNL     1      35.292 -22.657 -17.247  0.00  0.00    +0.145 C 
ATOM      9  C   UNL     1      34.190 -22.684 -18.069  0.00  0.00    +0.041 C 
ATOM     10  C   UNL     1      35.818 -21.473 -18.999  0.00  0.00    +0.147 C 
ATOM     11  C   UNL     1      34.532 -21.914 -19.208  0.00  0.00    +0.041 C 
BRANCH  10  16
ATOM     12  S   UNL     1      34.460 -19.307 -20.889  0.00  0.00    -0.027 S 
ATOM     13  O   UNL     1      38.176 -18.986 -21.639  0.00  0.00    -0.209 OA
ATOM     14  N   UNL     1      36.187 -18.012 -22.325  0.00  0.00    -0.311 NA
ATOM     15  N   UNL     1      33.909 -17.379 -22.650  0.00  0.00    -0.327 N 
ATOM     16  C   UNL     1      36.597 -20.666 -19.859  0.00  0.00    +0.057 C 
ATOM     17  C   UNL     1      36.111 -19.724 -20.692  0.00  0.00    +0.131 C 
ATOM     18  C   UNL     1      36.957 -18.891 -21.585  0.00  0.00    +0.213 C 
ATOM     19  C   UNL     1      34.915 -18.103 -22.085  0.00  0.00    +0.222 C 
ATOM     20  H   UNL     1      32.976 -17.542 -22.382  0.00  0.00    +0.145 HD
ATOM     21  H   UNL     1      34.115 -16.693 -23.325  0.00  0.00    +0.145 HD
ENDBRANCH  10  16
ENDBRANCH   3   8
BRANCH   2  25
ATOM     22  F   UNL     1      39.087 -24.439 -13.058  0.00  0.00    -0.166 F 
ATOM     23  F   UNL     1      38.554 -26.226 -14.166  0.00  0.00    -0.166 F 
ATOM     24  F   UNL     1      39.403 -24.517 -15.208  0.00  0.00    -0.166 F 
ATOM     25  C   UNL     1      38.522 -24.862 -14.226  0.00  0.00    +0.420 C 
ENDBRANCH   2  25
BRANCH   1  26
ATOM     26  S   UNL     1      36.510 -25.028 -11.891  0.00  0.00    +0.057 S 
ATOM     27  O   UNL     1      36.911 -26.415 -12.076  0.00  0.00    -0.153 OA
ATOM     28  O   UNL     1      37.376 -24.113 -11.164  0.00  0.00    -0.153 OA
BRANCH  26  29
ATOM     29  N   UNL     1      34.954 -24.990 -11.190  0.00  0.00    -0.203 NA
ATOM     30  H   UNL     1      34.536 -24.071 -11.340  0.00  0.00    +0.144 HD
ATOM     31  H   UNL     1      35.027 -25.170 -10.188  0.00  0.00    +0.144 HD
ENDBRANCH  26  29
ENDBRANCH   1  26
TORSDOF 5
ENDMDL
MODEL 7
REMARK VINA RESULT:      -9.9      3.212      9.119
REMARK  Name = 23647657
REMARK  5 active torsions:
REMARK  status: ('A' for Active; 'I' for Inactive)
REMARK    1  A    between atoms: C_1  and  S_26
REMARK    2  A    between atoms: C_2  and  C_25
REMARK    3  A    between atoms: C_3  and  C_8
REMARK    4  A    between atoms: C_10  and  C_16
REMARK    5  A    between atoms: S_26  and  N_29
REMARK                            x       y       z     vdW  Elec       q    Type
REMARK                         _______ _______ _______ _____ _____    ______ ____
ROOT
ATOM      1  C   UNL     1      34.455 -16.847 -22.098  0.00  0.00    +0.126 C 
ATOM      2  C   UNL     1      34.001 -16.075 -23.168  0.00  0.00    +0.090 C 
ATOM      3  C   UNL     1      33.128 -14.441 -21.615  0.00  0.00    +0.035 C 
ATOM      4  C   UNL     1      33.337 -14.872 -22.926  0.00  0.00    +0.008 C 
ATOM      5  C   UNL     1      34.247 -16.416 -20.788  0.00  0.00    +0.020 C 
ATOM      6  C   UNL     1      33.583 -15.213 -20.547  0.00  0.00    +0.004 C 
ENDROOT
BRANCH   3   8
ATOM      7  O   UNL     1      32.406 -12.331 -22.412  0.00  0.00    -0.453 OA
ATOM      8  C   UNL     1      32.442 -13.197 -21.366  0.00  0.00    +0.145 C 
ATOM      9  C   UNL     1      31.794 -12.666 -20.275  0.00  0.00    +0.041 C 
ATOM     10  C   UNL     1      31.726 -11.235 -21.986  0.00  0.00    +0.147 C 
ATOM     11  C   UNL     1      31.328 -11.391 -20.678  0.00  0.00    +0.041 C 
BRANCH  10  16
ATOM     12  S   UNL     1      32.180  -8.270 -20.931  0.00  0.00    -0.027 S 
ATOM     13  O   UNL     1      31.032  -7.804 -24.527  0.00  0.00    -0.209 OA
ATOM     14  N   UNL     1      31.663  -6.479 -22.733  0.00  0.00    -0.311 NA
ATOM     15  N   UNL     1      32.381  -5.627 -20.623  0.00  0.00    -0.327 N 
ATOM     16  C   UNL     1      31.495 -10.120 -22.824  0.00  0.00    +0.057 C 
ATOM     17  C   UNL     1      31.661  -8.831 -22.465  0.00  0.00    +0.131 C 
ATOM     18  C   UNL     1      31.410  -7.680 -23.371  0.00  0.00    +0.213 C 
ATOM     19  C   UNL     1      32.058  -6.613 -21.504  0.00  0.00    +0.222 C 
ATOM     20  H   UNL     1      32.669  -5.858 -19.710  0.00  0.00    +0.145 HD
ATOM     21  H   UNL     1      32.327  -4.683 -20.898  0.00  0.00    +0.145 HD
ENDBRANCH  10  16
ENDBRANCH   3   8
BRANCH   2  25
ATOM     22  F   UNL     1      35.508 -16.437 -24.989  0.00  0.00    -0.166 F 
ATOM     23  F   UNL     1      33.829 -17.799 -24.816  0.00  0.00    -0.166 F 
ATOM     24  F   UNL     1      33.501 -15.752 -25.469  0.00  0.00    -0.166 F 
ATOM     25  C   UNL     1      34.207 -16.508 -24.582  0.00  0.00    +0.420 C 
ENDBRANCH   2  25
BRANCH   1  26
ATOM     26  S   UNL     1      35.292 -18.361 -22.365  0.00  0.00    +0.057 S 
ATOM     27  O   UNL     1      34.319 -19.346 -22.814  0.00  0.00    -0.153 OA
ATOM     28  O   UNL     1      36.478 -18.096 -23.164  0.00  0.00    -0.153 OA
BRANCH  26  29
ATOM     29  N   UNL     1      35.774 -18.746 -20.772  0.00  0.00    -0.203 NA
ATOM     30  H   UNL     1      34.948 -18.891 -20.192  0.00  0.00    +0.144 HD
ATOM     31  H   UNL     1      36.327 -17.979 -20.389  0.00  0.00    +0.144 HD
ENDBRANCH  26  29
ENDBRANCH   1  26
TORSDOF 5
ENDMDL
MODEL 8
REMARK VINA RESULT:      -9.8      6.514      9.520
REMARK  Name = 23647657
REMARK  5 active torsions:
REMARK  status: ('A' for Active; 'I' for Inactive)
REMARK    1  A    between atoms: C_1  and  S_26
REMARK    2  A    between atoms: C_2  and  C_25
REMARK    3  A    between atoms: C_3  and  C_8
REMARK    4  A    between atoms: C_10  and  C_16
REMARK    5  A    between atoms: S_26  and  N_29
REMARK                            x       y       z     vdW  Elec       q    Type
REMARK                         _______ _______ _______ _____ _____    ______ ____
ROOT
ATOM      1  C   UNL     1      35.636 -20.053 -20.462  0.00  0.00    +0.126 C 
ATOM      2  C   UNL     1      34.290 -20.356 -20.257  0.00  0.00    +0.090 C 
ATOM      3  C   UNL     1      34.902 -21.861 -18.468  0.00  0.00    +0.035 C 
ATOM      4  C   UNL     1      33.922 -21.260 -19.260  0.00  0.00    +0.008 C 
ATOM      5  C   UNL     1      36.614 -20.654 -19.671  0.00  0.00    +0.020 C 
ATOM      6  C   UNL     1      36.247 -21.558 -18.674  0.00  0.00    +0.004 C 
ENDROOT
BRANCH   3   8
ATOM      7  O   UNL     1      35.546 -23.481 -16.865  0.00  0.00    -0.453 OA
ATOM      8  C   UNL     1      34.522 -22.796 -17.438  0.00  0.00    +0.145 C 
ATOM      9  C   UNL     1      33.320 -23.168 -16.881  0.00  0.00    +0.041 C 
ATOM     10  C   UNL     1      34.994 -24.299 -15.932  0.00  0.00    +0.147 C 
ATOM     11  C   UNL     1      33.627 -24.144 -15.902  0.00  0.00    +0.041 C 
BRANCH  10  16
ATOM     12  S   UNL     1      35.824 -23.497 -12.969  0.00  0.00    -0.027 S 
ATOM     13  O   UNL     1      37.381 -26.932 -13.466  0.00  0.00    -0.209 OA
ATOM     14  N   UNL     1      37.251 -25.321 -11.804  0.00  0.00    -0.311 NA
ATOM     15  N   UNL     1      36.803 -23.380 -10.490  0.00  0.00    -0.327 N 
ATOM     16  C   UNL     1      35.775 -25.166 -15.135  0.00  0.00    +0.057 C 
ATOM     17  C   UNL     1      36.173 -24.912 -13.871  0.00  0.00    +0.131 C 
ATOM     18  C   UNL     1      36.995 -25.845 -13.058  0.00  0.00    +0.213 C 
ATOM     19  C   UNL     1      36.728 -24.149 -11.612  0.00  0.00    +0.222 C 
ATOM     20  H   UNL     1      36.361 -22.501 -10.466  0.00  0.00    +0.145 HD
ATOM     21  H   UNL     1      37.300 -23.703  -9.704  0.00  0.00    +0.145 HD
ENDBRANCH  10  16
ENDBRANCH   3   8
BRANCH   2  25
ATOM     22  F   UNL     1      32.906 -18.458 -20.707  0.00  0.00    -0.166 F 
ATOM     23  F   UNL     1      33.539 -19.640 -22.412  0.00  0.00    -0.166 F 
ATOM     24  F   UNL     1      32.046 -20.427 -21.041  0.00  0.00    -0.166 F 
ATOM     25  C   UNL     1      33.217 -19.731 -21.088  0.00  0.00    +0.420 C 
ENDBRANCH   2  25
BRANCH   1  26
ATOM     26  S   UNL     1      36.132 -18.923 -21.703  0.00  0.00    +0.057 S 
ATOM     27  O   UNL     1      35.768 -19.480 -22.997  0.00  0.00    -0.153 OA
ATOM     28  O   UNL     1      35.669 -17.596 -21.328  0.00  0.00    -0.153 OA
BRANCH  26  29
ATOM     29  N   UNL     1      37.830 -18.983 -21.532  0.00  0.00    -0.203 NA
ATOM     30  H   UNL     1      38.068 -19.125 -20.550  0.00  0.00    +0.144 HD
ATOM     31  H   UNL     1      38.237 -18.106 -21.857  0.00  0.00    +0.144 HD
ENDBRANCH  26  29
ENDBRANCH   1  26
TORSDOF 5
ENDMDL
MODEL 9
REMARK VINA RESULT:      -9.8      3.552      4.791
REMARK  Name = 23647657
REMARK  5 active torsions:
REMARK  status: ('A' for Active; 'I' for Inactive)
REMARK    1  A    between atoms: C_1  and  S_26
REMARK    2  A    between atoms: C_2  and  C_25
REMARK    3  A    between atoms: C_3  and  C_8
REMARK    4  A    between atoms: C_10  and  C_16
REMARK    5  A    between atoms: S_26  and  N_29
REMARK                            x       y       z     vdW  Elec       q    Type
REMARK                         _______ _______ _______ _____ _____    ______ ____
ROOT
ATOM      1  C   UNL     1      33.965 -15.635 -24.029  0.00  0.00    +0.126 C 
ATOM      2  C   UNL     1      33.943 -15.493 -22.641  0.00  0.00    +0.090 C 
ATOM      3  C   UNL     1      34.960 -17.672 -22.402  0.00  0.00    +0.035 C 
ATOM      4  C   UNL     1      34.440 -16.511 -21.828  0.00  0.00    +0.008 C 
ATOM      5  C   UNL     1      34.484 -16.795 -24.603  0.00  0.00    +0.020 C 
ATOM      6  C   UNL     1      34.981 -17.813 -23.789  0.00  0.00    +0.004 C 
ENDROOT
BRANCH   3   8
ATOM      7  O   UNL     1      34.537 -19.533 -21.000  0.00  0.00    -0.453 OA
ATOM      8  C   UNL     1      35.474 -18.725 -21.562  0.00  0.00    +0.145 C 
ATOM      9  C   UNL     1      36.738 -19.114 -21.184  0.00  0.00    +0.041 C 
ATOM     10  C   UNL     1      35.210 -20.449 -20.255  0.00  0.00    +0.147 C 
ATOM     11  C   UNL     1      36.566 -20.234 -20.335  0.00  0.00    +0.041 C 
BRANCH  10  16
ATOM     12  S   UNL     1      36.485 -21.664 -17.608  0.00  0.00    -0.027 S 
ATOM     13  O   UNL     1      33.195 -23.533 -17.988  0.00  0.00    -0.209 OA
ATOM     14  N   UNL     1      34.993 -23.486 -16.526  0.00  0.00    -0.311 NA
ATOM     15  N   UNL     1      37.036 -23.028 -15.382  0.00  0.00    -0.327 N 
ATOM     16  C   UNL     1      34.544 -21.457 -19.522  0.00  0.00    +0.057 C 
ATOM     17  C   UNL     1      35.005 -22.029 -18.391  0.00  0.00    +0.131 C 
ATOM     18  C   UNL     1      34.280 -23.088 -17.643  0.00  0.00    +0.213 C 
ATOM     19  C   UNL     1      36.119 -22.861 -16.375  0.00  0.00    +0.222 C 
ATOM     20  H   UNL     1      37.860 -22.489 -15.377  0.00  0.00    +0.145 HD
ATOM     21  H   UNL     1      36.875 -23.688 -14.669  0.00  0.00    +0.145 HD
ENDBRANCH  10  16
ENDBRANCH   3   8
BRANCH   2  25
ATOM     22  F   UNL     1      33.650 -14.190 -20.657  0.00  0.00    -0.166 F 
ATOM     23  F   UNL     1      33.889 -13.105 -22.519  0.00  0.00    -0.166 F 
ATOM     24  F   UNL     1      32.038 -14.171 -22.115  0.00  0.00    -0.166 F 
ATOM     25  C   UNL     1      33.392 -14.264 -21.995  0.00  0.00    +0.420 C 
ENDBRANCH   2  25
BRANCH   1  26
ATOM     26  S   UNL     1      33.349 -14.377 -25.079  0.00  0.00    +0.057 S 
ATOM     27  O   UNL     1      31.951 -14.150 -24.746  0.00  0.00    -0.153 OA
ATOM     28  O   UNL     1      34.289 -13.267 -25.064  0.00  0.00    -0.153 OA
BRANCH  26  29
ATOM     29  N   UNL     1      33.438 -15.155 -26.597  0.00  0.00    -0.203 NA
ATOM     30  H   UNL     1      34.288 -14.862 -27.079  0.00  0.00    +0.144 HD
ATOM     31  H   UNL     1      32.625 -14.901 -27.158  0.00  0.00    +0.144 HD
ENDBRANCH  26  29
ENDBRANCH   1  26
TORSDOF 5
ENDMDL
