MODEL 1
REMARK VINA RESULT:      -8.2      0.000      0.000
REMARK  Name = 6540273
REMARK  7 active torsions:
REMARK  status: ('A' for Active; 'I' for Inactive)
REMARK    1  A    between atoms: C_2  and  N_14
REMARK    2  A    between atoms: C_6  and  N_13
REMARK    3  A    between atoms: N_14  and  C_16
REMARK    4  A    between atoms: C_16  and  C_17
REMARK    5  A    between atoms: C_17  and  O_18
REMARK    6  A    between atoms: C_17  and  C_20
REMARK    7  A    between atoms: C_20  and  N_21
REMARK                            x       y       z     vdW  Elec       q    Type
REMARK                         _______ _______ _______ _____ _____    ______ ____
ROOT
ATOM      1  N   UNL     1      34.924 -16.646 -20.530  0.00  0.00    -0.247 NA
ATOM      2  C   UNL     1      35.139 -18.750 -21.607  0.00  0.00    +0.117 C 
ATOM      3  C   UNL     1      34.905 -17.379 -21.661  0.00  0.00    +0.076 C 
ATOM      4  C   UNL     1      34.652 -16.797 -22.920  0.00  0.00    +0.024 C 
ATOM      5  C   UNL     1      35.128 -19.541 -22.759  0.00  0.00    -0.007 C 
ATOM      6  C   UNL     1      34.641 -17.593 -24.079  0.00  0.00    +0.211 C 
ATOM      7  C   UNL     1      34.877 -18.961 -23.996  0.00  0.00    +0.004 C 
ATOM      8  C   UNL     1      34.418 -15.417 -22.975  0.00  0.00    +0.001 C 
ATOM      9  C   UNL     1      34.436 -14.660 -21.812  0.00  0.00    +0.020 C 
ATOM     10  C   UNL     1      34.693 -15.317 -20.626  0.00  0.00    +0.098 C 
ENDROOT
BRANCH   6  13
ATOM     11  O   UNL     1      35.302 -16.407 -25.944  0.00  0.00    -0.130 OA
ATOM     12  O   UNL     1      33.264 -17.224 -25.893  0.00  0.00    -0.130 OA
ATOM     13  N   UNL     1      34.390 -17.047 -25.372  0.00  0.00    +0.041 N 
ENDBRANCH   6  13
BRANCH   2  14
ATOM     14  N   UNL     1      35.399 -19.382 -20.365  0.00  0.00    -0.288 NA
ATOM     15  H   UNL     1      35.039 -18.975 -19.544  0.00  0.00    +0.124 HD
BRANCH  14  16
ATOM     16  C   UNL     1      36.159 -20.583 -20.256  0.00  0.00    +0.096 C 
BRANCH  16  17
ATOM     17  C   UNL     1      35.276 -21.716 -19.727  0.00  0.00    +0.105 C 
BRANCH  17  18
ATOM     18  O   UNL     1      35.783 -22.108 -18.448  0.00  0.00    -0.385 OA
ATOM     19  H   UNL     1      35.614 -21.403 -17.804  0.00  0.00    +0.210 HD
ENDBRANCH  17  18
BRANCH  17  20
ATOM     20  C   UNL     1      33.813 -21.293 -19.547  0.00  0.00    -0.055 C 
BRANCH  20  21
ATOM     21  N   UNL     1      32.990 -22.372 -19.018  0.00  0.00    +0.382 N 
ATOM     22  H   UNL     1      33.374 -23.269 -19.316  0.00  0.00    -0.089 HD
ATOM     23  H   UNL     1      32.037 -22.276 -19.368  0.00  0.00    -0.089 HD
ATOM     24  H   UNL     1      32.983 -22.326 -17.999  0.00  0.00    -0.089 HD
ENDBRANCH  20  21
ENDBRANCH  17  20
ENDBRANCH  16  17
ENDBRANCH  14  16
ENDBRANCH   2  14
TORSDOF 7
ENDMDL
MODEL 2
REMARK VINA RESULT:      -8.1      2.784      6.652
REMARK  Name = 6540273
REMARK  7 active torsions:
REMARK  status: ('A' for Active; 'I' for Inactive)
REMARK    1  A    between atoms: C_2  and  N_14
REMARK    2  A    between atoms: C_6  and  N_13
REMARK    3  A    between atoms: N_14  and  C_16
REMARK    4  A    between atoms: C_16  and  C_17
REMARK    5  A    between atoms: C_17  and  O_18
REMARK    6  A    between atoms: C_17  and  C_20
REMARK    7  A    between atoms: C_20  and  N_21
REMARK                            x       y       z     vdW  Elec       q    Type
REMARK                         _______ _______ _______ _____ _____    ______ ____
ROOT
ATOM      1  N   UNL     1      34.539 -16.421 -24.768  0.00  0.00    -0.247 NA
ATOM      2  C   UNL     1      34.656 -15.411 -22.624  0.00  0.00    +0.117 C 
ATOM      3  C   UNL     1      34.629 -16.546 -23.430  0.00  0.00    +0.076 C 
ATOM      4  C   UNL     1      34.698 -17.807 -22.803  0.00  0.00    +0.024 C 
ATOM      5  C   UNL     1      34.750 -15.501 -21.233  0.00  0.00    -0.007 C 
ATOM      6  C   UNL     1      34.792 -17.898 -21.403  0.00  0.00    +0.211 C 
ATOM      7  C   UNL     1      34.817 -16.747 -20.622  0.00  0.00    +0.004 C 
ATOM      8  C   UNL     1      34.671 -18.949 -23.613  0.00  0.00    +0.001 C 
ATOM      9  C   UNL     1      34.577 -18.825 -24.992  0.00  0.00    +0.020 C 
ATOM     10  C   UNL     1      34.515 -17.549 -25.515  0.00  0.00    +0.098 C 
ENDROOT
BRANCH   6  13
ATOM     11  O   UNL     1      33.806 -19.786 -20.518  0.00  0.00    -0.130 OA
ATOM     12  O   UNL     1      35.986 -19.578 -20.366  0.00  0.00    -0.130 OA
ATOM     13  N   UNL     1      34.865 -19.152 -20.728  0.00  0.00    +0.041 N 
ENDBRANCH   6  13
BRANCH   2  14
ATOM     14  N   UNL     1      34.590 -14.120 -23.207  0.00  0.00    -0.288 NA
ATOM     15  H   UNL     1      35.395 -13.756 -23.641  0.00  0.00    +0.124 HD
BRANCH  14  16
ATOM     16  C   UNL     1      33.405 -13.328 -23.191  0.00  0.00    +0.096 C 
BRANCH  16  17
ATOM     17  C   UNL     1      33.392 -12.380 -24.392  0.00  0.00    +0.105 C 
BRANCH  17  18
ATOM     18  O   UNL     1      34.556 -11.553 -24.313  0.00  0.00    -0.385 OA
ATOM     19  H   UNL     1      34.978 -11.672 -23.447  0.00  0.00    +0.210 HD
ENDBRANCH  17  18
BRANCH  17  20
ATOM     20  C   UNL     1      33.429 -13.122 -25.734  0.00  0.00    -0.055 C 
BRANCH  20  21
ATOM     21  N   UNL     1      32.576 -14.303 -25.732  0.00  0.00    +0.382 N 
ATOM     22  H   UNL     1      32.651 -14.777 -26.632  0.00  0.00    -0.089 HD
ATOM     23  H   UNL     1      31.609 -14.024 -25.573  0.00  0.00    -0.089 HD
ATOM     24  H   UNL     1      32.874 -14.936 -24.989  0.00  0.00    -0.089 HD
ENDBRANCH  20  21
ENDBRANCH  17  20
ENDBRANCH  16  17
ENDBRANCH  14  16
ENDBRANCH   2  14
TORSDOF 7
ENDMDL
MODEL 3
REMARK VINA RESULT:      -8.0      7.434      9.462
REMARK  Name = 6540273
REMARK  7 active torsions:
REMARK  status: ('A' for Active; 'I' for Inactive)
REMARK    1  A    between atoms: C_2  and  N_14
REMARK    2  A    between atoms: C_6  and  N_13
REMARK    3  A    between atoms: N_14  and  C_16
REMARK    4  A    between atoms: C_16  and  C_17
REMARK    5  A    between atoms: C_17  and  O_18
REMARK    6  A    between atoms: C_17  and  C_20
REMARK    7  A    between atoms: C_20  and  N_21
REMARK                            x       y       z     vdW  Elec       q    Type
REMARK                         _______ _______ _______ _____ _____    ______ ____
ROOT
ATOM      1  N   UNL     1      32.337 -23.838 -13.472  0.00  0.00    -0.247 NA
ATOM      2  C   UNL     1      34.569 -23.470 -14.192  0.00  0.00    +0.117 C 
ATOM      3  C   UNL     1      33.210 -23.593 -14.469  0.00  0.00    +0.076 C 
ATOM      4  C   UNL     1      32.790 -23.455 -15.809  0.00  0.00    +0.024 C 
ATOM      5  C   UNL     1      35.503 -23.216 -15.200  0.00  0.00    -0.007 C 
ATOM      6  C   UNL     1      33.730 -23.199 -16.823  0.00  0.00    +0.211 C 
ATOM      7  C   UNL     1      35.082 -23.082 -16.517  0.00  0.00    +0.004 C 
ATOM      8  C   UNL     1      31.424 -23.577 -16.088  0.00  0.00    +0.001 C 
ATOM      9  C   UNL     1      30.522 -23.830 -15.064  0.00  0.00    +0.020 C 
ATOM     10  C   UNL     1      31.026 -23.950 -13.784  0.00  0.00    +0.098 C 
ENDROOT
BRANCH   6  13
ATOM     11  O   UNL     1      33.766 -23.886 -19.024  0.00  0.00    -0.130 OA
ATOM     12  O   UNL     1      32.612 -22.091 -18.509  0.00  0.00    -0.130 OA
ATOM     13  N   UNL     1      33.350 -23.051 -18.189  0.00  0.00    +0.041 N 
ENDBRANCH   6  13
BRANCH   2  14
ATOM     14  N   UNL     1      35.041 -23.601 -12.861  0.00  0.00    -0.288 NA
ATOM     15  H   UNL     1      34.409 -23.886 -12.163  0.00  0.00    +0.124 HD
BRANCH  14  16
ATOM     16  C   UNL     1      36.393 -23.338 -12.494  0.00  0.00    +0.096 C 
BRANCH  16  17
ATOM     17  C   UNL     1      37.000 -24.567 -11.814  0.00  0.00    +0.105 C 
BRANCH  17  18
ATOM     18  O   UNL     1      35.944 -25.272 -11.156  0.00  0.00    -0.385 OA
ATOM     19  H   UNL     1      36.018 -25.142 -10.197  0.00  0.00    +0.210 HD
ENDBRANCH  17  18
BRANCH  17  20
ATOM     20  C   UNL     1      37.664 -25.528 -12.807  0.00  0.00    -0.055 C 
BRANCH  20  21
ATOM     21  N   UNL     1      36.702 -26.429 -13.427  0.00  0.00    +0.382 N 
ATOM     22  H   UNL     1      36.634 -27.285 -12.876  0.00  0.00    -0.089 HD
ATOM     23  H   UNL     1      37.007 -26.655 -14.373  0.00  0.00    -0.089 HD
ATOM     24  H   UNL     1      35.787 -25.976 -13.464  0.00  0.00    -0.089 HD
ENDBRANCH  20  21
ENDBRANCH  17  20
ENDBRANCH  16  17
ENDBRANCH  14  16
ENDBRANCH   2  14
TORSDOF 7
ENDMDL
MODEL 4
REMARK VINA RESULT:      -7.9      2.576      6.328
REMARK  Name = 6540273
REMARK  7 active torsions:
REMARK  status: ('A' for Active; 'I' for Inactive)
REMARK    1  A    between atoms: C_2  and  N_14
REMARK    2  A    between atoms: C_6  and  N_13
REMARK    3  A    between atoms: N_14  and  C_16
REMARK    4  A    between atoms: C_16  and  C_17
REMARK    5  A    between atoms: C_17  and  O_18
REMARK    6  A    between atoms: C_17  and  C_20
REMARK    7  A    between atoms: C_20  and  N_21
REMARK                            x       y       z     vdW  Elec       q    Type
REMARK                         _______ _______ _______ _____ _____    ______ ____
ROOT
ATOM      1  N   UNL     1      34.372 -14.873 -23.113  0.00  0.00    -0.247 NA
ATOM      2  C   UNL     1      34.516 -16.791 -24.504  0.00  0.00    +0.117 C 
ATOM      3  C   UNL     1      34.538 -16.204 -23.241  0.00  0.00    +0.076 C 
ATOM      4  C   UNL     1      34.736 -17.041 -22.123  0.00  0.00    +0.024 C 
ATOM      5  C   UNL     1      34.684 -18.167 -24.675  0.00  0.00    -0.007 C 
ATOM      6  C   UNL     1      34.905 -18.426 -22.295  0.00  0.00    +0.211 C 
ATOM      7  C   UNL     1      34.879 -18.986 -23.569  0.00  0.00    +0.004 C 
ATOM      8  C   UNL     1      34.757 -16.451 -20.853  0.00  0.00    +0.001 C 
ATOM      9  C   UNL     1      34.588 -15.081 -20.717  0.00  0.00    +0.020 C 
ATOM     10  C   UNL     1      34.400 -14.343 -21.869  0.00  0.00    +0.098 C 
ENDROOT
BRANCH   6  13
ATOM     11  O   UNL     1      34.153 -20.021 -20.809  0.00  0.00    -0.130 OA
ATOM     12  O   UNL     1      36.235 -19.341 -20.647  0.00  0.00    -0.130 OA
ATOM     13  N   UNL     1      35.107 -19.308 -21.194  0.00  0.00    +0.041 N 
ENDBRANCH   6  13
BRANCH   2  14
ATOM     14  N   UNL     1      34.319 -15.992 -25.659  0.00  0.00    -0.288 NA
ATOM     15  H   UNL     1      35.079 -15.474 -26.009  0.00  0.00    +0.124 HD
BRANCH  14  16
ATOM     16  C   UNL     1      33.066 -15.910 -26.333  0.00  0.00    +0.096 C 
BRANCH  16  17
ATOM     17  C   UNL     1      32.583 -14.459 -26.365  0.00  0.00    +0.105 C 
BRANCH  17  18
ATOM     18  O   UNL     1      32.525 -13.984 -25.017  0.00  0.00    -0.385 OA
ATOM     19  H   UNL     1      31.655 -13.587 -24.852  0.00  0.00    +0.210 HD
ENDBRANCH  17  18
BRANCH  17  20
ATOM     20  C   UNL     1      33.523 -13.537 -27.152  0.00  0.00    -0.055 C 
BRANCH  20  21
ATOM     21  N   UNL     1      33.736 -12.264 -26.477  0.00  0.00    +0.382 N 
ATOM     22  H   UNL     1      34.574 -11.818 -26.849  0.00  0.00    -0.089 HD
ATOM     23  H   UNL     1      33.850 -12.424 -25.476  0.00  0.00    -0.089 HD
ATOM     24  H   UNL     1      32.930 -11.658 -26.634  0.00  0.00    -0.089 HD
ENDBRANCH  20  21
ENDBRANCH  17  20
ENDBRANCH  16  17
ENDBRANCH  14  16
ENDBRANCH   2  14
TORSDOF 7
ENDMDL
MODEL 5
REMARK VINA RESULT:      -7.8      4.701      9.254
REMARK  Name = 6540273
REMARK  7 active torsions:
REMARK  status: ('A' for Active; 'I' for Inactive)
REMARK    1  A    between atoms: C_2  and  N_14
REMARK    2  A    between atoms: C_6  and  N_13
REMARK    3  A    between atoms: N_14  and  C_16
REMARK    4  A    between atoms: C_16  and  C_17
REMARK    5  A    between atoms: C_17  and  O_18
REMARK    6  A    between atoms: C_17  and  C_20
REMARK    7  A    between atoms: C_20  and  N_21
REMARK                            x       y       z     vdW  Elec       q    Type
REMARK                         _______ _______ _______ _____ _____    ______ ____
ROOT
ATOM      1  N   UNL     1      36.015 -23.099 -16.432  0.00  0.00    -0.247 NA
ATOM      2  C   UNL     1      33.824 -23.027 -17.342  0.00  0.00    +0.117 C 
ATOM      3  C   UNL     1      34.684 -23.218 -16.263  0.00  0.00    +0.076 C 
ATOM      4  C   UNL     1      34.118 -23.534 -15.010  0.00  0.00    +0.024 C 
ATOM      5  C   UNL     1      32.439 -23.141 -17.204  0.00  0.00    -0.007 C 
ATOM      6  C   UNL     1      32.723 -23.649 -14.872  0.00  0.00    +0.211 C 
ATOM      7  C   UNL     1      31.888 -23.454 -15.967  0.00  0.00    +0.004 C 
ATOM      8  C   UNL     1      34.981 -23.725 -13.925  0.00  0.00    +0.001 C 
ATOM      9  C   UNL     1      36.353 -23.605 -14.095  0.00  0.00    +0.020 C 
ATOM     10  C   UNL     1      36.815 -23.292 -15.358  0.00  0.00    +0.098 C 
ENDROOT
BRANCH   6  13
ATOM     11  O   UNL     1      31.767 -23.032 -12.866  0.00  0.00    -0.130 OA
ATOM     12  O   UNL     1      31.931 -25.171 -13.330  0.00  0.00    -0.130 OA
ATOM     13  N   UNL     1      32.108 -23.966 -13.625  0.00  0.00    +0.041 N 
ENDBRANCH   6  13
BRANCH   2  14
ATOM     14  N   UNL     1      34.345 -22.707 -18.621  0.00  0.00    -0.288 NA
ATOM     15  H   UNL     1      35.005 -23.314 -19.027  0.00  0.00    +0.124 HD
BRANCH  14  16
ATOM     16  C   UNL     1      33.950 -21.543 -19.344  0.00  0.00    +0.096 C 
BRANCH  16  17
ATOM     17  C   UNL     1      35.101 -21.060 -20.228  0.00  0.00    +0.105 C 
BRANCH  17  18
ATOM     18  O   UNL     1      35.047 -19.632 -20.280  0.00  0.00    -0.385 OA
ATOM     19  H   UNL     1      35.480 -19.264 -19.493  0.00  0.00    +0.210 HD
ENDBRANCH  17  18
BRANCH  17  20
ATOM     20  C   UNL     1      36.477 -21.463 -19.684  0.00  0.00    -0.055 C 
BRANCH  20  21
ATOM     21  N   UNL     1      36.748 -20.869 -18.382  0.00  0.00    +0.382 N 
ATOM     22  H   UNL     1      36.792 -21.604 -17.676  0.00  0.00    -0.089 HD
ATOM     23  H   UNL     1      36.004 -20.213 -18.145  0.00  0.00    -0.089 HD
ATOM     24  H   UNL     1      37.640 -20.374 -18.413  0.00  0.00    -0.089 HD
ENDBRANCH  20  21
ENDBRANCH  17  20
ENDBRANCH  16  17
ENDBRANCH  14  16
ENDBRANCH   2  14
TORSDOF 7
ENDMDL
MODEL 6
REMARK VINA RESULT:      -7.8      6.676      8.832
REMARK  Name = 6540273
REMARK  7 active torsions:
REMARK  status: ('A' for Active; 'I' for Inactive)
REMARK    1  A    between atoms: C_2  and  N_14
REMARK    2  A    between atoms: C_6  and  N_13
REMARK    3  A    between atoms: N_14  and  C_16
REMARK    4  A    between atoms: C_16  and  C_17
REMARK    5  A    between atoms: C_17  and  O_18
REMARK    6  A    between atoms: C_17  and  C_20
REMARK    7  A    between atoms: C_20  and  N_21
REMARK                            x       y       z     vdW  Elec       q    Type
REMARK                         _______ _______ _______ _____ _____    ______ ____
ROOT
ATOM      1  N   UNL     1      33.404 -23.588 -14.025  0.00  0.00    -0.247 NA
ATOM      2  C   UNL     1      35.429 -22.911 -15.062  0.00  0.00    +0.117 C 
ATOM      3  C   UNL     1      34.078 -23.241 -15.139  0.00  0.00    +0.076 C 
ATOM      4  C   UNL     1      33.455 -23.200 -16.403  0.00  0.00    +0.024 C 
ATOM      5  C   UNL     1      36.159 -22.546 -16.196  0.00  0.00    -0.007 C 
ATOM      6  C   UNL     1      34.190 -22.833 -17.544  0.00  0.00    +0.211 C 
ATOM      7  C   UNL     1      35.539 -22.508 -17.439  0.00  0.00    +0.004 C 
ATOM      8  C   UNL     1      32.097 -23.532 -16.481  0.00  0.00    +0.001 C 
ATOM      9  C   UNL     1      31.399 -23.890 -15.336  0.00  0.00    +0.020 C 
ATOM     10  C   UNL     1      32.094 -23.901 -14.143  0.00  0.00    +0.098 C 
ENDROOT
BRANCH   6  13
ATOM     11  O   UNL     1      32.808 -21.846 -19.104  0.00  0.00    -0.130 OA
ATOM     12  O   UNL     1      33.896 -23.666 -19.675  0.00  0.00    -0.130 OA
ATOM     13  N   UNL     1      33.601 -22.778 -18.841  0.00  0.00    +0.041 N 
ENDBRANCH   6  13
BRANCH   2  14
ATOM     14  N   UNL     1      36.100 -22.936 -13.814  0.00  0.00    -0.288 NA
ATOM     15  H   UNL     1      35.665 -22.520 -13.035  0.00  0.00    +0.124 HD
BRANCH  14  16
ATOM     16  C   UNL     1      37.380 -23.541 -13.640  0.00  0.00    +0.096 C 
BRANCH  16  17
ATOM     17  C   UNL     1      37.573 -23.945 -12.177  0.00  0.00    +0.105 C 
BRANCH  17  18
ATOM     18  O   UNL     1      38.479 -23.013 -11.579  0.00  0.00    -0.385 OA
ATOM     19  H   UNL     1      37.977 -22.274 -11.199  0.00  0.00    +0.210 HD
ENDBRANCH  17  18
BRANCH  17  20
ATOM     20  C   UNL     1      36.267 -23.916 -11.375  0.00  0.00    -0.055 C 
BRANCH  20  21
ATOM     21  N   UNL     1      35.314 -24.915 -11.841  0.00  0.00    +0.382 N 
ATOM     22  H   UNL     1      35.814 -25.664 -12.320  0.00  0.00    -0.089 HD
ATOM     23  H   UNL     1      34.653 -24.481 -12.484  0.00  0.00    -0.089 HD
ATOM     24  H   UNL     1      34.808 -25.300 -11.043  0.00  0.00    -0.089 HD
ENDBRANCH  20  21
ENDBRANCH  17  20
ENDBRANCH  16  17
ENDBRANCH  14  16
ENDBRANCH   2  14
TORSDOF 7
ENDMDL
MODEL 7
REMARK VINA RESULT:      -7.8      7.460      9.510
REMARK  Name = 6540273
REMARK  7 active torsions:
REMARK  status: ('A' for Active; 'I' for Inactive)
REMARK    1  A    between atoms: C_2  and  N_14
REMARK    2  A    between atoms: C_6  and  N_13
REMARK    3  A    between atoms: N_14  and  C_16
REMARK    4  A    between atoms: C_16  and  C_17
REMARK    5  A    between atoms: C_17  and  O_18
REMARK    6  A    between atoms: C_17  and  C_20
REMARK    7  A    between atoms: C_20  and  N_21
REMARK                            x       y       z     vdW  Elec       q    Type
REMARK                         _______ _______ _______ _____ _____    ______ ____
ROOT
ATOM      1  N   UNL     1      35.237 -22.981 -16.999  0.00  0.00    -0.247 NA
ATOM      2  C   UNL     1      34.890 -23.822 -14.807  0.00  0.00    +0.117 C 
ATOM      3  C   UNL     1      34.391 -23.365 -16.023  0.00  0.00    +0.076 C 
ATOM      4  C   UNL     1      32.991 -23.320 -16.192  0.00  0.00    +0.024 C 
ATOM      5  C   UNL     1      34.043 -24.228 -13.773  0.00  0.00    -0.007 C 
ATOM      6  C   UNL     1      32.138 -23.729 -15.151  0.00  0.00    +0.211 C 
ATOM      7  C   UNL     1      32.665 -24.181 -13.945  0.00  0.00    +0.004 C 
ATOM      8  C   UNL     1      32.488 -22.861 -17.416  0.00  0.00    +0.001 C 
ATOM      9  C   UNL     1      33.356 -22.464 -18.423  0.00  0.00    +0.020 C 
ATOM     10  C   UNL     1      34.711 -22.544 -18.166  0.00  0.00    +0.098 C 
ENDROOT
BRANCH   6  13
ATOM     11  O   UNL     1      30.102 -22.672 -14.918  0.00  0.00    -0.130 OA
ATOM     12  O   UNL     1      30.135 -24.706 -15.746  0.00  0.00    -0.130 OA
ATOM     13  N   UNL     1      30.719 -23.700 -15.278  0.00  0.00    +0.041 N 
ENDBRANCH   6  13
BRANCH   2  14
ATOM     14  N   UNL     1      36.290 -23.886 -14.589  0.00  0.00    -0.288 NA
ATOM     15  H   UNL     1      36.894 -23.642 -15.327  0.00  0.00    +0.124 HD
BRANCH  14  16
ATOM     16  C   UNL     1      36.858 -24.290 -13.345  0.00  0.00    +0.096 C 
BRANCH  16  17
ATOM     17  C   UNL     1      37.513 -25.666 -13.491  0.00  0.00    +0.105 C 
BRANCH  17  18
ATOM     18  O   UNL     1      36.807 -26.581 -12.648  0.00  0.00    -0.385 OA
ATOM     19  H   UNL     1      36.128 -27.040 -13.168  0.00  0.00    +0.210 HD
ENDBRANCH  17  18
BRANCH  17  20
ATOM     20  C   UNL     1      37.454 -26.202 -14.926  0.00  0.00    -0.055 C 
BRANCH  20  21
ATOM     21  N   UNL     1      36.265 -27.009 -15.163  0.00  0.00    +0.382 N 
ATOM     22  H   UNL     1      35.432 -26.447 -14.988  0.00  0.00    -0.089 HD
ATOM     23  H   UNL     1      36.270 -27.815 -14.537  0.00  0.00    -0.089 HD
ATOM     24  H   UNL     1      36.260 -27.332 -16.131  0.00  0.00    -0.089 HD
ENDBRANCH  20  21
ENDBRANCH  17  20
ENDBRANCH  16  17
ENDBRANCH  14  16
ENDBRANCH   2  14
TORSDOF 7
ENDMDL
MODEL 8
REMARK VINA RESULT:      -7.7      3.252      6.627
REMARK  Name = 6540273
REMARK  7 active torsions:
REMARK  status: ('A' for Active; 'I' for Inactive)
REMARK    1  A    between atoms: C_2  and  N_14
REMARK    2  A    between atoms: C_6  and  N_13
REMARK    3  A    between atoms: N_14  and  C_16
REMARK    4  A    between atoms: C_16  and  C_17
REMARK    5  A    between atoms: C_17  and  O_18
REMARK    6  A    between atoms: C_17  and  C_20
REMARK    7  A    between atoms: C_20  and  N_21
REMARK                            x       y       z     vdW  Elec       q    Type
REMARK                         _______ _______ _______ _____ _____    ______ ____
ROOT
ATOM      1  N   UNL     1      33.881 -15.404 -24.556  0.00  0.00    -0.247 NA
ATOM      2  C   UNL     1      34.011 -14.729 -22.284  0.00  0.00    +0.117 C 
ATOM      3  C   UNL     1      34.194 -15.688 -23.277  0.00  0.00    +0.076 C 
ATOM      4  C   UNL     1      34.709 -16.945 -22.898  0.00  0.00    +0.024 C 
ATOM      5  C   UNL     1      34.325 -14.987 -20.948  0.00  0.00    -0.007 C 
ATOM      6  C   UNL     1      35.025 -17.206 -21.553  0.00  0.00    +0.211 C 
ATOM      7  C   UNL     1      34.831 -16.228 -20.582  0.00  0.00    +0.004 C 
ATOM      8  C   UNL     1      34.893 -17.910 -23.896  0.00  0.00    +0.001 C 
ATOM      9  C   UNL     1      34.572 -17.622 -25.214  0.00  0.00    +0.020 C 
ATOM     10  C   UNL     1      34.074 -16.363 -25.489  0.00  0.00    +0.098 C 
ENDROOT
BRANCH   6  13
ATOM     11  O   UNL     1      36.760 -18.707 -21.319  0.00  0.00    -0.130 OA
ATOM     12  O   UNL     1      34.776 -19.279 -20.572  0.00  0.00    -0.130 OA
ATOM     13  N   UNL     1      35.548 -18.462 -21.126  0.00  0.00    +0.041 N 
ENDBRANCH   6  13
BRANCH   2  14
ATOM     14  N   UNL     1      33.497 -13.449 -22.615  0.00  0.00    -0.288 NA
ATOM     15  H   UNL     1      34.129 -12.734 -22.856  0.00  0.00    +0.124 HD
BRANCH  14  16
ATOM     16  C   UNL     1      32.101 -13.157 -22.613  0.00  0.00    +0.096 C 
BRANCH  16  17
ATOM     17  C   UNL     1      31.827 -11.918 -21.757  0.00  0.00    +0.105 C 
BRANCH  17  18
ATOM     18  O   UNL     1      30.509 -11.455 -22.063  0.00  0.00    -0.385 OA
ATOM     19  H   UNL     1      30.424 -11.337 -23.023  0.00  0.00    +0.210 HD
ENDBRANCH  17  18
BRANCH  17  20
ATOM     20  C   UNL     1      31.888 -12.211 -20.253  0.00  0.00    -0.055 C 
BRANCH  20  21
ATOM     21  N   UNL     1      31.319 -11.130 -19.459  0.00  0.00    +0.382 N 
ATOM     22  H   UNL     1      30.671 -11.517 -18.773  0.00  0.00    -0.089 HD
ATOM     23  H   UNL     1      30.823 -10.483 -20.071  0.00  0.00    -0.089 HD
ATOM     24  H   UNL     1      32.068 -10.632 -18.976  0.00  0.00    -0.089 HD
ENDBRANCH  20  21
ENDBRANCH  17  20
ENDBRANCH  16  17
ENDBRANCH  14  16
ENDBRANCH   2  14
TORSDOF 7
ENDMDL
MODEL 9
REMARK VINA RESULT:      -7.7      1.729      2.080
REMARK  Name = 6540273
REMARK  7 active torsions:
REMARK  status: ('A' for Active; 'I' for Inactive)
REMARK    1  A    between atoms: C_2  and  N_14
REMARK    2  A    between atoms: C_6  and  N_13
REMARK    3  A    between atoms: N_14  and  C_16
REMARK    4  A    between atoms: C_16  and  C_17
REMARK    5  A    between atoms: C_17  and  O_18
REMARK    6  A    between atoms: C_17  and  C_20
REMARK    7  A    between atoms: C_20  and  N_21
REMARK                            x       y       z     vdW  Elec       q    Type
REMARK                         _______ _______ _______ _____ _____    ______ ____
ROOT
ATOM      1  N   UNL     1      33.605 -15.467 -20.729  0.00  0.00    -0.247 NA
ATOM      2  C   UNL     1      34.754 -16.995 -22.136  0.00  0.00    +0.117 C 
ATOM      3  C   UNL     1      33.952 -15.870 -21.968  0.00  0.00    +0.076 C 
ATOM      4  C   UNL     1      33.524 -15.181 -23.121  0.00  0.00    +0.024 C 
ATOM      5  C   UNL     1      35.134 -17.442 -23.404  0.00  0.00    -0.007 C 
ATOM      6  C   UNL     1      33.906 -15.630 -24.398  0.00  0.00    +0.211 C 
ATOM      7  C   UNL     1      34.708 -16.758 -24.536  0.00  0.00    +0.004 C 
ATOM      8  C   UNL     1      32.717 -14.049 -22.952  0.00  0.00    +0.001 C 
ATOM      9  C   UNL     1      32.358 -13.631 -21.679  0.00  0.00    +0.020 C 
ATOM     10  C   UNL     1      32.825 -14.369 -20.610  0.00  0.00    +0.098 C 
ENDROOT
BRANCH   6  13
ATOM     11  O   UNL     1      33.423 -13.714 -25.588  0.00  0.00    -0.130 OA
ATOM     12  O   UNL     1      33.224 -15.652 -26.601  0.00  0.00    -0.130 OA
ATOM     13  N   UNL     1      33.497 -14.964 -25.590  0.00  0.00    +0.041 N 
ENDBRANCH   6  13
BRANCH   2  14
ATOM     14  N   UNL     1      35.210 -17.722 -21.007  0.00  0.00    -0.288 NA
ATOM     15  H   UNL     1      34.964 -17.402 -20.109  0.00  0.00    +0.124 HD
BRANCH  14  16
ATOM     16  C   UNL     1      36.011 -18.897 -21.119  0.00  0.00    +0.096 C 
BRANCH  16  17
ATOM     17  C   UNL     1      35.174 -20.134 -20.785  0.00  0.00    +0.105 C 
BRANCH  17  18
ATOM     18  O   UNL     1      35.639 -20.654 -19.536  0.00  0.00    -0.385 OA
ATOM     19  H   UNL     1      34.951 -20.534 -18.861  0.00  0.00    +0.210 HD
ENDBRANCH  17  18
BRANCH  17  20
ATOM     20  C   UNL     1      33.681 -19.819 -20.641  0.00  0.00    -0.055 C 
BRANCH  20  21
ATOM     21  N   UNL     1      32.974 -20.842 -19.881  0.00  0.00    +0.382 N 
ATOM     22  H   UNL     1      32.993 -20.603 -18.890  0.00  0.00    -0.089 HD
ATOM     23  H   UNL     1      33.427 -21.745 -20.023  0.00  0.00    -0.089 HD
ATOM     24  H   UNL     1      32.006 -20.894 -20.200  0.00  0.00    -0.089 HD
ENDBRANCH  20  21
ENDBRANCH  17  20
ENDBRANCH  16  17
ENDBRANCH  14  16
ENDBRANCH   2  14
TORSDOF 7
ENDMDL
