MODEL 1
REMARK VINA RESULT:      -6.7      0.000      0.000
REMARK  Name = 7558
REMARK  3 active torsions:
REMARK  status: ('A' for Active; 'I' for Inactive)
REMARK    1  A    between atoms: C_1  and  C_2
REMARK    2  A    between atoms: C_1  and  C_8
REMARK    3  A    between atoms: C_8  and  N_10
REMARK                            x       y       z     vdW  Elec       q    Type
REMARK                         _______ _______ _______ _____ _____    ______ ____
ROOT
ATOM      1  C   UNL     1      34.707 -18.736 -22.258  0.00  0.00    -0.021 C 
ENDROOT
BRANCH   1   2
ATOM      2  C   UNL     1      34.504 -19.463 -20.929  0.00  0.00    -0.002 C 
ATOM      3  C   UNL     1      33.118 -20.120 -20.878  0.00  0.00    -0.000 C 
ATOM      4  C   UNL     1      35.610 -20.502 -20.705  0.00  0.00    -0.000 C 
ATOM      5  C   UNL     1      32.910 -20.898 -19.580  0.00  0.00    -0.000 C 
ATOM      6  C   UNL     1      35.398 -21.279 -19.407  0.00  0.00    -0.000 C 
ATOM      7  C   UNL     1      34.016 -21.924 -19.356  0.00  0.00    -0.000 C 
ENDBRANCH   1   2
BRANCH   1   8
ATOM      8  C   UNL     1      35.479 -17.416 -22.121  0.00  0.00    -0.062 C 
ATOM      9  C   UNL     1      34.833 -16.532 -21.056  0.00  0.00    -0.023 C 
BRANCH   8  10
ATOM     10  N   UNL     1      35.512 -16.683 -23.387  0.00  0.00    +0.384 N 
ATOM     11  C   UNL     1      34.816 -17.423 -24.427  0.00  0.00    -0.106 C 
ATOM     12  H   UNL     1      36.482 -16.543 -23.668  0.00  0.00    -0.085 HD
ATOM     13  H   UNL     1      35.047 -15.784 -23.257  0.00  0.00    -0.085 HD
ENDBRANCH   8  10
ENDBRANCH   1   8
TORSDOF 3
ENDMDL
MODEL 2
REMARK VINA RESULT:      -6.6      1.017      2.102
REMARK  Name = 7558
REMARK  3 active torsions:
REMARK  status: ('A' for Active; 'I' for Inactive)
REMARK    1  A    between atoms: C_1  and  C_2
REMARK    2  A    between atoms: C_1  and  C_8
REMARK    3  A    between atoms: C_8  and  N_10
REMARK                            x       y       z     vdW  Elec       q    Type
REMARK                         _______ _______ _______ _____ _____    ______ ____
ROOT
ATOM      1  C   UNL     1      35.532 -18.432 -21.673  0.00  0.00    -0.021 C 
ENDROOT
BRANCH   1   2
ATOM      2  C   UNL     1      34.995 -19.796 -21.245  0.00  0.00    -0.002 C 
ATOM      3  C   UNL     1      35.946 -20.463 -20.242  0.00  0.00    -0.000 C 
ATOM      4  C   UNL     1      33.585 -19.662 -20.654  0.00  0.00    -0.000 C 
ATOM      5  C   UNL     1      35.405 -21.806 -19.757  0.00  0.00    -0.000 C 
ATOM      6  C   UNL     1      33.047 -21.007 -20.169  0.00  0.00    -0.000 C 
ATOM      7  C   UNL     1      34.000 -21.670 -19.179  0.00  0.00    -0.000 C 
ENDBRANCH   1   2
BRANCH   1   8
ATOM      8  C   UNL     1      34.871 -17.886 -22.947  0.00  0.00    -0.062 C 
ATOM      9  C   UNL     1      34.848 -18.961 -24.034  0.00  0.00    -0.023 C 
BRANCH   8  10
ATOM     10  N   UNL     1      35.582 -16.714 -23.458  0.00  0.00    +0.384 N 
ATOM     11  C   UNL     1      34.693 -15.564 -23.525  0.00  0.00    -0.106 C 
ATOM     12  H   UNL     1      35.935 -16.918 -24.393  0.00  0.00    -0.085 HD
ATOM     13  H   UNL     1      36.352 -16.496 -22.827  0.00  0.00    -0.085 HD
ENDBRANCH   8  10
ENDBRANCH   1   8
TORSDOF 3
ENDMDL
MODEL 3
REMARK VINA RESULT:      -6.6      0.841      1.774
REMARK  Name = 7558
REMARK  3 active torsions:
REMARK  status: ('A' for Active; 'I' for Inactive)
REMARK    1  A    between atoms: C_1  and  C_2
REMARK    2  A    between atoms: C_1  and  C_8
REMARK    3  A    between atoms: C_8  and  N_10
REMARK                            x       y       z     vdW  Elec       q    Type
REMARK                         _______ _______ _______ _____ _____    ______ ____
ROOT
ATOM      1  C   UNL     1      34.154 -18.632 -21.597  0.00  0.00    -0.021 C 
ENDROOT
BRANCH   1   2
ATOM      2  C   UNL     1      34.572 -20.007 -21.078  0.00  0.00    -0.002 C 
ATOM      3  C   UNL     1      35.976 -19.949 -20.460  0.00  0.00    -0.000 C 
ATOM      4  C   UNL     1      33.550 -20.536 -20.063  0.00  0.00    -0.000 C 
ATOM      5  C   UNL     1      36.396 -21.301 -19.885  0.00  0.00    -0.000 C 
ATOM      6  C   UNL     1      33.974 -21.887 -19.489  0.00  0.00    -0.000 C 
ATOM      7  C   UNL     1      35.374 -21.827 -18.883  0.00  0.00    -0.000 C 
ENDBRANCH   1   2
BRANCH   1   8
ATOM      8  C   UNL     1      35.284 -17.594 -21.557  0.00  0.00    -0.062 C 
ATOM      9  C   UNL     1      34.804 -16.313 -20.876  0.00  0.00    -0.023 C 
BRANCH   8  10
ATOM     10  N   UNL     1      35.755 -17.264 -22.903  0.00  0.00    +0.384 N 
ATOM     11  C   UNL     1      34.975 -16.173 -23.466  0.00  0.00    -0.106 C 
ATOM     12  H   UNL     1      35.662 -18.085 -23.501  0.00  0.00    -0.085 HD
ATOM     13  H   UNL     1      36.731 -16.974 -22.847  0.00  0.00    -0.085 HD
ENDBRANCH   8  10
ENDBRANCH   1   8
TORSDOF 3
ENDMDL
MODEL 4
REMARK VINA RESULT:      -6.4      1.903      5.045
REMARK  Name = 7558
REMARK  3 active torsions:
REMARK  status: ('A' for Active; 'I' for Inactive)
REMARK    1  A    between atoms: C_1  and  C_2
REMARK    2  A    between atoms: C_1  and  C_8
REMARK    3  A    between atoms: C_8  and  N_10
REMARK                            x       y       z     vdW  Elec       q    Type
REMARK                         _______ _______ _______ _____ _____    ______ ____
ROOT
ATOM      1  C   UNL     1      35.525 -18.664 -21.242  0.00  0.00    -0.021 C 
ENDROOT
BRANCH   1   2
ATOM      2  C   UNL     1      34.780 -18.122 -22.460  0.00  0.00    -0.002 C 
ATOM      3  C   UNL     1      35.130 -16.646 -22.698  0.00  0.00    -0.000 C 
ATOM      4  C   UNL     1      35.090 -18.964 -23.705  0.00  0.00    -0.000 C 
ATOM      5  C   UNL     1      34.438 -16.095 -23.942  0.00  0.00    -0.000 C 
ATOM      6  C   UNL     1      34.398 -18.409 -24.948  0.00  0.00    -0.000 C 
ATOM      7  C   UNL     1      34.742 -16.940 -25.175  0.00  0.00    -0.000 C 
ENDBRANCH   1   2
BRANCH   1   8
ATOM      8  C   UNL     1      35.112 -20.093 -20.858  0.00  0.00    -0.062 C 
ATOM      9  C   UNL     1      33.625 -20.138 -20.507  0.00  0.00    -0.023 C 
BRANCH   8  10
ATOM     10  N   UNL     1      35.882 -20.583 -19.714  0.00  0.00    +0.384 N 
ATOM     11  C   UNL     1      35.325 -21.831 -19.218  0.00  0.00    -0.106 C 
ATOM     12  H   UNL     1      35.856 -19.885 -18.971  0.00  0.00    -0.085 HD
ATOM     13  H   UNL     1      36.843 -20.748 -20.013  0.00  0.00    -0.085 HD
ENDBRANCH   8  10
ENDBRANCH   1   8
TORSDOF 3
ENDMDL
MODEL 5
REMARK VINA RESULT:      -6.1      2.060      5.110
REMARK  Name = 7558
REMARK  3 active torsions:
REMARK  status: ('A' for Active; 'I' for Inactive)
REMARK    1  A    between atoms: C_1  and  C_2
REMARK    2  A    between atoms: C_1  and  C_8
REMARK    3  A    between atoms: C_8  and  N_10
REMARK                            x       y       z     vdW  Elec       q    Type
REMARK                         _______ _______ _______ _____ _____    ______ ____
ROOT
ATOM      1  C   UNL     1      35.713 -18.332 -21.138  0.00  0.00    -0.021 C 
ENDROOT
BRANCH   1   2
ATOM      2  C   UNL     1      34.788 -17.238 -21.666  0.00  0.00    -0.002 C 
ATOM      3  C   UNL     1      34.749 -16.046 -20.699  0.00  0.00    -0.000 C 
ATOM      4  C   UNL     1      35.225 -16.789 -23.068  0.00  0.00    -0.000 C 
ATOM      5  C   UNL     1      33.872 -14.915 -21.231  0.00  0.00    -0.000 C 
ATOM      6  C   UNL     1      34.347 -15.656 -23.596  0.00  0.00    -0.000 C 
ATOM      7  C   UNL     1      34.304 -14.478 -22.628  0.00  0.00    -0.000 C 
ENDBRANCH   1   2
BRANCH   1   8
ATOM      8  C   UNL     1      35.050 -19.716 -21.076  0.00  0.00    -0.062 C 
ATOM      9  C   UNL     1      33.534 -19.572 -20.951  0.00  0.00    -0.023 C 
BRANCH   8  10
ATOM     10  N   UNL     1      35.545 -20.495 -19.940  0.00  0.00    +0.384 N 
ATOM     11  C   UNL     1      34.569 -21.496 -19.541  0.00  0.00    -0.106 C 
ATOM     12  H   UNL     1      35.721 -19.868 -19.156  0.00  0.00    -0.085 HD
ATOM     13  H   UNL     1      36.405 -20.968 -20.217  0.00  0.00    -0.085 HD
ENDBRANCH   8  10
ENDBRANCH   1   8
TORSDOF 3
ENDMDL
MODEL 6
REMARK VINA RESULT:      -6.0      2.180      5.125
REMARK  Name = 7558
REMARK  3 active torsions:
REMARK  status: ('A' for Active; 'I' for Inactive)
REMARK    1  A    between atoms: C_1  and  C_2
REMARK    2  A    between atoms: C_1  and  C_8
REMARK    3  A    between atoms: C_8  and  N_10
REMARK                            x       y       z     vdW  Elec       q    Type
REMARK                         _______ _______ _______ _____ _____    ______ ____
ROOT
ATOM      1  C   UNL     1      35.087 -17.258 -21.060  0.00  0.00    -0.021 C 
ENDROOT
BRANCH   1   2
ATOM      2  C   UNL     1      34.582 -15.836 -21.296  0.00  0.00    -0.002 C 
ATOM      3  C   UNL     1      34.654 -15.474 -22.786  0.00  0.00    -0.000 C 
ATOM      4  C   UNL     1      33.151 -15.673 -20.764  0.00  0.00    -0.000 C 
ATOM      5  C   UNL     1      34.104 -14.075 -23.055  0.00  0.00    -0.000 C 
ATOM      6  C   UNL     1      32.604 -14.274 -21.035  0.00  0.00    -0.000 C 
ATOM      7  C   UNL     1      32.686 -13.915 -22.517  0.00  0.00    -0.000 C 
ENDBRANCH   1   2
BRANCH   1   8
ATOM      8  C   UNL     1      34.356 -18.314 -21.901  0.00  0.00    -0.062 C 
ATOM      9  C   UNL     1      33.733 -19.374 -20.994  0.00  0.00    -0.023 C 
BRANCH   8  10
ATOM     10  N   UNL     1      35.264 -18.972 -22.841  0.00  0.00    +0.384 N 
ATOM     11  C   UNL     1      34.712 -18.954 -24.186  0.00  0.00    -0.106 C 
ATOM     12  H   UNL     1      35.404 -19.939 -22.549  0.00  0.00    -0.085 HD
ATOM     13  H   UNL     1      36.152 -18.470 -22.844  0.00  0.00    -0.085 HD
ENDBRANCH   8  10
ENDBRANCH   1   8
TORSDOF 3
ENDMDL
MODEL 7
REMARK VINA RESULT:      -6.0      1.378      1.794
REMARK  Name = 7558
REMARK  3 active torsions:
REMARK  status: ('A' for Active; 'I' for Inactive)
REMARK    1  A    between atoms: C_1  and  C_2
REMARK    2  A    between atoms: C_1  and  C_8
REMARK    3  A    between atoms: C_8  and  N_10
REMARK                            x       y       z     vdW  Elec       q    Type
REMARK                         _______ _______ _______ _____ _____    ______ ____
ROOT
ATOM      1  C   UNL     1      34.998 -17.631 -23.195  0.00  0.00    -0.021 C 
ENDROOT
BRANCH   1   2
ATOM      2  C   UNL     1      35.118 -18.353 -21.855  0.00  0.00    -0.002 C 
ATOM      3  C   UNL     1      34.097 -19.495 -21.760  0.00  0.00    -0.000 C 
ATOM      4  C   UNL     1      36.545 -18.878 -21.648  0.00  0.00    -0.000 C 
ATOM      5  C   UNL     1      34.232 -20.267 -20.449  0.00  0.00    -0.000 C 
ATOM      6  C   UNL     1      36.677 -19.651 -20.337  0.00  0.00    -0.000 C 
ATOM      7  C   UNL     1      35.654 -20.780 -20.243  0.00  0.00    -0.000 C 
ENDBRANCH   1   2
BRANCH   1   8
ATOM      8  C   UNL     1      34.892 -16.105 -23.061  0.00  0.00    -0.062 C 
ATOM      9  C   UNL     1      34.561 -15.721 -21.619  0.00  0.00    -0.023 C 
BRANCH   8  10
ATOM     10  N   UNL     1      33.859 -15.561 -23.943  0.00  0.00    +0.384 N 
ATOM     11  C   UNL     1      33.967 -16.134 -25.275  0.00  0.00    -0.106 C 
ATOM     12  H   UNL     1      33.970 -14.549 -24.004  0.00  0.00    -0.085 HD
ATOM     13  H   UNL     1      32.943 -15.794 -23.558  0.00  0.00    -0.085 HD
ENDBRANCH   8  10
ENDBRANCH   1   8
TORSDOF 3
ENDMDL
MODEL 8
REMARK VINA RESULT:      -6.0      1.971      5.034
REMARK  Name = 7558
REMARK  3 active torsions:
REMARK  status: ('A' for Active; 'I' for Inactive)
REMARK    1  A    between atoms: C_1  and  C_2
REMARK    2  A    between atoms: C_1  and  C_8
REMARK    3  A    between atoms: C_8  and  N_10
REMARK                            x       y       z     vdW  Elec       q    Type
REMARK                         _______ _______ _______ _____ _____    ______ ____
ROOT
ATOM      1  C   UNL     1      34.794 -19.453 -22.358  0.00  0.00    -0.021 C 
ENDROOT
BRANCH   1   2
ATOM      2  C   UNL     1      35.069 -18.125 -23.060  0.00  0.00    -0.002 C 
ATOM      3  C   UNL     1      34.513 -18.142 -24.491  0.00  0.00    -0.000 C 
ATOM      4  C   UNL     1      34.480 -16.956 -22.259  0.00  0.00    -0.000 C 
ATOM      5  C   UNL     1      34.730 -16.805 -25.197  0.00  0.00    -0.000 C 
ATOM      6  C   UNL     1      34.696 -15.621 -22.969  0.00  0.00    -0.000 C 
ATOM      7  C   UNL     1      34.150 -15.645 -24.393  0.00  0.00    -0.000 C 
ENDBRANCH   1   2
BRANCH   1   8
ATOM      8  C   UNL     1      35.146 -19.440 -20.864  0.00  0.00    -0.062 C 
ATOM      9  C   UNL     1      36.661 -19.490 -20.676  0.00  0.00    -0.023 C 
BRANCH   8  10
ATOM     10  N   UNL     1      34.546 -20.576 -20.163  0.00  0.00    +0.384 N 
ATOM     11  C   UNL     1      33.095 -20.504 -20.217  0.00  0.00    -0.106 C 
ATOM     12  H   UNL     1      34.846 -20.564 -19.189  0.00  0.00    -0.085 HD
ATOM     13  H   UNL     1      34.849 -21.438 -20.617  0.00  0.00    -0.085 HD
ENDBRANCH   8  10
ENDBRANCH   1   8
TORSDOF 3
ENDMDL
MODEL 9
REMARK VINA RESULT:      -5.8      2.717      4.366
REMARK  Name = 7558
REMARK  3 active torsions:
REMARK  status: ('A' for Active; 'I' for Inactive)
REMARK    1  A    between atoms: C_1  and  C_2
REMARK    2  A    between atoms: C_1  and  C_8
REMARK    3  A    between atoms: C_8  and  N_10
REMARK                            x       y       z     vdW  Elec       q    Type
REMARK                         _______ _______ _______ _____ _____    ______ ____
ROOT
ATOM      1  C   UNL     1      34.595 -15.073 -21.593  0.00  0.00    -0.021 C 
ENDROOT
BRANCH   1   2
ATOM      2  C   UNL     1      34.320 -16.374 -22.344  0.00  0.00    -0.002 C 
ATOM      3  C   UNL     1      34.930 -16.327 -23.752  0.00  0.00    -0.000 C 
ATOM      4  C   UNL     1      34.855 -17.578 -21.558  0.00  0.00    -0.000 C 
ATOM      5  C   UNL     1      34.714 -17.638 -24.505  0.00  0.00    -0.000 C 
ATOM      6  C   UNL     1      34.639 -18.887 -22.314  0.00  0.00    -0.000 C 
ATOM      7  C   UNL     1      35.240 -18.833 -23.716  0.00  0.00    -0.000 C 
ENDBRANCH   1   2
BRANCH   1   8
ATOM      8  C   UNL     1      33.321 -14.306 -21.212  0.00  0.00    -0.062 C 
ATOM      9  C   UNL     1      32.525 -15.086 -20.166  0.00  0.00    -0.023 C 
BRANCH   8  10
ATOM     10  N   UNL     1      32.467 -14.074 -22.377  0.00  0.00    +0.384 N 
ATOM     11  C   UNL     1      32.962 -12.956 -23.163  0.00  0.00    -0.106 C 
ATOM     12  H   UNL     1      31.519 -13.868 -22.062  0.00  0.00    -0.085 HD
ATOM     13  H   UNL     1      32.473 -14.912 -22.959  0.00  0.00    -0.085 HD
ENDBRANCH   8  10
ENDBRANCH   1   8
TORSDOF 3
ENDMDL
