MODEL 1
REMARK VINA RESULT:      -4.8      0.000      0.000
REMARK  Name = 535
REMARK  3 active torsions:
REMARK  status: ('A' for Active; 'I' for Inactive)
REMARK    1  A    between atoms: C_1  and  N_4
REMARK    2  A    between atoms: C_1  and  C_9
REMARK    3  A    between atoms: C_9  and  O_10
REMARK                            x       y       z     vdW  Elec       q    Type
REMARK                         _______ _______ _______ _____ _____    ______ ____
ROOT
ATOM      1  C   UNL     1      38.686 -25.208 -14.693  0.00  0.00    +0.043 C 
ATOM      2  C   UNL     1      37.938 -26.503 -14.564  0.00  0.00    -0.011 C 
ATOM      3  C   UNL     1      38.171 -25.649 -13.353  0.00  0.00    -0.011 C 
ENDROOT
BRANCH   1   4
ATOM      4  N   UNL     1      38.066 -24.073 -15.375  0.00  0.00    +0.390 N 
ATOM      5  H   UNL     1      38.653 -23.245 -15.261  0.00  0.00    -0.088 HD
ATOM      6  H   UNL     1      37.147 -23.894 -14.972  0.00  0.00    -0.088 HD
ATOM      7  H   UNL     1      37.967 -24.285 -16.368  0.00  0.00    -0.088 HD
ENDBRANCH   1   4
BRANCH   1   9
ATOM      8  O   UNL     1      40.982 -24.708 -14.249  0.00  0.00    -0.253 OA
ATOM      9  C   UNL     1      40.134 -25.244 -14.947  0.00  0.00    +0.294 C 
BRANCH   9  10
ATOM     10  O   UNL     1      40.406 -25.955 -16.068  0.00  0.00    -0.482 OA
ATOM     11  H   UNL     1      41.258 -26.321 -16.196  0.00  0.00    +0.295 HD
ENDBRANCH   9  10
ENDBRANCH   1   9
TORSDOF 3
ENDMDL
MODEL 2
REMARK VINA RESULT:      -4.8     10.341     11.042
REMARK  Name = 535
REMARK  3 active torsions:
REMARK  status: ('A' for Active; 'I' for Inactive)
REMARK    1  A    between atoms: C_1  and  N_4
REMARK    2  A    between atoms: C_1  and  C_9
REMARK    3  A    between atoms: C_9  and  O_10
REMARK                            x       y       z     vdW  Elec       q    Type
REMARK                         _______ _______ _______ _____ _____    ______ ____
ROOT
ATOM      1  C   UNL     1      41.621 -14.445 -16.296  0.00  0.00    +0.043 C 
ATOM      2  C   UNL     1      42.665 -14.258 -17.358  0.00  0.00    -0.011 C 
ATOM      3  C   UNL     1      41.210 -14.209 -17.721  0.00  0.00    -0.011 C 
ENDROOT
BRANCH   1   4
ATOM      4  N   UNL     1      41.406 -13.402 -15.293  0.00  0.00    +0.390 N 
ATOM      5  H   UNL     1      40.416 -13.368 -15.043  0.00  0.00    -0.088 HD
ATOM      6  H   UNL     1      41.691 -12.501 -15.672  0.00  0.00    -0.088 HD
ATOM      7  H   UNL     1      41.958 -13.612 -14.461  0.00  0.00    -0.088 HD
ENDBRANCH   1   4
BRANCH   1   9
ATOM      8  O   UNL     1      42.272 -16.666 -15.697  0.00  0.00    -0.253 OA
ATOM      9  C   UNL     1      41.431 -15.781 -15.711  0.00  0.00    +0.294 C 
BRANCH   9  10
ATOM     10  O   UNL     1      40.187 -15.901 -15.187  0.00  0.00    -0.482 OA
ATOM     11  H   UNL     1      40.071 -15.932 -14.258  0.00  0.00    +0.295 HD
ENDBRANCH   9  10
ENDBRANCH   1   9
TORSDOF 3
ENDMDL
MODEL 3
REMARK VINA RESULT:      -4.5      9.981     10.703
REMARK  Name = 535
REMARK  3 active torsions:
REMARK  status: ('A' for Active; 'I' for Inactive)
REMARK    1  A    between atoms: C_1  and  N_4
REMARK    2  A    between atoms: C_1  and  C_9
REMARK    3  A    between atoms: C_9  and  O_10
REMARK                            x       y       z     vdW  Elec       q    Type
REMARK                         _______ _______ _______ _____ _____    ______ ____
ROOT
ATOM      1  C   UNL     1      41.930 -15.474 -17.539  0.00  0.00    +0.043 C 
ATOM      2  C   UNL     1      41.163 -14.257 -17.969  0.00  0.00    -0.011 C 
ATOM      3  C   UNL     1      42.627 -14.150 -17.661  0.00  0.00    -0.011 C 
ENDROOT
BRANCH   1   4
ATOM      4  N   UNL     1      42.210 -16.538 -18.502  0.00  0.00    +0.390 N 
ATOM      5  H   UNL     1      42.539 -17.368 -18.008  0.00  0.00    -0.088 HD
ATOM      6  H   UNL     1      42.928 -16.225 -19.155  0.00  0.00    -0.088 HD
ATOM      7  H   UNL     1      41.359 -16.763 -19.016  0.00  0.00    -0.088 HD
ENDBRANCH   1   4
BRANCH   1   9
ATOM      8  O   UNL     1      42.487 -16.706 -15.566  0.00  0.00    -0.253 OA
ATOM      9  C   UNL     1      41.689 -16.031 -16.199  0.00  0.00    +0.294 C 
BRANCH   9  10
ATOM     10  O   UNL     1      40.453 -15.694 -15.757  0.00  0.00    -0.482 OA
ATOM     11  H   UNL     1      39.944 -16.312 -15.271  0.00  0.00    +0.295 HD
ENDBRANCH   9  10
ENDBRANCH   1   9
TORSDOF 3
ENDMDL
MODEL 4
REMARK VINA RESULT:      -4.5      2.394      3.028
REMARK  Name = 535
REMARK  3 active torsions:
REMARK  status: ('A' for Active; 'I' for Inactive)
REMARK    1  A    between atoms: C_1  and  N_4
REMARK    2  A    between atoms: C_1  and  C_9
REMARK    3  A    between atoms: C_9  and  O_10
REMARK                            x       y       z     vdW  Elec       q    Type
REMARK                         _______ _______ _______ _____ _____    ______ ____
ROOT
ATOM      1  C   UNL     1      38.162 -25.549 -14.682  0.00  0.00    +0.043 C 
ATOM      2  C   UNL     1      38.897 -25.411 -13.381  0.00  0.00    -0.011 C 
ATOM      3  C   UNL     1      39.634 -25.835 -14.616  0.00  0.00    -0.011 C 
ENDROOT
BRANCH   1   4
ATOM      4  N   UNL     1      37.680 -24.357 -15.378  0.00  0.00    +0.390 N 
ATOM      5  H   UNL     1      36.820 -24.029 -14.938  0.00  0.00    -0.088 HD
ATOM      6  H   UNL     1      37.496 -24.584 -16.355  0.00  0.00    -0.088 HD
ATOM      7  H   UNL     1      38.388 -23.624 -15.327  0.00  0.00    -0.088 HD
ENDBRANCH   1   4
BRANCH   1   9
ATOM      8  O   UNL     1      36.867 -27.125 -15.930  0.00  0.00    -0.253 OA
ATOM      9  C   UNL     1      37.225 -26.670 -14.855  0.00  0.00    +0.294 C 
BRANCH   9  10
ATOM     10  O   UNL     1      36.808 -27.134 -13.652  0.00  0.00    -0.482 OA
ATOM     11  H   UNL     1      35.910 -27.367 -13.525  0.00  0.00    +0.295 HD
ENDBRANCH   9  10
ENDBRANCH   1   9
TORSDOF 3
ENDMDL
MODEL 5
REMARK VINA RESULT:      -4.4     10.369     10.821
REMARK  Name = 535
REMARK  3 active torsions:
REMARK  status: ('A' for Active; 'I' for Inactive)
REMARK    1  A    between atoms: C_1  and  N_4
REMARK    2  A    between atoms: C_1  and  C_9
REMARK    3  A    between atoms: C_9  and  O_10
REMARK                            x       y       z     vdW  Elec       q    Type
REMARK                         _______ _______ _______ _____ _____    ______ ____
ROOT
ATOM      1  C   UNL     1      29.619 -23.029 -16.280  0.00  0.00    +0.043 C 
ATOM      2  C   UNL     1      29.694 -22.778 -14.802  0.00  0.00    -0.011 C 
ATOM      3  C   UNL     1      29.848 -24.172 -15.334  0.00  0.00    -0.011 C 
ENDROOT
BRANCH   1   4
ATOM      4  N   UNL     1      30.703 -22.576 -17.152  0.00  0.00    +0.390 N 
ATOM      5  H   UNL     1      30.341 -22.423 -18.094  0.00  0.00    -0.088 HD
ATOM      6  H   UNL     1      31.435 -23.284 -17.180  0.00  0.00    -0.088 HD
ATOM      7  H   UNL     1      31.088 -21.704 -16.790  0.00  0.00    -0.088 HD
ENDBRANCH   1   4
BRANCH   1   9
ATOM      8  O   UNL     1      27.789 -23.798 -17.612  0.00  0.00    -0.253 OA
ATOM      9  C   UNL     1      28.319 -22.914 -16.957  0.00  0.00    +0.294 C 
BRANCH   9  10
ATOM     10  O   UNL     1      27.784 -21.685 -16.758  0.00  0.00    -0.482 OA
ATOM     11  H   UNL     1      26.903 -21.601 -16.451  0.00  0.00    +0.295 HD
ENDBRANCH   9  10
ENDBRANCH   1   9
TORSDOF 3
ENDMDL
MODEL 6
REMARK VINA RESULT:      -4.3      4.588      4.944
REMARK  Name = 535
REMARK  3 active torsions:
REMARK  status: ('A' for Active; 'I' for Inactive)
REMARK    1  A    between atoms: C_1  and  N_4
REMARK    2  A    between atoms: C_1  and  C_9
REMARK    3  A    between atoms: C_9  and  O_10
REMARK                            x       y       z     vdW  Elec       q    Type
REMARK                         _______ _______ _______ _____ _____    ______ ____
ROOT
ATOM      1  C   UNL     1      36.672 -24.709 -12.407  0.00  0.00    +0.043 C 
ATOM      2  C   UNL     1      37.233 -23.519 -13.129  0.00  0.00    -0.011 C 
ATOM      3  C   UNL     1      37.993 -24.131 -11.990  0.00  0.00    -0.011 C 
ENDROOT
BRANCH   1   4
ATOM      4  N   UNL     1      36.623 -26.010 -13.074  0.00  0.00    +0.390 N 
ATOM      5  H   UNL     1      35.660 -26.225 -13.332  0.00  0.00    -0.088 HD
ATOM      6  H   UNL     1      36.974 -26.730 -12.443  0.00  0.00    -0.088 HD
ATOM      7  H   UNL     1      37.202 -25.983 -13.913  0.00  0.00    -0.088 HD
ENDBRANCH   1   4
BRANCH   1   9
ATOM      8  O   UNL     1      35.318 -25.121 -10.480  0.00  0.00    -0.253 OA
ATOM      9  C   UNL     1      35.505 -24.527 -11.530  0.00  0.00    +0.294 C 
BRANCH   9  10
ATOM     10  O   UNL     1      34.658 -23.605 -12.048  0.00  0.00    -0.482 OA
ATOM     11  H   UNL     1      33.880 -23.879 -12.491  0.00  0.00    +0.295 HD
ENDBRANCH   9  10
ENDBRANCH   1   9
TORSDOF 3
ENDMDL
MODEL 7
REMARK VINA RESULT:      -4.2     10.260     10.680
REMARK  Name = 535
REMARK  3 active torsions:
REMARK  status: ('A' for Active; 'I' for Inactive)
REMARK    1  A    between atoms: C_1  and  N_4
REMARK    2  A    between atoms: C_1  and  C_9
REMARK    3  A    between atoms: C_9  and  O_10
REMARK                            x       y       z     vdW  Elec       q    Type
REMARK                         _______ _______ _______ _____ _____    ______ ____
ROOT
ATOM      1  C   UNL     1      34.875 -18.794 -21.407  0.00  0.00    +0.043 C 
ATOM      2  C   UNL     1      33.629 -19.520 -20.990  0.00  0.00    -0.011 C 
ATOM      3  C   UNL     1      34.976 -20.097 -20.668  0.00  0.00    -0.011 C 
ENDROOT
BRANCH   1   4
ATOM      4  N   UNL     1      35.250 -17.547 -20.740  0.00  0.00    +0.390 N 
ATOM      5  H   UNL     1      34.484 -16.877 -20.815  0.00  0.00    -0.088 HD
ATOM      6  H   UNL     1      36.083 -17.161 -21.184  0.00  0.00    -0.088 HD
ATOM      7  H   UNL     1      35.444 -17.733 -19.756  0.00  0.00    -0.088 HD
ENDBRANCH   1   4
BRANCH   1   9
ATOM      8  O   UNL     1      34.557 -19.218 -23.739  0.00  0.00    -0.253 OA
ATOM      9  C   UNL     1      35.232 -18.753 -22.833  0.00  0.00    +0.294 C 
BRANCH   9  10
ATOM     10  O   UNL     1      36.421 -18.126 -23.010  0.00  0.00    -0.482 OA
ATOM     11  H   UNL     1      37.050 -18.476 -23.608  0.00  0.00    +0.295 HD
ENDBRANCH   9  10
ENDBRANCH   1   9
TORSDOF 3
ENDMDL
MODEL 8
REMARK VINA RESULT:      -4.2     10.583     10.983
REMARK  Name = 535
REMARK  3 active torsions:
REMARK  status: ('A' for Active; 'I' for Inactive)
REMARK    1  A    between atoms: C_1  and  N_4
REMARK    2  A    between atoms: C_1  and  C_9
REMARK    3  A    between atoms: C_9  and  O_10
REMARK                            x       y       z     vdW  Elec       q    Type
REMARK                         _______ _______ _______ _____ _____    ______ ____
ROOT
ATOM      1  C   UNL     1      29.131 -23.636 -15.628  0.00  0.00    +0.043 C 
ATOM      2  C   UNL     1      30.506 -23.333 -16.147  0.00  0.00    -0.011 C 
ATOM      3  C   UNL     1      30.002 -22.644 -14.914  0.00  0.00    -0.011 C 
ENDROOT
BRANCH   1   4
ATOM      4  N   UNL     1      28.853 -24.935 -15.016  0.00  0.00    +0.390 N 
ATOM      5  H   UNL     1      29.027 -24.884 -14.012  0.00  0.00    -0.088 HD
ATOM      6  H   UNL     1      29.459 -25.643 -15.429  0.00  0.00    -0.088 HD
ATOM      7  H   UNL     1      27.878 -25.186 -15.180  0.00  0.00    -0.088 HD
ENDBRANCH   1   4
BRANCH   1   9
ATOM      8  O   UNL     1      26.954 -22.678 -15.876  0.00  0.00    -0.253 OA
ATOM      9  C   UNL     1      27.963 -23.150 -16.378  0.00  0.00    +0.294 C 
BRANCH   9  10
ATOM     10  O   UNL     1      28.156 -23.298 -17.711  0.00  0.00    -0.482 OA
ATOM     11  H   UNL     1      29.009 -23.494 -18.043  0.00  0.00    +0.295 HD
ENDBRANCH   9  10
ENDBRANCH   1   9
TORSDOF 3
ENDMDL
MODEL 9
REMARK VINA RESULT:      -4.2      1.676      1.926
REMARK  Name = 535
REMARK  3 active torsions:
REMARK  status: ('A' for Active; 'I' for Inactive)
REMARK    1  A    between atoms: C_1  and  N_4
REMARK    2  A    between atoms: C_1  and  C_9
REMARK    3  A    between atoms: C_9  and  O_10
REMARK                            x       y       z     vdW  Elec       q    Type
REMARK                         _______ _______ _______ _____ _____    ______ ____
ROOT
ATOM      1  C   UNL     1      38.271 -25.911 -14.257  0.00  0.00    +0.043 C 
ATOM      2  C   UNL     1      37.066 -25.254 -14.865  0.00  0.00    -0.011 C 
ATOM      3  C   UNL     1      37.259 -26.736 -14.998  0.00  0.00    -0.011 C 
ENDROOT
BRANCH   1   4
ATOM      4  N   UNL     1      38.383 -26.027 -12.803  0.00  0.00    +0.390 N 
ATOM      5  H   UNL     1      37.613 -25.523 -12.360  0.00  0.00    -0.088 HD
ATOM      6  H   UNL     1      39.270 -25.627 -12.497  0.00  0.00    -0.088 HD
ATOM      7  H   UNL     1      38.344 -27.010 -12.537  0.00  0.00    -0.088 HD
ENDBRANCH   1   4
BRANCH   1   9
ATOM      8  O   UNL     1      40.514 -26.482 -14.859  0.00  0.00    -0.253 OA
ATOM      9  C   UNL     1      39.590 -25.683 -14.867  0.00  0.00    +0.294 C 
BRANCH   9  10
ATOM     10  O   UNL     1      39.645 -24.458 -15.443  0.00  0.00    -0.482 OA
ATOM     11  H   UNL     1      40.251 -24.293 -16.138  0.00  0.00    +0.295 HD
ENDBRANCH   9  10
ENDBRANCH   1   9
TORSDOF 3
ENDMDL
