MODEL 1
REMARK VINA RESULT:      -8.4      0.000      0.000
REMARK  Name = 2724883
REMARK  5 active torsions:
REMARK  status: ('A' for Active; 'I' for Inactive)
REMARK    1  A    between atoms: C_1  and  C_2
REMARK    2  A    between atoms: C_1  and  CA_12
REMARK    3  A    between atoms: CA_12  and  N_13
REMARK    4  A    between atoms: CA_12  and  C_18
REMARK    5  A    between atoms: C_18  and  O_19
REMARK                            x       y       z     vdW  Elec       q    Type
REMARK                         _______ _______ _______ _____ _____    ______ ____
ROOT
ATOM      1  C   UNL     1      34.875 -19.479 -20.859  0.00  0.00    +0.015 C 
ENDROOT
BRANCH   1   2
ATOM      2  C   UNL     1      34.783 -18.670 -22.115  0.00  0.00    -0.024 C 
ATOM      3  C   UNL     1      34.667 -17.271 -22.093  0.00  0.00    -0.004 C 
ATOM      4  C   UNL     1      34.586 -16.563 -23.316  0.00  0.00    -0.000 C 
ATOM      5  C   UNL     1      34.819 -19.361 -23.327  0.00  0.00    -0.004 C 
ATOM      6  C   UNL     1      34.630 -16.557 -20.884  0.00  0.00    -0.000 C 
ATOM      7  C   UNL     1      34.623 -17.276 -24.526  0.00  0.00    -0.000 C 
ATOM      8  C   UNL     1      34.739 -18.665 -24.529  0.00  0.00    -0.000 C 
ATOM      9  C   UNL     1      34.470 -15.163 -23.294  0.00  0.00    -0.000 C 
ATOM     10  C   UNL     1      34.514 -15.168 -20.880  0.00  0.00    -0.000 C 
ATOM     11  C   UNL     1      34.434 -14.471 -22.082  0.00  0.00    -0.000 C 
ENDBRANCH   1   2
BRANCH   1  12
ATOM     12  CA  UNL     1      33.740 -20.513 -20.715  0.00  0.00    +0.040 C 
BRANCH  12  13
ATOM     13  N   UNL     1      32.478 -19.841 -20.412  0.00  0.00    +0.389 N 
ATOM     14  H1  UNL     1      31.938 -19.729 -21.271  0.00  0.00    -0.088 HD
ATOM     15  H2  UNL     1      32.670 -18.923 -20.011  0.00  0.00    -0.088 HD
ATOM     16  H3  UNL     1      31.947 -20.399 -19.745  0.00  0.00    -0.088 HD
ENDBRANCH  12  13
BRANCH  12  18
ATOM     17  OXT UNL     1      35.085 -21.668 -19.044  0.00  0.00    -0.253 OA
ATOM     18  C   UNL     1      33.998 -21.484 -19.575  0.00  0.00    +0.293 C 
BRANCH  18  19
ATOM     19  O   UNL     1      32.867 -22.120 -19.172  0.00  0.00    -0.482 OA
ATOM     20  H   UNL     1      32.363 -22.615 -19.787  0.00  0.00    +0.295 HD
ENDBRANCH  18  19
ENDBRANCH  12  18
ENDBRANCH   1  12
TORSDOF 5
ENDMDL
MODEL 2
REMARK VINA RESULT:      -8.3      3.000      4.574
REMARK  Name = 2724883
REMARK  5 active torsions:
REMARK  status: ('A' for Active; 'I' for Inactive)
REMARK    1  A    between atoms: C_1  and  C_2
REMARK    2  A    between atoms: C_1  and  CA_12
REMARK    3  A    between atoms: CA_12  and  N_13
REMARK    4  A    between atoms: CA_12  and  C_18
REMARK    5  A    between atoms: C_18  and  O_19
REMARK                            x       y       z     vdW  Elec       q    Type
REMARK                         _______ _______ _______ _____ _____    ______ ____
ROOT
ATOM      1  C   UNL     1      36.528 -21.903 -18.651  0.00  0.00    +0.015 C 
ENDROOT
BRANCH   1   2
ATOM      2  C   UNL     1      35.324 -21.334 -19.335  0.00  0.00    -0.024 C 
ATOM      3  C   UNL     1      35.424 -20.303 -20.283  0.00  0.00    -0.004 C 
ATOM      4  C   UNL     1      34.248 -19.809 -20.895  0.00  0.00    -0.000 C 
ATOM      5  C   UNL     1      34.081 -21.872 -18.997  0.00  0.00    -0.004 C 
ATOM      6  C   UNL     1      36.666 -19.750 -20.636  0.00  0.00    -0.000 C 
ATOM      7  C   UNL     1      33.005 -20.361 -20.542  0.00  0.00    -0.000 C 
ATOM      8  C   UNL     1      32.925 -21.386 -19.599  0.00  0.00    -0.000 C 
ATOM      9  C   UNL     1      34.347 -18.777 -21.843  0.00  0.00    -0.000 C 
ATOM     10  C   UNL     1      36.746 -18.726 -21.579  0.00  0.00    -0.000 C 
ATOM     11  C   UNL     1      35.590 -18.240 -22.182  0.00  0.00    -0.000 C 
ENDBRANCH   1   2
BRANCH   1  12
ATOM     12  CA  UNL     1      36.604 -21.546 -17.152  0.00  0.00    +0.040 C 
BRANCH  12  13
ATOM     13  N   UNL     1      37.609 -20.509 -16.930  0.00  0.00    +0.389 N 
ATOM     14  H1  UNL     1      37.817 -20.043 -17.813  0.00  0.00    -0.088 HD
ATOM     15  H2  UNL     1      38.460 -20.935 -16.563  0.00  0.00    -0.088 HD
ATOM     16  H3  UNL     1      37.253 -19.829 -16.259  0.00  0.00    -0.088 HD
ENDBRANCH  12  13
BRANCH  12  18
ATOM     17  OXT UNL     1      38.126 -22.899 -15.814  0.00  0.00    -0.253 OA
ATOM     18  C   UNL     1      37.016 -22.739 -16.305  0.00  0.00    +0.293 C 
BRANCH  18  19
ATOM     19  O   UNL     1      35.995 -23.615 -16.116  0.00  0.00    -0.482 OA
ATOM     20  H   UNL     1      35.944 -24.394 -16.636  0.00  0.00    +0.295 HD
ENDBRANCH  18  19
ENDBRANCH  12  18
ENDBRANCH   1  12
TORSDOF 5
ENDMDL
MODEL 3
REMARK VINA RESULT:      -8.3      3.254      5.556
REMARK  Name = 2724883
REMARK  5 active torsions:
REMARK  status: ('A' for Active; 'I' for Inactive)
REMARK    1  A    between atoms: C_1  and  C_2
REMARK    2  A    between atoms: C_1  and  CA_12
REMARK    3  A    between atoms: CA_12  and  N_13
REMARK    4  A    between atoms: CA_12  and  C_18
REMARK    5  A    between atoms: C_18  and  O_19
REMARK                            x       y       z     vdW  Elec       q    Type
REMARK                         _______ _______ _______ _____ _____    ______ ____
ROOT
ATOM      1  C   UNL     1      34.306 -17.860 -22.365  0.00  0.00    +0.015 C 
ENDROOT
BRANCH   1   2
ATOM      2  C   UNL     1      35.152 -18.795 -21.557  0.00  0.00    -0.024 C 
ATOM      3  C   UNL     1      34.591 -19.815 -20.772  0.00  0.00    -0.004 C 
ATOM      4  C   UNL     1      35.445 -20.667 -20.031  0.00  0.00    -0.000 C 
ATOM      5  C   UNL     1      36.535 -18.618 -21.611  0.00  0.00    -0.004 C 
ATOM      6  C   UNL     1      33.202 -20.009 -20.705  0.00  0.00    -0.000 C 
ATOM      7  C   UNL     1      36.834 -20.474 -20.098  0.00  0.00    -0.000 C 
ATOM      8  C   UNL     1      37.374 -19.455 -20.883  0.00  0.00    -0.000 C 
ATOM      9  C   UNL     1      34.884 -21.688 -19.246  0.00  0.00    -0.000 C 
ATOM     10  C   UNL     1      32.662 -21.028 -19.919  0.00  0.00    -0.000 C 
ATOM     11  C   UNL     1      33.501 -21.866 -19.191  0.00  0.00    -0.000 C 
ENDBRANCH   1   2
BRANCH   1  12
ATOM     12  CA  UNL     1      35.106 -17.080 -23.429  0.00  0.00    +0.040 C 
BRANCH  12  13
ATOM     13  N   UNL     1      34.868 -15.644 -23.287  0.00  0.00    +0.389 N 
ATOM     14  H1  UNL     1      35.700 -15.132 -23.582  0.00  0.00    -0.088 HD
ATOM     15  H2  UNL     1      34.665 -15.428 -22.312  0.00  0.00    -0.088 HD
ATOM     16  H3  UNL     1      34.076 -15.372 -23.868  0.00  0.00    -0.088 HD
ENDBRANCH  12  13
BRANCH  12  18
ATOM     17  OXT UNL     1      34.796 -16.724 -25.819  0.00  0.00    -0.253 OA
ATOM     18  C   UNL     1      34.685 -17.451 -24.841  0.00  0.00    +0.293 C 
BRANCH  18  19
ATOM     19  O   UNL     1      34.191 -18.715 -24.917  0.00  0.00    -0.482 OA
ATOM     20  H   UNL     1      33.337 -18.905 -24.579  0.00  0.00    +0.295 HD
ENDBRANCH  18  19
ENDBRANCH  12  18
ENDBRANCH   1  12
TORSDOF 5
ENDMDL
MODEL 4
REMARK VINA RESULT:      -8.1      0.968      1.293
REMARK  Name = 2724883
REMARK  5 active torsions:
REMARK  status: ('A' for Active; 'I' for Inactive)
REMARK    1  A    between atoms: C_1  and  C_2
REMARK    2  A    between atoms: C_1  and  CA_12
REMARK    3  A    between atoms: CA_12  and  N_13
REMARK    4  A    between atoms: CA_12  and  C_18
REMARK    5  A    between atoms: C_18  and  O_19
REMARK                            x       y       z     vdW  Elec       q    Type
REMARK                         _______ _______ _______ _____ _____    ______ ____
ROOT
ATOM      1  C   UNL     1      35.555 -18.849 -21.114  0.00  0.00    +0.015 C 
ENDROOT
BRANCH   1   2
ATOM      2  C   UNL     1      35.144 -18.146 -22.371  0.00  0.00    -0.024 C 
ATOM      3  C   UNL     1      34.772 -16.792 -22.380  0.00  0.00    -0.004 C 
ATOM      4  C   UNL     1      34.396 -16.186 -23.602  0.00  0.00    -0.000 C 
ATOM      5  C   UNL     1      35.144 -18.892 -23.551  0.00  0.00    -0.004 C 
ATOM      6  C   UNL     1      34.767 -16.026 -21.203  0.00  0.00    -0.000 C 
ATOM      7  C   UNL     1      34.402 -16.951 -24.780  0.00  0.00    -0.000 C 
ATOM      8  C   UNL     1      34.773 -18.295 -24.752  0.00  0.00    -0.000 C 
ATOM      9  C   UNL     1      34.024 -14.831 -23.611  0.00  0.00    -0.000 C 
ATOM     10  C   UNL     1      34.395 -14.682 -21.230  0.00  0.00    -0.000 C 
ATOM     11  C   UNL     1      34.024 -14.085 -22.431  0.00  0.00    -0.000 C 
ENDBRANCH   1   2
BRANCH   1  12
ATOM     12  CA  UNL     1      34.859 -20.212 -20.923  0.00  0.00    +0.040 C 
BRANCH  12  13
ATOM     13  N   UNL     1      33.473 -20.019 -20.502  0.00  0.00    +0.389 N 
ATOM     14  H1  UNL     1      33.210 -20.759 -19.851  0.00  0.00    -0.088 HD
ATOM     15  H2  UNL     1      32.863 -20.051 -21.318  0.00  0.00    -0.088 HD
ATOM     16  H3  UNL     1      33.381 -19.113 -20.043  0.00  0.00    -0.088 HD
ENDBRANCH  12  13
BRANCH  12  18
ATOM     17  OXT UNL     1      35.184 -22.170 -19.509  0.00  0.00    -0.253 OA
ATOM     18  C   UNL     1      35.529 -21.043 -19.841  0.00  0.00    +0.293 C 
BRANCH  18  19
ATOM     19  O   UNL     1      36.596 -20.409 -19.289  0.00  0.00    -0.482 OA
ATOM     20  H   UNL     1      36.725 -19.493 -19.439  0.00  0.00    +0.295 HD
ENDBRANCH  18  19
ENDBRANCH  12  18
ENDBRANCH   1  12
TORSDOF 5
ENDMDL
MODEL 5
REMARK VINA RESULT:      -8.0      4.818      6.766
REMARK  Name = 2724883
REMARK  5 active torsions:
REMARK  status: ('A' for Active; 'I' for Inactive)
REMARK    1  A    between atoms: C_1  and  C_2
REMARK    2  A    between atoms: C_1  and  CA_12
REMARK    3  A    between atoms: CA_12  and  N_13
REMARK    4  A    between atoms: CA_12  and  C_18
REMARK    5  A    between atoms: C_18  and  O_19
REMARK                            x       y       z     vdW  Elec       q    Type
REMARK                         _______ _______ _______ _____ _____    ______ ____
ROOT
ATOM      1  C   UNL     1      33.918 -13.977 -23.784  0.00  0.00    +0.015 C 
ENDROOT
BRANCH   1   2
ATOM      2  C   UNL     1      34.266 -15.115 -22.875  0.00  0.00    -0.024 C 
ATOM      3  C   UNL     1      34.454 -16.421 -23.356  0.00  0.00    -0.004 C 
ATOM      4  C   UNL     1      34.783 -17.453 -22.445  0.00  0.00    -0.000 C 
ATOM      5  C   UNL     1      34.402 -14.831 -21.516  0.00  0.00    -0.004 C 
ATOM      6  C   UNL     1      34.321 -16.726 -24.720  0.00  0.00    -0.000 C 
ATOM      7  C   UNL     1      34.916 -17.149 -21.081  0.00  0.00    -0.000 C 
ATOM      8  C   UNL     1      34.726 -15.846 -20.621  0.00  0.00    -0.000 C 
ATOM      9  C   UNL     1      34.971 -18.760 -22.926  0.00  0.00    -0.000 C 
ATOM     10  C   UNL     1      34.511 -18.029 -25.180  0.00  0.00    -0.000 C 
ATOM     11  C   UNL     1      34.835 -19.044 -24.285  0.00  0.00    -0.000 C 
ENDBRANCH   1   2
BRANCH   1  12
ATOM     12  CA  UNL     1      33.319 -12.765 -23.042  0.00  0.00    +0.040 C 
BRANCH  12  13
ATOM     13  N   UNL     1      31.875 -12.931 -22.884  0.00  0.00    +0.389 N 
ATOM     14  H1  UNL     1      31.624 -13.903 -23.066  0.00  0.00    -0.088 HD
ATOM     15  H2  UNL     1      31.389 -12.326 -23.545  0.00  0.00    -0.088 HD
ATOM     16  H3  UNL     1      31.607 -12.682 -21.933  0.00  0.00    -0.088 HD
ENDBRANCH  12  13
BRANCH  12  18
ATOM     17  OXT UNL     1      32.847 -10.460 -23.675  0.00  0.00    -0.253 OA
ATOM     18  C   UNL     1      33.524 -11.471 -23.811  0.00  0.00    +0.293 C 
BRANCH  18  19
ATOM     19  O   UNL     1      34.581 -11.538 -24.662  0.00  0.00    -0.482 OA
ATOM     20  H   UNL     1      35.139 -12.291 -24.657  0.00  0.00    +0.295 HD
ENDBRANCH  18  19
ENDBRANCH  12  18
ENDBRANCH   1  12
TORSDOF 5
ENDMDL
MODEL 6
REMARK VINA RESULT:      -7.8      5.447      7.613
REMARK  Name = 2724883
REMARK  5 active torsions:
REMARK  status: ('A' for Active; 'I' for Inactive)
REMARK    1  A    between atoms: C_1  and  C_2
REMARK    2  A    between atoms: C_1  and  CA_12
REMARK    3  A    between atoms: CA_12  and  N_13
REMARK    4  A    between atoms: CA_12  and  C_18
REMARK    5  A    between atoms: C_18  and  O_19
REMARK                            x       y       z     vdW  Elec       q    Type
REMARK                         _______ _______ _______ _____ _____    ______ ____
ROOT
ATOM      1  C   UNL     1      36.987 -22.840 -15.616  0.00  0.00    +0.015 C 
ENDROOT
BRANCH   1   2
ATOM      2  C   UNL     1      35.696 -22.844 -16.374  0.00  0.00    -0.024 C 
ATOM      3  C   UNL     1      35.573 -22.245 -17.638  0.00  0.00    -0.004 C 
ATOM      4  C   UNL     1      34.325 -22.284 -18.305  0.00  0.00    -0.000 C 
ATOM      5  C   UNL     1      34.603 -23.473 -15.776  0.00  0.00    -0.004 C 
ATOM      6  C   UNL     1      36.662 -21.608 -18.257  0.00  0.00    -0.000 C 
ATOM      7  C   UNL     1      33.236 -22.921 -17.687  0.00  0.00    -0.000 C 
ATOM      8  C   UNL     1      33.377 -23.511 -16.431  0.00  0.00    -0.000 C 
ATOM      9  C   UNL     1      34.202 -21.686 -19.570  0.00  0.00    -0.000 C 
ATOM     10  C   UNL     1      36.522 -21.019 -19.513  0.00  0.00    -0.000 C 
ATOM     11  C   UNL     1      35.295 -21.057 -20.168  0.00  0.00    -0.000 C 
ENDBRANCH   1   2
BRANCH   1  12
ATOM     12  CA  UNL     1      37.141 -24.046 -14.667  0.00  0.00    +0.040 C 
BRANCH  12  13
ATOM     13  N   UNL     1      37.269 -23.589 -13.285  0.00  0.00    +0.389 N 
ATOM     14  H1  UNL     1      36.357 -23.629 -12.828  0.00  0.00    -0.088 HD
ATOM     15  H2  UNL     1      37.611 -22.628 -13.275  0.00  0.00    -0.088 HD
ATOM     16  H3  UNL     1      37.926 -24.189 -12.787  0.00  0.00    -0.088 HD
ENDBRANCH  12  13
BRANCH  12  18
ATOM     17  OXT UNL     1      39.538 -24.442 -14.850  0.00  0.00    -0.253 OA
ATOM     18  C   UNL     1      38.392 -24.853 -14.973  0.00  0.00    +0.293 C 
BRANCH  18  19
ATOM     19  O   UNL     1      38.104 -26.118 -15.377  0.00  0.00    -0.482 OA
ATOM     20  H   UNL     1      37.742 -26.732 -14.769  0.00  0.00    +0.295 HD
ENDBRANCH  18  19
ENDBRANCH  12  18
ENDBRANCH   1  12
TORSDOF 5
ENDMDL
MODEL 7
REMARK VINA RESULT:      -7.7      3.172      5.588
REMARK  Name = 2724883
REMARK  5 active torsions:
REMARK  status: ('A' for Active; 'I' for Inactive)
REMARK    1  A    between atoms: C_1  and  C_2
REMARK    2  A    between atoms: C_1  and  CA_12
REMARK    3  A    between atoms: CA_12  and  N_13
REMARK    4  A    between atoms: CA_12  and  C_18
REMARK    5  A    between atoms: C_18  and  O_19
REMARK                            x       y       z     vdW  Elec       q    Type
REMARK                         _______ _______ _______ _____ _____    ______ ____
ROOT
ATOM      1  C   UNL     1      35.544 -18.169 -22.123  0.00  0.00    +0.015 C 
ENDROOT
BRANCH   1   2
ATOM      2  C   UNL     1      34.673 -19.128 -21.371  0.00  0.00    -0.024 C 
ATOM      3  C   UNL     1      35.202 -20.059 -20.462  0.00  0.00    -0.004 C 
ATOM      4  C   UNL     1      34.326 -20.937 -19.782  0.00  0.00    -0.000 C 
ATOM      5  C   UNL     1      33.299 -19.065 -21.606  0.00  0.00    -0.004 C 
ATOM      6  C   UNL     1      36.582 -20.137 -20.213  0.00  0.00    -0.000 C 
ATOM      7  C   UNL     1      32.946 -20.860 -20.031  0.00  0.00    -0.000 C 
ATOM      8  C   UNL     1      32.438 -19.929 -20.937  0.00  0.00    -0.000 C 
ATOM      9  C   UNL     1      34.855 -21.869 -18.873  0.00  0.00    -0.000 C 
ATOM     10  C   UNL     1      37.090 -21.068 -19.307  0.00  0.00    -0.000 C 
ATOM     11  C   UNL     1      36.229 -21.932 -18.638  0.00  0.00    -0.000 C 
ENDBRANCH   1   2
BRANCH   1  12
ATOM     12  CA  UNL     1      34.770 -16.964 -22.696  0.00  0.00    +0.040 C 
BRANCH  12  13
ATOM     13  N   UNL     1      35.368 -16.535 -23.959  0.00  0.00    +0.389 N 
ATOM     14  H1  UNL     1      34.929 -15.666 -24.264  0.00  0.00    -0.088 HD
ATOM     15  H2  UNL     1      35.220 -17.255 -24.667  0.00  0.00    -0.088 HD
ATOM     16  H3  UNL     1      36.367 -16.386 -23.829  0.00  0.00    -0.088 HD
ENDBRANCH  12  13
BRANCH  12  18
ATOM     17  OXT UNL     1      34.889 -15.827 -20.545  0.00  0.00    -0.253 OA
ATOM     18  C   UNL     1      34.818 -15.764 -21.765  0.00  0.00    +0.293 C 
BRANCH  18  19
ATOM     19  O   UNL     1      34.806 -14.586 -22.441  0.00  0.00    -0.482 OA
ATOM     20  H   UNL     1      35.598 -14.093 -22.536  0.00  0.00    +0.295 HD
ENDBRANCH  18  19
ENDBRANCH  12  18
ENDBRANCH   1  12
TORSDOF 5
ENDMDL
MODEL 8
REMARK VINA RESULT:      -7.7      4.809      6.652
REMARK  Name = 2724883
REMARK  5 active torsions:
REMARK  status: ('A' for Active; 'I' for Inactive)
REMARK    1  A    between atoms: C_1  and  C_2
REMARK    2  A    between atoms: C_1  and  CA_12
REMARK    3  A    between atoms: CA_12  and  N_13
REMARK    4  A    between atoms: CA_12  and  C_18
REMARK    5  A    between atoms: C_18  and  O_19
REMARK                            x       y       z     vdW  Elec       q    Type
REMARK                         _______ _______ _______ _____ _____    ______ ____
ROOT
ATOM      1  C   UNL     1      34.322 -15.429 -25.242  0.00  0.00    +0.015 C 
ENDROOT
BRANCH   1   2
ATOM      2  C   UNL     1      34.398 -15.627 -23.760  0.00  0.00    -0.024 C 
ATOM      3  C   UNL     1      34.601 -16.893 -23.187  0.00  0.00    -0.004 C 
ATOM      4  C   UNL     1      34.664 -17.013 -21.779  0.00  0.00    -0.000 C 
ATOM      5  C   UNL     1      34.259 -14.495 -22.955  0.00  0.00    -0.004 C 
ATOM      6  C   UNL     1      34.743 -18.042 -23.981  0.00  0.00    -0.000 C 
ATOM      7  C   UNL     1      34.522 -15.864 -20.984  0.00  0.00    -0.000 C 
ATOM      8  C   UNL     1      34.321 -14.614 -21.570  0.00  0.00    -0.000 C 
ATOM      9  C   UNL     1      34.868 -18.279 -21.205  0.00  0.00    -0.000 C 
ATOM     10  C   UNL     1      34.945 -19.292 -23.395  0.00  0.00    -0.000 C 
ATOM     11  C   UNL     1      35.007 -19.411 -22.010  0.00  0.00    -0.000 C 
ENDBRANCH   1   2
BRANCH   1  12
ATOM     12  CA  UNL     1      33.100 -14.599 -25.685  0.00  0.00    +0.040 C 
BRANCH  12  13
ATOM     13  N   UNL     1      32.275 -15.369 -26.613  0.00  0.00    +0.389 N 
ATOM     14  H1  UNL     1      31.644 -14.740 -27.110  0.00  0.00    -0.088 HD
ATOM     15  H2  UNL     1      31.729 -16.055 -26.092  0.00  0.00    -0.088 HD
ATOM     16  H3  UNL     1      32.875 -15.850 -27.283  0.00  0.00    -0.088 HD
ENDBRANCH  12  13
BRANCH  12  18
ATOM     17  OXT UNL     1      33.645 -12.234 -25.899  0.00  0.00    -0.253 OA
ATOM     18  C   UNL     1      33.511 -13.333 -26.420  0.00  0.00    +0.293 C 
BRANCH  18  19
ATOM     19  O   UNL     1      33.752 -13.556 -27.738  0.00  0.00    -0.482 OA
ATOM     20  H   UNL     1      34.588 -13.342 -28.104  0.00  0.00    +0.295 HD
ENDBRANCH  18  19
ENDBRANCH  12  18
ENDBRANCH   1  12
TORSDOF 5
ENDMDL
MODEL 9
REMARK VINA RESULT:      -7.7      4.472      5.982
REMARK  Name = 2724883
REMARK  5 active torsions:
REMARK  status: ('A' for Active; 'I' for Inactive)
REMARK    1  A    between atoms: C_1  and  C_2
REMARK    2  A    between atoms: C_1  and  CA_12
REMARK    3  A    between atoms: CA_12  and  N_13
REMARK    4  A    between atoms: CA_12  and  C_18
REMARK    5  A    between atoms: C_18  and  O_19
REMARK                            x       y       z     vdW  Elec       q    Type
REMARK                         _______ _______ _______ _____ _____    ______ ____
ROOT
ATOM      1  C   UNL     1      34.210 -14.158 -22.847  0.00  0.00    +0.015 C 
ENDROOT
BRANCH   1   2
ATOM      2  C   UNL     1      34.266 -15.457 -23.588  0.00  0.00    -0.024 C 
ATOM      3  C   UNL     1      34.649 -16.655 -22.963  0.00  0.00    -0.004 C 
ATOM      4  C   UNL     1      34.680 -17.851 -23.719  0.00  0.00    -0.000 C 
ATOM      5  C   UNL     1      33.918 -15.440 -24.940  0.00  0.00    -0.004 C 
ATOM      6  C   UNL     1      35.002 -16.692 -21.604  0.00  0.00    -0.000 C 
ATOM      7  C   UNL     1      34.327 -17.815 -25.078  0.00  0.00    -0.000 C 
ATOM      8  C   UNL     1      33.948 -16.616 -25.682  0.00  0.00    -0.000 C 
ATOM      9  C   UNL     1      35.063 -19.050 -23.094  0.00  0.00    -0.000 C 
ATOM     10  C   UNL     1      35.381 -17.891 -21.000  0.00  0.00    -0.000 C 
ATOM     11  C   UNL     1      35.411 -19.067 -21.743  0.00  0.00    -0.000 C 
ENDBRANCH   1   2
BRANCH   1  12
ATOM     12  CA  UNL     1      33.377 -13.079 -23.569  0.00  0.00    +0.040 C 
BRANCH  12  13
ATOM     13  N   UNL     1      34.247 -12.016 -24.066  0.00  0.00    +0.389 N 
ATOM     14  H1  UNL     1      35.159 -12.084 -23.612  0.00  0.00    -0.088 HD
ATOM     15  H2  UNL     1      33.831 -11.109 -23.855  0.00  0.00    -0.088 HD
ATOM     16  H3  UNL     1      34.360 -12.112 -25.074  0.00  0.00    -0.088 HD
ENDBRANCH  12  13
BRANCH  12  18
ATOM     17  OXT UNL     1      32.119 -11.222 -22.618  0.00  0.00    -0.253 OA
ATOM     18  C   UNL     1      32.375 -12.418 -22.637  0.00  0.00    +0.293 C 
BRANCH  18  19
ATOM     19  O   UNL     1      31.752 -13.315 -21.828  0.00  0.00    -0.482 OA
ATOM     20  H   UNL     1      32.257 -13.940 -21.346  0.00  0.00    +0.295 HD
ENDBRANCH  18  19
ENDBRANCH  12  18
ENDBRANCH   1  12
TORSDOF 5
ENDMDL
