MODEL 1
REMARK VINA RESULT:      -9.7      0.000      0.000
REMARK  Name = 9577124
REMARK  6 active torsions:
REMARK  status: ('A' for Active; 'I' for Inactive)
REMARK    1  A    between atoms: C_6  and  O_24
REMARK    2  A    between atoms: C_6  and  C_33
REMARK    3  A    between atoms: C_16  and  C_27
REMARK    4  A    between atoms: N_26  and  C_27
REMARK    5  A    between atoms: N_26  and  O_28
REMARK    6  A    between atoms: O_28  and  C_29
REMARK                            x       y       z     vdW  Elec       q    Type
REMARK                         _______ _______ _______ _____ _____    ______ ____
ROOT
ATOM      1  O   UNL     1      35.477 -19.299 -23.634  0.00  0.00    -0.442 OA
ATOM      2  O   UNL     1      34.275 -15.765 -25.629  0.00  0.00    -0.270 OA
ATOM      3  O   UNL     1      36.072 -20.153 -21.645  0.00  0.00    -0.247 OA
ATOM      4  N   UNL     1      33.612 -14.799 -23.635  0.00  0.00    -0.249 N 
ATOM      5  N   UNL     1      32.541 -13.328 -20.531  0.00  0.00    -0.405 NA
ATOM      6  C   UNL     1      34.311 -18.500 -21.622  0.00  0.00    +0.196 C 
ATOM      7  C   UNL     1      34.098 -17.200 -22.347  0.00  0.00    +0.017 C 
ATOM      8  C   UNL     1      33.378 -14.907 -22.274  0.00  0.00    +0.084 C 
ATOM      9  C   UNL     1      33.292 -13.443 -24.122  0.00  0.00    +0.127 C 
ATOM     10  C   UNL     1      34.322 -17.125 -23.671  0.00  0.00    +0.074 C 
ATOM     11  C   UNL     1      32.833 -12.760 -22.876  0.00  0.00    +0.026 C 
ATOM     12  C   UNL     1      32.885 -13.625 -21.792  0.00  0.00    +0.142 C 
ATOM     13  C   UNL     1      33.593 -16.049 -21.614  0.00  0.00    +0.016 C 
ATOM     14  C   UNL     1      34.075 -15.841 -24.419  0.00  0.00    +0.252 C 
ATOM     15  C   UNL     1      34.802 -18.309 -24.441  0.00  0.00    +0.239 C 
ATOM     16  C   UNL     1      32.393 -11.474 -22.666  0.00  0.00    +0.000 C 
ATOM     17  C   UNL     1      35.369 -19.373 -22.287  0.00  0.00    +0.346 C 
ATOM     18  C   UNL     1      32.018 -11.104 -21.364  0.00  0.00    +0.023 C 
ATOM     19  C   UNL     1      32.109 -12.067 -20.320  0.00  0.00    +0.113 C 
ATOM     20  C   UNL     1      31.562  -9.806 -21.087  0.00  0.00    +0.002 C 
ATOM     21  C   UNL     1      31.732 -11.678 -19.038  0.00  0.00    +0.085 C 
ATOM     22  C   UNL     1      31.194  -9.448 -19.793  0.00  0.00    -0.004 C 
ATOM     23  C   UNL     1      31.279 -10.385 -18.769  0.00  0.00    -0.019 C 
ENDROOT
BRANCH   6  24
ATOM     24  O   UNL     1      34.829 -18.245 -20.315  0.00  0.00    -0.373 OA
ATOM     25  H   UNL     1      34.177 -18.519 -19.649  0.00  0.00    +0.211 HD
ENDBRANCH   6  24
BRANCH   6  26
ATOM     26  C   UNL     1      33.009 -19.295 -21.493  0.00  0.00    +0.042 C 
ATOM     27  C   UNL     1      33.017 -20.163 -20.251  0.00  0.00    +0.003 C 
ENDBRANCH   6  26
BRANCH  16  28
ATOM     28  C   UNL     1      32.335 -10.561 -23.802  0.00  0.00    +0.148 C 
BRANCH  28  29
ATOM     29  N   UNL     1      33.128  -9.538 -23.925  0.00  0.00    -0.079 NA
BRANCH  29  30
ATOM     30  O   UNL     1      32.362  -8.368 -24.001  0.00  0.00    -0.271 OA
BRANCH  30  31
ATOM     31  C   UNL     1      33.174  -7.280 -23.587  0.00  0.00    +0.115 C 
ATOM     32  C   UNL     1      34.569  -7.812 -23.262  0.00  0.00    +0.032 C 
ATOM     33  C   UNL     1      33.235  -6.285 -24.743  0.00  0.00    +0.032 C 
ATOM     34  C   UNL     1      32.536  -6.637 -22.357  0.00  0.00    +0.032 C 
ENDBRANCH  30  31
ENDBRANCH  29  30
ENDBRANCH  28  29
ENDBRANCH  16  28
TORSDOF 6
ENDMDL
MODEL 2
REMARK VINA RESULT:      -9.7      6.649     12.505
REMARK  Name = 9577124
REMARK  6 active torsions:
REMARK  status: ('A' for Active; 'I' for Inactive)
REMARK    1  A    between atoms: C_6  and  O_24
REMARK    2  A    between atoms: C_6  and  C_33
REMARK    3  A    between atoms: C_16  and  C_27
REMARK    4  A    between atoms: N_26  and  C_27
REMARK    5  A    between atoms: N_26  and  O_28
REMARK    6  A    between atoms: O_28  and  C_29
REMARK                            x       y       z     vdW  Elec       q    Type
REMARK                         _______ _______ _______ _____ _____    ______ ____
ROOT
ATOM      1  O   UNL     1      36.096 -19.556 -22.133  0.00  0.00    -0.442 OA
ATOM      2  O   UNL     1      37.157 -21.666 -18.621  0.00  0.00    -0.270 OA
ATOM      3  O   UNL     1      34.464 -19.237 -23.642  0.00  0.00    -0.247 OA
ATOM      4  N   UNL     1      34.934 -22.059 -18.120  0.00  0.00    -0.249 N 
ATOM      5  N   UNL     1      31.470 -22.622 -17.328  0.00  0.00    -0.405 NA
ATOM      6  C   UNL     1      33.768 -19.516 -21.346  0.00  0.00    +0.196 C 
ATOM      7  C   UNL     1      34.202 -20.428 -20.233  0.00  0.00    +0.017 C 
ATOM      8  C   UNL     1      33.592 -21.841 -18.385  0.00  0.00    +0.084 C 
ATOM      9  C   UNL     1      35.106 -22.955 -16.958  0.00  0.00    +0.127 C 
ATOM     10  C   UNL     1      35.512 -20.613 -19.988  0.00  0.00    +0.074 C 
ATOM     11  C   UNL     1      33.694 -23.237 -16.566  0.00  0.00    +0.026 C 
ATOM     12  C   UNL     1      32.807 -22.580 -17.407  0.00  0.00    +0.142 C 
ATOM     13  C   UNL     1      33.195 -21.057 -19.391  0.00  0.00    +0.016 C 
ATOM     14  C   UNL     1      35.963 -21.493 -18.851  0.00  0.00    +0.252 C 
ATOM     15  C   UNL     1      36.553 -19.944 -20.819  0.00  0.00    +0.239 C 
ATOM     16  C   UNL     1      33.182 -24.009 -15.550  0.00  0.00    +0.000 C 
ATOM     17  C   UNL     1      34.791 -19.441 -22.473  0.00  0.00    +0.346 C 
ATOM     18  C   UNL     1      31.786 -24.092 -15.416  0.00  0.00    +0.023 C 
ATOM     19  C   UNL     1      30.962 -23.379 -16.333  0.00  0.00    +0.113 C 
ATOM     20  C   UNL     1      31.203 -24.864 -14.400  0.00  0.00    +0.002 C 
ATOM     21  C   UNL     1      29.582 -23.475 -16.182  0.00  0.00    +0.085 C 
ATOM     22  C   UNL     1      29.818 -24.940 -14.276  0.00  0.00    -0.004 C 
ATOM     23  C   UNL     1      29.009 -24.245 -15.167  0.00  0.00    -0.019 C 
ENDROOT
BRANCH   6  24
ATOM     24  O   UNL     1      32.591 -20.037 -21.967  0.00  0.00    -0.373 OA
ATOM     25  H   UNL     1      32.146 -19.331 -22.463  0.00  0.00    +0.211 HD
ENDBRANCH   6  24
BRANCH   6  26
ATOM     26  C   UNL     1      33.474 -18.103 -20.836  0.00  0.00    +0.042 C 
ATOM     27  C   UNL     1      34.524 -17.118 -21.309  0.00  0.00    +0.003 C 
ENDBRANCH   6  26
BRANCH  16  28
ATOM     28  C   UNL     1      34.109 -24.701 -14.661  0.00  0.00    +0.148 C 
BRANCH  28  29
ATOM     29  N   UNL     1      34.617 -24.143 -13.602  0.00  0.00    -0.079 NA
BRANCH  29  30
ATOM     30  O   UNL     1      36.015 -24.145 -13.706  0.00  0.00    -0.271 OA
BRANCH  30  31
ATOM     31  C   UNL     1      36.552 -24.434 -12.425  0.00  0.00    +0.115 C 
ATOM     32  C   UNL     1      37.285 -25.773 -12.495  0.00  0.00    +0.032 C 
ATOM     33  C   UNL     1      37.521 -23.309 -12.067  0.00  0.00    +0.032 C 
ATOM     34  C   UNL     1      35.404 -24.495 -11.418  0.00  0.00    +0.032 C 
ENDBRANCH  30  31
ENDBRANCH  29  30
ENDBRANCH  28  29
ENDBRANCH  16  28
TORSDOF 6
ENDMDL
MODEL 3
REMARK VINA RESULT:      -8.4      1.953      9.385
REMARK  Name = 9577124
REMARK  6 active torsions:
REMARK  status: ('A' for Active; 'I' for Inactive)
REMARK    1  A    between atoms: C_6  and  O_24
REMARK    2  A    between atoms: C_6  and  C_33
REMARK    3  A    between atoms: C_16  and  C_27
REMARK    4  A    between atoms: N_26  and  C_27
REMARK    5  A    between atoms: N_26  and  O_28
REMARK    6  A    between atoms: O_28  and  C_29
REMARK                            x       y       z     vdW  Elec       q    Type
REMARK                         _______ _______ _______ _____ _____    ______ ____
ROOT
ATOM      1  O   UNL     1      31.826  -6.871 -20.290  0.00  0.00    -0.442 OA
ATOM      2  O   UNL     1      31.721 -10.852 -18.858  0.00  0.00    -0.270 OA
ATOM      3  O   UNL     1      32.627  -5.541 -21.912  0.00  0.00    -0.247 OA
ATOM      4  N   UNL     1      32.298 -11.675 -20.941  0.00  0.00    -0.249 N 
ATOM      5  N   UNL     1      33.149 -12.943 -24.198  0.00  0.00    -0.405 NA
ATOM      6  C   UNL     1      31.920  -7.751 -22.584  0.00  0.00    +0.196 C 
ATOM      7  C   UNL     1      32.073  -9.119 -21.978  0.00  0.00    +0.017 C 
ATOM      8  C   UNL     1      32.529 -11.459 -22.290  0.00  0.00    +0.084 C 
ATOM      9  C   UNL     1      32.470 -13.100 -20.595  0.00  0.00    +0.127 C 
ATOM     10  C   UNL     1      31.832  -9.303 -20.667  0.00  0.00    +0.074 C 
ATOM     11  C   UNL     1      32.829 -13.703 -21.912  0.00  0.00    +0.026 C 
ATOM     12  C   UNL     1      32.862 -12.735 -22.906  0.00  0.00    +0.142 C 
ATOM     13  C   UNL     1      32.426 -10.243 -22.832  0.00  0.00    +0.016 C 
ATOM     14  C   UNL     1      31.942 -10.675 -20.053  0.00  0.00    +0.252 C 
ATOM     15  C   UNL     1      31.432  -8.167 -19.789  0.00  0.00    +0.239 C 
ATOM     16  C   UNL     1      33.114 -15.004 -22.257  0.00  0.00    +0.000 C 
ATOM     17  C   UNL     1      32.172  -6.634 -21.577  0.00  0.00    +0.346 C 
ATOM     18  C   UNL     1      33.422 -15.284 -23.598  0.00  0.00    +0.023 C 
ATOM     19  C   UNL     1      33.429 -14.218 -24.541  0.00  0.00    +0.113 C 
ATOM     20  C   UNL     1      33.721 -16.591 -24.011  0.00  0.00    +0.002 C 
ATOM     21  C   UNL     1      33.737 -14.519 -25.864  0.00  0.00    +0.085 C 
ATOM     22  C   UNL     1      34.027 -16.859 -25.343  0.00  0.00    -0.004 C 
ATOM     23  C   UNL     1      34.034 -15.822 -26.269  0.00  0.00    -0.019 C 
ENDROOT
BRANCH   6  24
ATOM     24  O   UNL     1      32.915  -7.554 -23.590  0.00  0.00    -0.373 OA
ATOM     25  H   UNL     1      33.003  -8.363 -24.121  0.00  0.00    +0.211 HD
ENDBRANCH   6  24
BRANCH   6  26
ATOM     26  C   UNL     1      30.537  -7.563 -23.211  0.00  0.00    +0.042 C 
ATOM     27  C   UNL     1      30.623  -6.786 -24.509  0.00  0.00    +0.003 C 
ENDBRANCH   6  26
BRANCH  16  28
ATOM     28  C   UNL     1      33.079 -16.026 -21.216  0.00  0.00    +0.148 C 
BRANCH  28  29
ATOM     29  N   UNL     1      34.062 -16.852 -21.008  0.00  0.00    -0.079 NA
BRANCH  29  30
ATOM     30  O   UNL     1      33.563 -18.161 -20.974  0.00  0.00    -0.271 OA
BRANCH  30  31
ATOM     31  C   UNL     1      34.627 -19.046 -21.288  0.00  0.00    +0.115 C 
ATOM     32  C   UNL     1      35.950 -18.319 -21.056  0.00  0.00    +0.032 C 
ATOM     33  C   UNL     1      34.508 -20.255 -20.363  0.00  0.00    +0.032 C 
ATOM     34  C   UNL     1      34.489 -19.473 -22.750  0.00  0.00    +0.032 C 
ENDBRANCH  30  31
ENDBRANCH  29  30
ENDBRANCH  28  29
ENDBRANCH  16  28
TORSDOF 6
ENDMDL
MODEL 4
REMARK VINA RESULT:      -8.4      9.329     13.048
REMARK  Name = 9577124
REMARK  6 active torsions:
REMARK  status: ('A' for Active; 'I' for Inactive)
REMARK    1  A    between atoms: C_6  and  O_24
REMARK    2  A    between atoms: C_6  and  C_33
REMARK    3  A    between atoms: C_16  and  C_27
REMARK    4  A    between atoms: N_26  and  C_27
REMARK    5  A    between atoms: N_26  and  O_28
REMARK    6  A    between atoms: O_28  and  C_29
REMARK                            x       y       z     vdW  Elec       q    Type
REMARK                         _______ _______ _______ _____ _____    ______ ____
ROOT
ATOM      1  O   UNL     1      37.057 -26.026 -11.660  0.00  0.00    -0.442 OA
ATOM      2  O   UNL     1      33.256 -24.805 -13.065  0.00  0.00    -0.270 OA
ATOM      3  O   UNL     1      39.180 -26.426 -12.269  0.00  0.00    -0.247 OA
ATOM      4  N   UNL     1      34.204 -23.808 -14.924  0.00  0.00    -0.249 N 
ATOM      5  N   UNL     1      35.696 -22.220 -17.787  0.00  0.00    -0.405 NA
ATOM      6  C   UNL     1      38.094 -24.545 -13.324  0.00  0.00    +0.196 C 
ATOM      7  C   UNL     1      36.715 -24.320 -13.881  0.00  0.00    +0.017 C 
ATOM      8  C   UNL     1      35.332 -23.407 -15.622  0.00  0.00    +0.084 C 
ATOM      9  C   UNL     1      32.972 -23.441 -15.652  0.00  0.00    +0.127 C 
ATOM     10  C   UNL     1      35.636 -24.708 -13.177  0.00  0.00    +0.074 C 
ATOM     11  C   UNL     1      33.513 -22.767 -16.869  0.00  0.00    +0.026 C 
ATOM     12  C   UNL     1      34.901 -22.749 -16.847  0.00  0.00    +0.142 C 
ATOM     13  C   UNL     1      36.562 -23.629 -15.152  0.00  0.00    +0.016 C 
ATOM     14  C   UNL     1      34.246 -24.455 -13.702  0.00  0.00    +0.252 C 
ATOM     15  C   UNL     1      35.778 -25.382 -11.855  0.00  0.00    +0.239 C 
ATOM     16  C   UNL     1      32.869 -22.198 -17.942  0.00  0.00    +0.000 C 
ATOM     17  C   UNL     1      38.159 -25.750 -12.394  0.00  0.00    +0.346 C 
ATOM     18  C   UNL     1      33.650 -21.626 -18.960  0.00  0.00    +0.023 C 
ATOM     19  C   UNL     1      35.068 -21.659 -18.842  0.00  0.00    +0.113 C 
ATOM     20  C   UNL     1      33.050 -21.030 -20.080  0.00  0.00    +0.002 C 
ATOM     21  C   UNL     1      35.822 -21.087 -19.862  0.00  0.00    +0.085 C 
ATOM     22  C   UNL     1      33.833 -20.467 -21.084  0.00  0.00    -0.004 C 
ATOM     23  C   UNL     1      35.219 -20.495 -20.974  0.00  0.00    -0.019 C 
ENDROOT
BRANCH   6  24
ATOM     24  O   UNL     1      38.997 -24.864 -14.385  0.00  0.00    -0.373 OA
ATOM     25  H   UNL     1      39.398 -24.048 -14.724  0.00  0.00    +0.211 HD
ENDBRANCH   6  24
BRANCH   6  26
ATOM     26  C   UNL     1      38.614 -23.308 -12.587  0.00  0.00    +0.042 C 
ATOM     27  C   UNL     1      37.557 -22.735 -11.663  0.00  0.00    +0.003 C 
ENDBRANCH   6  26
BRANCH  16  28
ATOM     28  C   UNL     1      31.410 -22.212 -17.969  0.00  0.00    +0.148 C 
BRANCH  28  29
ATOM     29  N   UNL     1      30.687 -22.364 -16.899  0.00  0.00    -0.079 NA
BRANCH  29  30
ATOM     30  O   UNL     1      29.332 -22.347 -17.253  0.00  0.00    -0.271 OA
BRANCH  30  31
ATOM     31  C   UNL     1      28.591 -22.930 -16.192  0.00  0.00    +0.115 C 
ATOM     32  C   UNL     1      28.462 -24.429 -16.455  0.00  0.00    +0.032 C 
ATOM     33  C   UNL     1      29.362 -22.676 -14.899  0.00  0.00    +0.032 C 
ATOM     34  C   UNL     1      27.215 -22.266 -16.137  0.00  0.00    +0.032 C 
ENDBRANCH  30  31
ENDBRANCH  29  30
ENDBRANCH  28  29
ENDBRANCH  16  28
TORSDOF 6
ENDMDL
MODEL 5
REMARK VINA RESULT:      -7.1      7.394     12.881
REMARK  Name = 9577124
REMARK  6 active torsions:
REMARK  status: ('A' for Active; 'I' for Inactive)
REMARK    1  A    between atoms: C_6  and  O_24
REMARK    2  A    between atoms: C_6  and  C_33
REMARK    3  A    between atoms: C_16  and  C_27
REMARK    4  A    between atoms: N_26  and  C_27
REMARK    5  A    between atoms: N_26  and  O_28
REMARK    6  A    between atoms: O_28  and  C_29
REMARK                            x       y       z     vdW  Elec       q    Type
REMARK                         _______ _______ _______ _____ _____    ______ ____
ROOT
ATOM      1  O   UNL     1      33.267 -18.886 -21.285  0.00  0.00    -0.442 OA
ATOM      2  O   UNL     1      31.861 -21.922 -18.694  0.00  0.00    -0.270 OA
ATOM      3  O   UNL     1      34.950 -17.448 -21.660  0.00  0.00    -0.247 OA
ATOM      4  N   UNL     1      33.997 -22.304 -17.894  0.00  0.00    -0.249 N 
ATOM      5  N   UNL     1      37.332 -22.920 -16.693  0.00  0.00    -0.405 NA
ATOM      6  C   UNL     1      35.565 -19.633 -20.834  0.00  0.00    +0.196 C 
ATOM      7  C   UNL     1      34.988 -20.548 -19.790  0.00  0.00    +0.017 C 
ATOM      8  C   UNL     1      35.361 -22.069 -17.965  0.00  0.00    +0.084 C 
ATOM      9  C   UNL     1      33.681 -23.267 -16.820  0.00  0.00    +0.127 C 
ATOM     10  C   UNL     1      33.661 -20.769 -19.750  0.00  0.00    +0.074 C 
ATOM     11  C   UNL     1      35.032 -23.576 -16.265  0.00  0.00    +0.026 C 
ATOM     12  C   UNL     1      36.016 -22.870 -16.941  0.00  0.00    +0.142 C 
ATOM     13  C   UNL     1      35.881 -21.234 -18.868  0.00  0.00    +0.016 C 
ATOM     14  C   UNL     1      33.071 -21.714 -18.736  0.00  0.00    +0.252 C 
ATOM     15  C   UNL     1      32.739 -20.103 -20.714  0.00  0.00    +0.239 C 
ATOM     16  C   UNL     1      35.413 -24.411 -15.241  0.00  0.00    +0.000 C 
ATOM     17  C   UNL     1      34.580 -18.557 -21.277  0.00  0.00    +0.346 C 
ATOM     18  C   UNL     1      36.780 -24.506 -14.934  0.00  0.00    +0.023 C 
ATOM     19  C   UNL     1      37.711 -23.738 -15.689  0.00  0.00    +0.113 C 
ATOM     20  C   UNL     1      37.230 -25.340 -13.900  0.00  0.00    +0.002 C 
ATOM     21  C   UNL     1      39.060 -23.848 -15.367  0.00  0.00    +0.085 C 
ATOM     22  C   UNL     1      38.588 -25.427 -13.602  0.00  0.00    -0.004 C 
ATOM     23  C   UNL     1      39.502 -24.681 -14.337  0.00  0.00    -0.019 C 
ENDROOT
BRANCH   6  24
ATOM     24  O   UNL     1      36.664 -18.904 -20.282  0.00  0.00    -0.373 OA
ATOM     25  H   UNL     1      36.373 -18.436 -19.483  0.00  0.00    +0.211 HD
ENDBRANCH   6  24
BRANCH   6  26
ATOM     26  C   UNL     1      36.051 -20.409 -22.060  0.00  0.00    +0.042 C 
ATOM     27  C   UNL     1      35.469 -19.839 -23.337  0.00  0.00    +0.003 C 
ENDBRANCH   6  26
BRANCH  16  28
ATOM     28  C   UNL     1      34.382 -25.157 -14.527  0.00  0.00    +0.148 C 
BRANCH  28  29
ATOM     29  N   UNL     1      33.409 -24.577 -13.887  0.00  0.00    -0.079 NA
BRANCH  29  30
ATOM     30  O   UNL     1      32.223 -25.291 -14.107  0.00  0.00    -0.271 OA
BRANCH  30  31
ATOM     31  C   UNL     1      31.149 -24.364 -14.136  0.00  0.00    +0.115 C 
ATOM     32  C   UNL     1      30.427 -24.498 -15.476  0.00  0.00    +0.032 C 
ATOM     33  C   UNL     1      30.211 -24.709 -12.983  0.00  0.00    +0.032 C 
ATOM     34  C   UNL     1      31.718 -22.955 -13.963  0.00  0.00    +0.032 C 
ENDBRANCH  30  31
ENDBRANCH  29  30
ENDBRANCH  28  29
ENDBRANCH  16  28
TORSDOF 6
ENDMDL
MODEL 6
REMARK VINA RESULT:      -7.0      8.620     12.634
REMARK  Name = 9577124
REMARK  6 active torsions:
REMARK  status: ('A' for Active; 'I' for Inactive)
REMARK    1  A    between atoms: C_6  and  O_24
REMARK    2  A    between atoms: C_6  and  C_33
REMARK    3  A    between atoms: C_16  and  C_27
REMARK    4  A    between atoms: N_26  and  C_27
REMARK    5  A    between atoms: N_26  and  O_28
REMARK    6  A    between atoms: O_28  and  C_29
REMARK                            x       y       z     vdW  Elec       q    Type
REMARK                         _______ _______ _______ _____ _____    ______ ____
ROOT
ATOM      1  O   UNL     1      39.185 -24.351 -13.069  0.00  0.00    -0.442 OA
ATOM      2  O   UNL     1      37.490 -22.660 -16.559  0.00  0.00    -0.270 OA
ATOM      3  O   UNL     1      38.748 -24.999 -10.965  0.00  0.00    -0.247 OA
ATOM      4  N   UNL     1      35.360 -23.252 -15.878  0.00  0.00    -0.249 N 
ATOM      5  N   UNL     1      32.058 -24.220 -14.827  0.00  0.00    -0.405 NA
ATOM      6  C   UNL     1      37.024 -25.426 -12.601  0.00  0.00    +0.196 C 
ATOM      7  C   UNL     1      36.460 -24.632 -13.746  0.00  0.00    +0.017 C 
ATOM      8  C   UNL     1      34.531 -23.919 -14.991  0.00  0.00    +0.084 C 
ATOM      9  C   UNL     1      34.577 -22.582 -16.936  0.00  0.00    +0.127 C 
ATOM     10  C   UNL     1      37.288 -24.003 -14.600  0.00  0.00    +0.074 C 
ATOM     11  C   UNL     1      33.176 -22.942 -16.566  0.00  0.00    +0.026 C 
ATOM     12  C   UNL     1      33.153 -23.728 -15.423  0.00  0.00    +0.142 C 
ATOM     13  C   UNL     1      35.020 -24.602 -13.953  0.00  0.00    +0.016 C 
ATOM     14  C   UNL     1      36.740 -23.236 -15.775  0.00  0.00    +0.252 C 
ATOM     15  C   UNL     1      38.767 -24.059 -14.421  0.00  0.00    +0.239 C 
ATOM     16  C   UNL     1      31.979 -22.622 -17.163  0.00  0.00    +0.000 C 
ATOM     17  C   UNL     1      38.375 -24.898 -12.133  0.00  0.00    +0.346 C 
ATOM     18  C   UNL     1      30.796 -23.110 -16.585  0.00  0.00    +0.023 C 
ATOM     19  C   UNL     1      30.881 -23.909 -15.410  0.00  0.00    +0.113 C 
ATOM     20  C   UNL     1      29.544 -22.818 -17.148  0.00  0.00    +0.002 C 
ATOM     21  C   UNL     1      29.696 -24.381 -14.854  0.00  0.00    +0.085 C 
ATOM     22  C   UNL     1      28.377 -23.305 -16.566  0.00  0.00    -0.004 C 
ATOM     23  C   UNL     1      28.454 -24.087 -15.419  0.00  0.00    -0.019 C 
ENDROOT
BRANCH   6  24
ATOM     24  O   UNL     1      36.176 -25.297 -11.459  0.00  0.00    -0.373 OA
ATOM     25  H   UNL     1      35.402 -25.874 -11.564  0.00  0.00    +0.211 HD
ENDBRANCH   6  24
BRANCH   6  26
ATOM     26  C   UNL     1      37.157 -26.910 -12.954  0.00  0.00    +0.042 C 
ATOM     27  C   UNL     1      37.163 -27.119 -14.455  0.00  0.00    +0.003 C 
ENDBRANCH   6  26
BRANCH  16  28
ATOM     28  C   UNL     1      31.997 -21.797 -18.367  0.00  0.00    +0.148 C 
BRANCH  28  29
ATOM     29  N   UNL     1      32.879 -21.948 -19.310  0.00  0.00    -0.079 NA
BRANCH  29  30
ATOM     30  O   UNL     1      33.598 -20.754 -19.463  0.00  0.00    -0.271 OA
BRANCH  30  31
ATOM     31  C   UNL     1      34.781 -21.041 -20.190  0.00  0.00    +0.115 C 
ATOM     32  C   UNL     1      34.855 -22.550 -20.424  0.00  0.00    +0.032 C 
ATOM     33  C   UNL     1      34.697 -20.295 -21.519  0.00  0.00    +0.032 C 
ATOM     34  C   UNL     1      35.982 -20.557 -19.377  0.00  0.00    +0.032 C 
ENDBRANCH  30  31
ENDBRANCH  29  30
ENDBRANCH  28  29
ENDBRANCH  16  28
TORSDOF 6
ENDMDL
MODEL 7
REMARK VINA RESULT:      -6.9      1.835      3.630
REMARK  Name = 9577124
REMARK  6 active torsions:
REMARK  status: ('A' for Active; 'I' for Inactive)
REMARK    1  A    between atoms: C_6  and  O_24
REMARK    2  A    between atoms: C_6  and  C_33
REMARK    3  A    between atoms: C_16  and  C_27
REMARK    4  A    between atoms: N_26  and  C_27
REMARK    5  A    between atoms: N_26  and  O_28
REMARK    6  A    between atoms: O_28  and  C_29
REMARK                            x       y       z     vdW  Elec       q    Type
REMARK                         _______ _______ _______ _____ _____    ______ ____
ROOT
ATOM      1  O   UNL     1      33.741 -19.428 -21.766  0.00  0.00    -0.442 OA
ATOM      2  O   UNL     1      31.629 -16.040 -20.360  0.00  0.00    -0.270 OA
ATOM      3  O   UNL     1      34.938 -20.243 -23.481  0.00  0.00    -0.247 OA
ATOM      4  N   UNL     1      32.758 -14.658 -21.831  0.00  0.00    -0.249 N 
ATOM      5  N   UNL     1      34.556 -12.513 -24.091  0.00  0.00    -0.405 NA
ATOM      6  C   UNL     1      35.287 -17.917 -22.936  0.00  0.00    +0.196 C 
ATOM      7  C   UNL     1      34.367 -16.791 -22.551  0.00  0.00    +0.017 C 
ATOM      8  C   UNL     1      33.761 -14.475 -22.769  0.00  0.00    +0.084 C 
ATOM      9  C   UNL     1      32.020 -13.402 -21.592  0.00  0.00    +0.127 C 
ATOM     10  C   UNL     1      33.409 -16.993 -21.629  0.00  0.00    +0.074 C 
ATOM     11  C   UNL     1      32.715 -12.448 -22.505  0.00  0.00    +0.026 C 
ATOM     12  C   UNL     1      33.738 -13.083 -23.195  0.00  0.00    +0.142 C 
ATOM     13  C   UNL     1      34.563 -15.476 -23.141  0.00  0.00    +0.016 C 
ATOM     14  C   UNL     1      32.505 -15.865 -21.203  0.00  0.00    +0.252 C 
ATOM     15  C   UNL     1      33.223 -18.326 -20.988  0.00  0.00    +0.239 C 
ATOM     16  C   UNL     1      32.498 -11.111 -22.744  0.00  0.00    +0.000 C 
ATOM     17  C   UNL     1      34.637 -19.286 -22.770  0.00  0.00    +0.346 C 
ATOM     18  C   UNL     1      33.324 -10.458 -23.673  0.00  0.00    +0.023 C 
ATOM     19  C   UNL     1      34.346 -11.201 -24.328  0.00  0.00    +0.113 C 
ATOM     20  C   UNL     1      33.151  -9.095 -23.959  0.00  0.00    +0.002 C 
ATOM     21  C   UNL     1      35.152 -10.533 -25.245  0.00  0.00    +0.085 C 
ATOM     22  C   UNL     1      33.974  -8.457 -24.883  0.00  0.00    -0.004 C 
ATOM     23  C   UNL     1      34.975  -9.177 -25.525  0.00  0.00    -0.019 C 
ENDROOT
BRANCH   6  24
ATOM     24  O   UNL     1      35.594 -17.835 -24.329  0.00  0.00    -0.373 OA
ATOM     25  H   UNL     1      36.184 -18.566 -24.574  0.00  0.00    +0.211 HD
ENDBRANCH   6  24
BRANCH   6  26
ATOM     26  C   UNL     1      36.592 -17.878 -22.138  0.00  0.00    +0.042 C 
ATOM     27  C   UNL     1      36.664 -19.020 -21.145  0.00  0.00    +0.003 C 
ENDBRANCH   6  26
BRANCH  16  28
ATOM     28  C   UNL     1      31.425 -10.438 -22.020  0.00  0.00    +0.148 C 
BRANCH  28  29
ATOM     29  N   UNL     1      31.647  -9.539 -21.107  0.00  0.00    -0.079 NA
BRANCH  29  30
ATOM     30  O   UNL     1      31.441  -8.266 -21.655  0.00  0.00    -0.271 OA
BRANCH  30  31
ATOM     31  C   UNL     1      32.172  -7.328 -20.881  0.00  0.00    +0.115 C 
ATOM     32  C   UNL     1      31.616  -5.931 -21.156  0.00  0.00    +0.032 C 
ATOM     33  C   UNL     1      31.986  -7.699 -19.412  0.00  0.00    +0.032 C 
ATOM     34  C   UNL     1      33.646  -7.415 -21.275  0.00  0.00    +0.032 C 
ENDBRANCH  30  31
ENDBRANCH  29  30
ENDBRANCH  28  29
ENDBRANCH  16  28
TORSDOF 6
ENDMDL
