MODEL 1
REMARK VINA RESULT:     -11.1      0.000      0.000
REMARK  Name = 6857690
REMARK  2 active torsions:
REMARK  status: ('A' for Active; 'I' for Inactive)
REMARK    1  A    between atoms: C_4  and  C_18
REMARK    2  A    between atoms: C_21  and  O_24
REMARK                            x       y       z     vdW  Elec       q    Type
REMARK                         _______ _______ _______ _____ _____    ______ ____
ROOT
ATOM      1  O   UNL     1      37.225 -25.113 -15.592  0.00  0.00    -0.252 OA
ATOM      2  N   UNL     1      35.671 -23.566 -14.891  0.00  0.00    -0.259 N 
ATOM      3  N   UNL     1      36.592 -25.180 -13.378  0.00  0.00    -0.261 N 
ATOM      4  C   UNL     1      34.734 -23.083 -17.116  0.00  0.00    +0.064 C 
ATOM      5  C   UNL     1      35.828 -22.746 -16.088  0.00  0.00    +0.104 C 
ATOM      6  C   UNL     1      33.350 -23.099 -16.470  0.00  0.00    -0.019 C 
ATOM      7  C   UNL     1      33.219 -23.226 -15.070  0.00  0.00    -0.010 C 
ATOM      8  C   UNL     1      34.422 -23.331 -14.158  0.00  0.00    +0.121 C 
ATOM      9  C   UNL     1      31.940 -23.246 -14.492  0.00  0.00    -0.028 C 
ATOM     10  C   UNL     1      32.186 -23.071 -17.258  0.00  0.00    -0.005 C 
ATOM     11  C   UNL     1      30.797 -23.184 -15.287  0.00  0.00    -0.026 C 
ATOM     12  C   UNL     1      36.536 -24.648 -14.675  0.00  0.00    +0.308 C 
ATOM     13  C   UNL     1      30.921 -23.105 -16.671  0.00  0.00    -0.005 C 
ATOM     14  C   UNL     1      31.782 -23.343 -13.004  0.00  0.00    +0.030 C 
ATOM     15  C   UNL     1      29.432 -23.199 -14.685  0.00  0.00    +0.031 C 
ATOM     16  C   UNL     1      36.363 -24.410 -12.159  0.00  0.00    +0.117 C 
ATOM     17  C   UNL     1      37.157 -26.509 -13.182  0.00  0.00    +0.117 C 
ENDROOT
BRANCH   4  18
ATOM     18  C   UNL     1      34.870 -22.155 -18.315  0.00  0.00    -0.014 C 
ATOM     19  C   UNL     1      33.734 -21.754 -19.010  0.00  0.00    +0.033 C 
ATOM     20  C   UNL     1      36.131 -21.715 -18.706  0.00  0.00    -0.004 C 
ATOM     21  C   UNL     1      33.859 -20.903 -20.107  0.00  0.00    +0.133 C 
ATOM     22  C   UNL     1      36.256 -20.863 -19.804  0.00  0.00    +0.003 C 
ATOM     23  C   UNL     1      35.120 -20.458 -20.505  0.00  0.00    +0.037 C 
BRANCH  21  24
ATOM     24  O   UNL     1      32.751 -20.507 -20.791  0.00  0.00    -0.506 OA
ATOM     25  H   UNL     1      32.377 -21.068 -21.442  0.00  0.00    +0.292 HD
ENDBRANCH  21  24
ENDBRANCH   4  18
TORSDOF 2
ENDMDL
MODEL 2
REMARK VINA RESULT:      -9.3     13.953     17.298
REMARK  Name = 6857690
REMARK  2 active torsions:
REMARK  status: ('A' for Active; 'I' for Inactive)
REMARK    1  A    between atoms: C_4  and  C_18
REMARK    2  A    between atoms: C_21  and  O_24
REMARK                            x       y       z     vdW  Elec       q    Type
REMARK                         _______ _______ _______ _____ _____    ______ ____
ROOT
ATOM      1  O   UNL     1      31.718  -8.148 -19.522  0.00  0.00    -0.252 OA
ATOM      2  N   UNL     1      31.654  -8.968 -21.672  0.00  0.00    -0.259 N 
ATOM      3  N   UNL     1      31.685 -10.437 -19.779  0.00  0.00    -0.261 N 
ATOM      4  C   UNL     1      32.546  -6.952 -22.768  0.00  0.00    +0.064 C 
ATOM      5  C   UNL     1      31.293  -7.675 -22.241  0.00  0.00    +0.104 C 
ATOM      6  C   UNL     1      33.395  -7.875 -23.640  0.00  0.00    -0.019 C 
ATOM      7  C   UNL     1      33.237  -9.275 -23.560  0.00  0.00    -0.010 C 
ATOM      8  C   UNL     1      32.222  -9.916 -22.638  0.00  0.00    +0.121 C 
ATOM      9  C   UNL     1      34.029 -10.110 -24.363  0.00  0.00    -0.028 C 
ATOM     10  C   UNL     1      34.402  -7.355 -24.472  0.00  0.00    -0.005 C 
ATOM     11  C   UNL     1      34.999  -9.575 -25.208  0.00  0.00    -0.026 C 
ATOM     12  C   UNL     1      31.688  -9.127 -20.280  0.00  0.00    +0.308 C 
ATOM     13  C   UNL     1      35.192  -8.198 -25.255  0.00  0.00    -0.005 C 
ATOM     14  C   UNL     1      33.848 -11.598 -24.320  0.00  0.00    +0.030 C 
ATOM     15  C   UNL     1      35.846 -10.451 -26.070  0.00  0.00    +0.031 C 
ATOM     16  C   UNL     1      31.053 -11.574 -20.443  0.00  0.00    +0.117 C 
ATOM     17  C   UNL     1      32.100 -10.670 -18.402  0.00  0.00    +0.117 C 
ENDROOT
BRANCH   4  18
ATOM     18  C   UNL     1      32.130  -5.648 -23.432  0.00  0.00    -0.014 C 
ATOM     19  C   UNL     1      31.633  -4.606 -22.656  0.00  0.00    +0.033 C 
ATOM     20  C   UNL     1      32.249  -5.507 -24.811  0.00  0.00    -0.004 C 
ATOM     21  C   UNL     1      31.252  -3.410 -23.264  0.00  0.00    +0.133 C 
ATOM     22  C   UNL     1      31.869  -4.311 -25.420  0.00  0.00    +0.003 C 
ATOM     23  C   UNL     1      31.371  -3.263 -24.647  0.00  0.00    +0.037 C 
BRANCH  21  24
ATOM     24  O   UNL     1      30.766  -2.387 -22.510  0.00  0.00    -0.506 OA
ATOM     25  H   UNL     1      30.742  -2.464 -21.577  0.00  0.00    +0.292 HD
ENDBRANCH  21  24
ENDBRANCH   4  18
TORSDOF 2
ENDMDL
MODEL 3
REMARK VINA RESULT:      -8.7      8.166     11.919
REMARK  Name = 6857690
REMARK  2 active torsions:
REMARK  status: ('A' for Active; 'I' for Inactive)
REMARK    1  A    between atoms: C_4  and  C_18
REMARK    2  A    between atoms: C_21  and  O_24
REMARK                            x       y       z     vdW  Elec       q    Type
REMARK                         _______ _______ _______ _____ _____    ______ ____
ROOT
ATOM      1  O   UNL     1      34.951 -16.174 -20.023  0.00  0.00    -0.252 OA
ATOM      2  N   UNL     1      33.520 -16.019 -21.819  0.00  0.00    -0.259 N 
ATOM      3  N   UNL     1      35.021 -17.871 -21.580  0.00  0.00    -0.261 N 
ATOM      4  C   UNL     1      33.163 -13.586 -21.684  0.00  0.00    +0.064 C 
ATOM      5  C   UNL     1      32.717 -14.975 -21.193  0.00  0.00    +0.104 C 
ATOM      6  C   UNL     1      33.277 -13.546 -23.206  0.00  0.00    -0.019 C 
ATOM      7  C   UNL     1      33.385 -14.743 -23.945  0.00  0.00    -0.010 C 
ATOM      8  C   UNL     1      33.372 -16.101 -23.277  0.00  0.00    +0.121 C 
ATOM      9  C   UNL     1      33.496 -14.689 -25.344  0.00  0.00    -0.028 C 
ATOM     10  C   UNL     1      33.362 -12.320 -23.890  0.00  0.00    -0.005 C 
ATOM     11  C   UNL     1      33.543 -13.465 -26.007  0.00  0.00    -0.026 C 
ATOM     12  C   UNL     1      34.523 -16.659 -21.079  0.00  0.00    +0.308 C 
ATOM     13  C   UNL     1      33.485 -12.281 -25.279  0.00  0.00    -0.005 C 
ATOM     14  C   UNL     1      33.572 -15.952 -26.148  0.00  0.00    +0.030 C 
ATOM     15  C   UNL     1      33.656 -13.393 -27.494  0.00  0.00    +0.031 C 
ATOM     16  C   UNL     1      34.245 -18.815 -22.380  0.00  0.00    +0.117 C 
ATOM     17  C   UNL     1      36.295 -18.374 -21.081  0.00  0.00    +0.117 C 
ENDROOT
BRANCH   4  18
ATOM     18  C   UNL     1      32.254 -12.525 -21.081  0.00  0.00    -0.014 C 
ATOM     19  C   UNL     1      32.290 -12.282 -19.712  0.00  0.00    +0.033 C 
ATOM     20  C   UNL     1      31.394 -11.806 -21.905  0.00  0.00    -0.004 C 
ATOM     21  C   UNL     1      31.457 -11.310 -19.160  0.00  0.00    +0.133 C 
ATOM     22  C   UNL     1      30.561 -10.832 -21.352  0.00  0.00    +0.003 C 
ATOM     23  C   UNL     1      30.593 -10.584 -19.980  0.00  0.00    +0.037 C 
BRANCH  21  24
ATOM     24  O   UNL     1      31.488 -11.068 -17.821  0.00  0.00    -0.506 OA
ATOM     25  H   UNL     1      32.258 -11.266 -17.327  0.00  0.00    +0.292 HD
ENDBRANCH  21  24
ENDBRANCH   4  18
TORSDOF 2
ENDMDL
MODEL 4
REMARK VINA RESULT:      -8.4      2.024      5.877
REMARK  Name = 6857690
REMARK  2 active torsions:
REMARK  status: ('A' for Active; 'I' for Inactive)
REMARK    1  A    between atoms: C_4  and  C_18
REMARK    2  A    between atoms: C_21  and  O_24
REMARK                            x       y       z     vdW  Elec       q    Type
REMARK                         _______ _______ _______ _____ _____    ______ ____
ROOT
ATOM      1  O   UNL     1      36.490 -21.284 -17.929  0.00  0.00    -0.252 OA
ATOM      2  N   UNL     1      34.957 -22.939 -17.474  0.00  0.00    -0.259 N 
ATOM      3  N   UNL     1      34.725 -21.518 -19.389  0.00  0.00    -0.261 N 
ATOM      4  C   UNL     1      35.471 -23.145 -15.075  0.00  0.00    +0.064 C 
ATOM      5  C   UNL     1      35.828 -23.592 -16.503  0.00  0.00    +0.104 C 
ATOM      6  C   UNL     1      33.968 -23.241 -14.823  0.00  0.00    -0.019 C 
ATOM      7  C   UNL     1      33.066 -23.299 -15.906  0.00  0.00    -0.010 C 
ATOM      8  C   UNL     1      33.538 -23.291 -17.344  0.00  0.00    +0.121 C 
ATOM      9  C   UNL     1      31.686 -23.380 -15.658  0.00  0.00    -0.028 C 
ATOM     10  C   UNL     1      33.451 -23.188 -13.516  0.00  0.00    -0.005 C 
ATOM     11  C   UNL     1      31.195 -23.360 -14.355  0.00  0.00    -0.026 C 
ATOM     12  C   UNL     1      35.451 -21.878 -18.244  0.00  0.00    +0.308 C 
ATOM     13  C   UNL     1      32.077 -23.255 -13.284  0.00  0.00    -0.005 C 
ATOM     14  C   UNL     1      30.716 -23.482 -16.797  0.00  0.00    +0.030 C 
ATOM     15  C   UNL     1      29.731 -23.450 -14.076  0.00  0.00    +0.031 C 
ATOM     16  C   UNL     1      33.924 -22.446 -20.184  0.00  0.00    +0.117 C 
ATOM     17  C   UNL     1      34.962 -20.216 -19.999  0.00  0.00    +0.117 C 
ENDROOT
BRANCH   4  18
ATOM     18  C   UNL     1      36.336 -23.906 -14.081  0.00  0.00    -0.014 C 
ATOM     19  C   UNL     1      37.175 -23.207 -13.219  0.00  0.00    +0.033 C 
ATOM     20  C   UNL     1      36.282 -25.296 -14.041  0.00  0.00    -0.004 C 
ATOM     21  C   UNL     1      37.968 -23.903 -12.308  0.00  0.00    +0.133 C 
ATOM     22  C   UNL     1      37.074 -25.993 -13.129  0.00  0.00    +0.003 C 
ATOM     23  C   UNL     1      37.917 -25.297 -12.262  0.00  0.00    +0.037 C 
BRANCH  21  24
ATOM     24  O   UNL     1      38.790 -23.225 -11.462  0.00  0.00    -0.506 OA
ATOM     25  H   UNL     1      39.698 -23.128 -11.669  0.00  0.00    +0.292 HD
ENDBRANCH  21  24
ENDBRANCH   4  18
TORSDOF 2
ENDMDL
MODEL 5
REMARK VINA RESULT:      -8.4     13.164     16.155
REMARK  Name = 6857690
REMARK  2 active torsions:
REMARK  status: ('A' for Active; 'I' for Inactive)
REMARK    1  A    between atoms: C_4  and  C_18
REMARK    2  A    between atoms: C_21  and  O_24
REMARK                            x       y       z     vdW  Elec       q    Type
REMARK                         _______ _______ _______ _____ _____    ______ ____
ROOT
ATOM      1  O   UNL     1      32.714  -7.946 -19.666  0.00  0.00    -0.252 OA
ATOM      2  N   UNL     1      31.895  -9.165 -21.438  0.00  0.00    -0.259 N 
ATOM      3  N   UNL     1      31.683  -9.948 -19.183  0.00  0.00    -0.261 N 
ATOM      4  C   UNL     1      33.311  -8.133 -23.168  0.00  0.00    +0.064 C 
ATOM      5  C   UNL     1      32.002  -8.044 -22.364  0.00  0.00    +0.104 C 
ATOM      6  C   UNL     1      33.510  -9.530 -23.753  0.00  0.00    -0.019 C 
ATOM      7  C   UNL     1      32.802 -10.631 -23.225  0.00  0.00    -0.010 C 
ATOM      8  C   UNL     1      31.816 -10.479 -22.088  0.00  0.00    +0.121 C 
ATOM      9  C   UNL     1      33.001 -11.910 -23.769  0.00  0.00    -0.028 C 
ATOM     10  C   UNL     1      34.457  -9.758 -24.766  0.00  0.00    -0.005 C 
ATOM     11  C   UNL     1      33.919 -12.111 -24.797  0.00  0.00    -0.026 C 
ATOM     12  C   UNL     1      32.133  -8.960 -20.072  0.00  0.00    +0.308 C 
ATOM     13  C   UNL     1      34.654 -11.037 -25.289  0.00  0.00    -0.005 C 
ATOM     14  C   UNL     1      32.229 -13.084 -23.247  0.00  0.00    +0.030 C 
ATOM     15  C   UNL     1      34.137 -13.464 -25.388  0.00  0.00    +0.031 C 
ATOM     16  C   UNL     1      30.518 -10.798 -19.414  0.00  0.00    +0.117 C 
ATOM     17  C   UNL     1      32.224  -9.984 -17.831  0.00  0.00    +0.117 C 
ENDROOT
BRANCH   4  18
ATOM     18  C   UNL     1      33.354  -7.001 -24.184  0.00  0.00    -0.014 C 
ATOM     19  C   UNL     1      32.247  -6.176 -24.345  0.00  0.00    +0.033 C 
ATOM     20  C   UNL     1      34.502  -6.800 -24.943  0.00  0.00    -0.004 C 
ATOM     21  C   UNL     1      32.286  -5.138 -25.275  0.00  0.00    +0.133 C 
ATOM     22  C   UNL     1      34.543  -5.761 -25.874  0.00  0.00    +0.003 C 
ATOM     23  C   UNL     1      33.435  -4.930 -26.040  0.00  0.00    +0.037 C 
BRANCH  21  24
ATOM     24  O   UNL     1      31.205  -4.327 -25.437  0.00  0.00    -0.506 OA
ATOM     25  H   UNL     1      31.313  -3.469 -25.797  0.00  0.00    +0.292 HD
ENDBRANCH  21  24
ENDBRANCH   4  18
TORSDOF 2
ENDMDL
MODEL 6
REMARK VINA RESULT:      -8.2     11.975     15.531
REMARK  Name = 6857690
REMARK  2 active torsions:
REMARK  status: ('A' for Active; 'I' for Inactive)
REMARK    1  A    between atoms: C_4  and  C_18
REMARK    2  A    between atoms: C_21  and  O_24
REMARK                            x       y       z     vdW  Elec       q    Type
REMARK                         _______ _______ _______ _____ _____    ______ ____
ROOT
ATOM      1  O   UNL     1      32.205 -11.951 -19.837  0.00  0.00    -0.252 OA
ATOM      2  N   UNL     1      32.064 -11.691 -22.120  0.00  0.00    -0.259 N 
ATOM      3  N   UNL     1      32.440 -13.842 -21.132  0.00  0.00    -0.261 N 
ATOM      4  C   UNL     1      32.597  -9.288 -22.162  0.00  0.00    +0.064 C 
ATOM      5  C   UNL     1      31.495 -10.352 -22.014  0.00  0.00    +0.104 C 
ATOM      6  C   UNL     1      33.479  -9.566 -23.377  0.00  0.00    -0.019 C 
ATOM      7  C   UNL     1      33.506 -10.852 -23.958  0.00  0.00    -0.010 C 
ATOM      8  C   UNL     1      32.663 -11.990 -23.426  0.00  0.00    +0.121 C 
ATOM      9  C   UNL     1      34.327 -11.094 -25.071  0.00  0.00    -0.028 C 
ATOM     10  C   UNL     1      34.338  -8.576 -23.886  0.00  0.00    -0.005 C 
ATOM     11  C   UNL     1      35.147 -10.090 -25.583  0.00  0.00    -0.026 C 
ATOM     12  C   UNL     1      32.235 -12.464 -20.964  0.00  0.00    +0.308 C 
ATOM     13  C   UNL     1      35.158  -8.834 -24.985  0.00  0.00    -0.005 C 
ATOM     14  C   UNL     1      34.341 -12.443 -25.724  0.00  0.00    +0.030 C 
ATOM     15  C   UNL     1      36.021 -10.332 -26.768  0.00  0.00    +0.031 C 
ATOM     16  C   UNL     1      31.903 -14.627 -22.241  0.00  0.00    +0.117 C 
ATOM     17  C   UNL     1      32.996 -14.615 -20.030  0.00  0.00    +0.117 C 
ENDROOT
BRANCH   4  18
ATOM     18  C   UNL     1      31.964  -7.904 -22.133  0.00  0.00    -0.014 C 
ATOM     19  C   UNL     1      31.466  -7.348 -23.307  0.00  0.00    +0.033 C 
ATOM     20  C   UNL     1      31.888  -7.206 -20.932  0.00  0.00    -0.004 C 
ATOM     21  C   UNL     1      30.886  -6.081 -23.281  0.00  0.00    +0.133 C 
ATOM     22  C   UNL     1      31.307  -5.938 -20.906  0.00  0.00    +0.003 C 
ATOM     23  C   UNL     1      30.806  -5.375 -22.079  0.00  0.00    +0.037 C 
BRANCH  21  24
ATOM     24  O   UNL     1      30.397  -5.532 -24.426  0.00  0.00    -0.506 OA
ATOM     25  H   UNL     1      30.920  -4.930 -24.917  0.00  0.00    +0.292 HD
ENDBRANCH  21  24
ENDBRANCH   4  18
TORSDOF 2
ENDMDL
