MODEL 1
REMARK VINA RESULT:     -10.7      0.000      0.000
REMARK  Name = 24779677
REMARK  3 active torsions:
REMARK  status: ('A' for Active; 'I' for Inactive)
REMARK    1  A    between atoms: N_1  and  C_27
REMARK    2  A    between atoms: N_6  and  C_19
REMARK    3  A    between atoms: C_15  and  C_26
REMARK                            x       y       z     vdW  Elec       q    Type
REMARK                         _______ _______ _______ _____ _____    ______ ____
ROOT
ATOM      1  N   UNL     1      34.267 -20.378 -20.808  0.00  0.00    +0.389 N 
ATOM      2  N   UNL     1      34.276 -22.211 -18.630  0.00  0.00    -0.238 N 
ATOM      3  N   UNL     1      35.483 -23.081 -16.875  0.00  0.00    -0.314 NA
ATOM      4  N   UNL     1      33.096 -23.061 -16.795  0.00  0.00    -0.295 NA
ATOM      5  N   UNL     1      34.282 -23.933 -15.042  0.00  0.00    -0.123 N 
ATOM      6  N   UNL     1      31.923 -23.928 -14.926  0.00  0.00    -0.274 N 
ATOM      7  N   UNL     1      34.403 -24.516 -13.834  0.00  0.00    -0.170 NA
ATOM      8  C   UNL     1      33.110 -20.472 -19.905  0.00  0.00    -0.055 C 
ATOM      9  C   UNL     1      35.510 -20.664 -20.077  0.00  0.00    -0.055 C 
ATOM     10  C   UNL     1      33.016 -21.866 -19.283  0.00  0.00    +0.080 C 
ATOM     11  C   UNL     1      35.469 -22.062 -19.459  0.00  0.00    +0.080 C 
ATOM     12  C   UNL     1      34.317 -22.795 -17.411  0.00  0.00    +0.206 C 
ATOM     13  C   UNL     1      35.470 -23.666 -15.656  0.00  0.00    +0.219 C 
ATOM     14  C   UNL     1      33.062 -23.624 -15.621  0.00  0.00    +0.279 C 
ATOM     15  C   UNL     1      36.441 -24.107 -14.787  0.00  0.00    +0.203 C 
ATOM     16  C   UNL     1      35.727 -24.620 -13.685  0.00  0.00    +0.116 C 
ATOM     17  H   UNL     1      34.158 -21.071 -21.547  0.00  0.00    -0.080 HD
ATOM     18  H   UNL     1      32.045 -24.354 -14.047  0.00  0.00    +0.156 HD
ENDROOT
BRANCH   6  19
ATOM     19  C   UNL     1      30.607 -23.699 -15.331  0.00  0.00    +0.051 C 
ATOM     20  C   UNL     1      29.916 -24.679 -16.043  0.00  0.00    +0.015 C 
ATOM     21  C   UNL     1      29.982 -22.491 -15.021  0.00  0.00    +0.015 C 
ATOM     22  C   UNL     1      28.601 -24.451 -16.446  0.00  0.00    +0.001 C 
ATOM     23  C   UNL     1      28.666 -22.263 -15.424  0.00  0.00    +0.001 C 
ATOM     24  C   UNL     1      27.976 -23.243 -16.137  0.00  0.00    +0.000 C 
ENDBRANCH   6  19
BRANCH  15  26
ATOM     25  N   UNL     1      38.996 -23.999 -15.139  0.00  0.00    -0.195 NA
ATOM     26  C   UNL     1      37.848 -24.048 -14.981  0.00  0.00    +0.087 C 
ENDBRANCH  15  26
BRANCH   1  27
ATOM     27  C   UNL     1      34.329 -19.054 -21.427  0.00  0.00    -0.077 C 
ATOM     28  C   UNL     1      34.865 -19.137 -22.846  0.00  0.00    -0.025 C 
ENDBRANCH   1  27
TORSDOF 3
ENDMDL
MODEL 2
REMARK VINA RESULT:      -9.9      1.617      6.020
REMARK  Name = 24779677
REMARK  3 active torsions:
REMARK  status: ('A' for Active; 'I' for Inactive)
REMARK    1  A    between atoms: N_1  and  C_27
REMARK    2  A    between atoms: N_6  and  C_19
REMARK    3  A    between atoms: C_15  and  C_26
REMARK                            x       y       z     vdW  Elec       q    Type
REMARK                         _______ _______ _______ _____ _____    ______ ____
ROOT
ATOM      1  N   UNL     1      30.048 -23.972 -15.020  0.00  0.00    +0.389 N 
ATOM      2  N   UNL     1      32.845 -23.440 -15.037  0.00  0.00    -0.238 N 
ATOM      3  N   UNL     1      34.921 -24.125 -14.318  0.00  0.00    -0.314 NA
ATOM      4  N   UNL     1      34.707 -22.849 -16.327  0.00  0.00    -0.295 NA
ATOM      5  N   UNL     1      36.780 -23.520 -15.625  0.00  0.00    -0.123 N 
ATOM      6  N   UNL     1      36.608 -22.262 -17.616  0.00  0.00    -0.274 N 
ATOM      7  N   UNL     1      38.120 -23.612 -15.723  0.00  0.00    -0.170 NA
ATOM      8  C   UNL     1      30.732 -23.603 -16.268  0.00  0.00    -0.055 C 
ATOM      9  C   UNL     1      30.958 -24.724 -14.142  0.00  0.00    -0.055 C 
ATOM     10  C   UNL     1      31.969 -22.751 -15.981  0.00  0.00    +0.080 C 
ATOM     11  C   UNL     1      32.199 -23.897 -13.808  0.00  0.00    +0.080 C 
ATOM     12  C   UNL     1      34.185 -23.489 -15.204  0.00  0.00    +0.206 C 
ATOM     13  C   UNL     1      36.256 -24.144 -14.531  0.00  0.00    +0.219 C 
ATOM     14  C   UNL     1      35.990 -22.856 -16.549  0.00  0.00    +0.279 C 
ATOM     15  C   UNL     1      37.332 -24.683 -13.863  0.00  0.00    +0.203 C 
ATOM     16  C   UNL     1      38.450 -24.323 -14.642  0.00  0.00    +0.116 C 
ATOM     17  H   UNL     1      29.767 -23.118 -14.540  0.00  0.00    -0.080 HD
ATOM     18  H   UNL     1      37.588 -22.346 -17.659  0.00  0.00    +0.156 HD
ENDROOT
BRANCH   6  19
ATOM     19  C   UNL     1      35.997 -21.551 -18.650  0.00  0.00    +0.051 C 
ATOM     20  C   UNL     1      34.639 -21.729 -18.912  0.00  0.00    +0.015 C 
ATOM     21  C   UNL     1      36.745 -20.661 -19.421  0.00  0.00    +0.015 C 
ATOM     22  C   UNL     1      34.028 -21.018 -19.944  0.00  0.00    +0.001 C 
ATOM     23  C   UNL     1      36.135 -19.948 -20.453  0.00  0.00    +0.001 C 
ATOM     24  C   UNL     1      34.776 -20.127 -20.715  0.00  0.00    +0.000 C 
ENDBRANCH   6  19
BRANCH  15  26
ATOM     25  N   UNL     1      37.266 -26.044 -11.671  0.00  0.00    -0.195 NA
ATOM     26  C   UNL     1      37.296 -25.432 -12.656  0.00  0.00    +0.087 C 
ENDBRANCH  15  26
BRANCH   1  27
ATOM     27  C   UNL     1      28.846 -24.755 -15.305  0.00  0.00    -0.077 C 
ATOM     28  C   UNL     1      28.225 -24.343 -16.628  0.00  0.00    -0.025 C 
ENDBRANCH   1  27
TORSDOF 3
ENDMDL
