MODEL 1
REMARK VINA RESULT:     -10.9      0.000      0.000
REMARK  Name = 2740174
REMARK  4 active torsions:
REMARK  status: ('A' for Active; 'I' for Inactive)
REMARK    1  A    between atoms: N_2  and  C_17
REMARK    2  A    between atoms: C_8  and  C_12
REMARK    3  A    between atoms: C_17  and  C_18
REMARK    4  A    between atoms: C_18  and  C_19
REMARK                            x       y       z     vdW  Elec       q    Type
REMARK                         _______ _______ _______ _____ _____    ______ ____
ROOT
ATOM      1 CL   UNL     1      34.658 -17.079 -25.733  0.00  0.00    -0.099 Cl
ATOM      2  N   UNL     1      34.858 -17.129 -22.738  0.00  0.00    -0.309 N 
ATOM      3  N   UNL     1      33.650 -15.129 -22.394  0.00  0.00    -0.326 NA
ATOM      4  N   UNL     1      32.779 -13.883 -24.265  0.00  0.00    -0.346 NA
ATOM      5  C   UNL     1      34.175 -16.065 -23.251  0.00  0.00    +0.191 C 
ATOM      6  C   UNL     1      34.008 -15.919 -24.640  0.00  0.00    +0.195 C 
ATOM      7  C   UNL     1      33.307 -14.817 -25.084  0.00  0.00    +0.122 C 
ATOM      8  C   UNL     1      32.985 -14.098 -22.951  0.00  0.00    +0.157 C 
ATOM      9  C   UNL     1      33.079 -14.580 -26.542  0.00  0.00    +0.064 C 
ATOM     10  H   UNL     1      35.225 -17.787 -23.371  0.00  0.00    +0.149 HD
ENDROOT
BRANCH   8  12
ATOM     11  N   UNL     1      31.948 -12.004 -22.633  0.00  0.00    -0.232 NA
ATOM     12  C   UNL     1      32.436 -13.122 -22.046  0.00  0.00    +0.166 C 
ATOM     13  C   UNL     1      32.424 -13.343 -20.676  0.00  0.00    +0.031 C 
ATOM     14  C   UNL     1      31.879 -12.358 -19.860  0.00  0.00    +0.004 C 
ATOM     15  C   UNL     1      31.427 -11.069 -21.808  0.00  0.00    +0.100 C 
ATOM     16  C   UNL     1      31.369 -11.196 -20.430  0.00  0.00    +0.021 C 
ENDBRANCH   8  12
BRANCH   2  17
ATOM     17  C   UNL     1      35.078 -17.359 -21.329  0.00  0.00    +0.094 C 
BRANCH  17  18
ATOM     18  C   UNL     1      35.941 -18.608 -21.109  0.00  0.00    +0.048 C 
BRANCH  18  19
ATOM     19  C   UNL     1      35.191 -19.765 -20.540  0.00  0.00    -0.020 C 
ATOM     20  C   UNL     1      33.800 -19.807 -20.631  0.00  0.00    -0.004 C 
ATOM     21  C   UNL     1      35.881 -20.805 -19.917  0.00  0.00    -0.004 C 
ATOM     22  C   UNL     1      33.098 -20.890 -20.100  0.00  0.00    -0.000 C 
ATOM     23  C   UNL     1      35.180 -21.887 -19.385  0.00  0.00    -0.000 C 
ATOM     24  C   UNL     1      33.789 -21.929 -19.477  0.00  0.00    -0.000 C 
ENDBRANCH  18  19
ENDBRANCH  17  18
ENDBRANCH   2  17
TORSDOF 4
ENDMDL
MODEL 2
REMARK VINA RESULT:     -10.7      7.270     10.851
REMARK  Name = 2740174
REMARK  4 active torsions:
REMARK  status: ('A' for Active; 'I' for Inactive)
REMARK    1  A    between atoms: N_2  and  C_17
REMARK    2  A    between atoms: C_8  and  C_12
REMARK    3  A    between atoms: C_17  and  C_18
REMARK    4  A    between atoms: C_18  and  C_19
REMARK                            x       y       z     vdW  Elec       q    Type
REMARK                         _______ _______ _______ _____ _____    ______ ____
ROOT
ATOM      1 CL   UNL     1      38.992 -24.455 -15.049  0.00  0.00    -0.099 Cl
ATOM      2  N   UNL     1      37.446 -22.367 -16.554  0.00  0.00    -0.309 N 
ATOM      3  N   UNL     1      35.336 -22.973 -15.683  0.00  0.00    -0.326 NA
ATOM      4  N   UNL     1      35.131 -24.789 -14.111  0.00  0.00    -0.346 NA
ATOM      5  C   UNL     1      36.693 -23.170 -15.746  0.00  0.00    +0.191 C 
ATOM      6  C   UNL     1      37.292 -24.190 -14.985  0.00  0.00    +0.195 C 
ATOM      7  C   UNL     1      36.467 -24.961 -14.193  0.00  0.00    +0.122 C 
ATOM      8  C   UNL     1      34.639 -23.791 -14.871  0.00  0.00    +0.157 C 
ATOM      9  C   UNL     1      37.015 -26.067 -13.350  0.00  0.00    +0.064 C 
ATOM     10  H   UNL     1      38.416 -22.527 -16.583  0.00  0.00    +0.149 HD
ENDROOT
BRANCH   8  12
ATOM     11  N   UNL     1      32.668 -23.710 -13.579  0.00  0.00    -0.232 NA
ATOM     12  C   UNL     1      33.216 -23.578 -14.809  0.00  0.00    +0.166 C 
ATOM     13  C   UNL     1      32.490 -23.261 -15.948  0.00  0.00    +0.031 C 
ATOM     14  C   UNL     1      31.119 -23.068 -15.816  0.00  0.00    +0.004 C 
ATOM     15  C   UNL     1      31.333 -23.516 -13.489  0.00  0.00    +0.100 C 
ATOM     16  C   UNL     1      30.522 -23.197 -14.566  0.00  0.00    +0.021 C 
ENDBRANCH   8  12
BRANCH   2  17
ATOM     17  C   UNL     1      36.916 -21.298 -17.368  0.00  0.00    +0.094 C 
BRANCH  17  18
ATOM     18  C   UNL     1      36.696 -21.772 -18.811  0.00  0.00    +0.048 C 
BRANCH  18  19
ATOM     19  C   UNL     1      35.433 -21.267 -19.423  0.00  0.00    -0.020 C 
ATOM     20  C   UNL     1      34.204 -21.781 -19.010  0.00  0.00    -0.004 C 
ATOM     21  C   UNL     1      35.481 -20.281 -20.409  0.00  0.00    -0.004 C 
ATOM     22  C   UNL     1      33.022 -21.308 -19.582  0.00  0.00    -0.000 C 
ATOM     23  C   UNL     1      34.300 -19.809 -20.982  0.00  0.00    -0.000 C 
ATOM     24  C   UNL     1      33.071 -20.323 -20.568  0.00  0.00    -0.000 C 
ENDBRANCH  18  19
ENDBRANCH  17  18
ENDBRANCH   2  17
TORSDOF 4
ENDMDL
MODEL 3
REMARK VINA RESULT:     -10.7      6.380     11.134
REMARK  Name = 2740174
REMARK  4 active torsions:
REMARK  status: ('A' for Active; 'I' for Inactive)
REMARK    1  A    between atoms: N_2  and  C_17
REMARK    2  A    between atoms: C_8  and  C_12
REMARK    3  A    between atoms: C_17  and  C_18
REMARK    4  A    between atoms: C_18  and  C_19
REMARK                            x       y       z     vdW  Elec       q    Type
REMARK                         _______ _______ _______ _____ _____    ______ ____
ROOT
ATOM      1 CL   UNL     1      30.014 -22.975 -16.308  0.00  0.00    -0.099 Cl
ATOM      2  N   UNL     1      32.494 -22.642 -17.967  0.00  0.00    -0.309 N 
ATOM      3  N   UNL     1      33.984 -23.434 -16.314  0.00  0.00    -0.326 NA
ATOM      4  N   UNL     1      33.164 -24.145 -14.162  0.00  0.00    -0.346 NA
ATOM      5  C   UNL     1      32.703 -23.136 -16.712  0.00  0.00    +0.191 C 
ATOM      6  C   UNL     1      31.627 -23.341 -15.831  0.00  0.00    +0.195 C 
ATOM      7  C   UNL     1      31.917 -23.844 -14.579  0.00  0.00    +0.122 C 
ATOM      8  C   UNL     1      34.136 -23.920 -15.067  0.00  0.00    +0.157 C 
ATOM      9  C   UNL     1      30.836 -24.094 -13.576  0.00  0.00    +0.064 C 
ATOM     10  H   UNL     1      31.569 -22.436 -18.230  0.00  0.00    +0.149 HD
ENDROOT
BRANCH   8  12
ATOM     11  N   UNL     1      36.067 -25.248 -15.331  0.00  0.00    -0.232 NA
ATOM     12  C   UNL     1      35.480 -24.230 -14.657  0.00  0.00    +0.166 C 
ATOM     13  C   UNL     1      36.102 -23.519 -13.641  0.00  0.00    +0.031 C 
ATOM     14  C   UNL     1      37.402 -23.872 -13.296  0.00  0.00    +0.004 C 
ATOM     15  C   UNL     1      37.330 -25.563 -14.968  0.00  0.00    +0.100 C 
ATOM     16  C   UNL     1      38.034 -24.913 -13.967  0.00  0.00    +0.021 C 
ENDBRANCH   8  12
BRANCH   2  17
ATOM     17  C   UNL     1      33.538 -22.400 -18.936  0.00  0.00    +0.094 C 
BRANCH  17  18
ATOM     18  C   UNL     1      33.170 -21.222 -19.849  0.00  0.00    +0.048 C 
BRANCH  18  19
ATOM     19  C   UNL     1      34.345 -20.418 -20.295  0.00  0.00    -0.020 C 
ATOM     20  C   UNL     1      35.634 -20.802 -19.926  0.00  0.00    -0.004 C 
ATOM     21  C   UNL     1      34.153 -19.281 -21.080  0.00  0.00    -0.004 C 
ATOM     22  C   UNL     1      36.732 -20.050 -20.344  0.00  0.00    -0.000 C 
ATOM     23  C   UNL     1      35.251 -18.528 -21.497  0.00  0.00    -0.000 C 
ATOM     24  C   UNL     1      36.540 -18.913 -21.129  0.00  0.00    -0.000 C 
ENDBRANCH  18  19
ENDBRANCH  17  18
ENDBRANCH   2  17
TORSDOF 4
ENDMDL
MODEL 4
REMARK VINA RESULT:     -10.3      6.603     10.728
REMARK  Name = 2740174
REMARK  4 active torsions:
REMARK  status: ('A' for Active; 'I' for Inactive)
REMARK    1  A    between atoms: N_2  and  C_17
REMARK    2  A    between atoms: C_8  and  C_12
REMARK    3  A    between atoms: C_17  and  C_18
REMARK    4  A    between atoms: C_18  and  C_19
REMARK                            x       y       z     vdW  Elec       q    Type
REMARK                         _______ _______ _______ _____ _____    ______ ____
ROOT
ATOM      1 CL   UNL     1      37.141 -23.276 -14.456  0.00  0.00    -0.099 Cl
ATOM      2  N   UNL     1      35.627 -22.636 -16.968  0.00  0.00    -0.309 N 
ATOM      3  N   UNL     1      33.510 -23.258 -16.125  0.00  0.00    -0.326 NA
ATOM      4  N   UNL     1      33.279 -24.078 -13.870  0.00  0.00    -0.346 NA
ATOM      5  C   UNL     1      34.863 -23.111 -15.942  0.00  0.00    +0.191 C 
ATOM      6  C   UNL     1      35.446 -23.450 -14.708  0.00  0.00    +0.195 C 
ATOM      7  C   UNL     1      34.611 -23.925 -13.718  0.00  0.00    +0.122 C 
ATOM      8  C   UNL     1      32.802 -23.730 -15.081  0.00  0.00    +0.157 C 
ATOM      9  C   UNL     1      35.142 -24.310 -12.375  0.00  0.00    +0.064 C 
ATOM     10  H   UNL     1      36.594 -22.540 -16.814  0.00  0.00    +0.149 HD
ENDROOT
BRANCH   8  12
ATOM     11  N   UNL     1      30.828 -22.996 -16.142  0.00  0.00    -0.232 NA
ATOM     12  C   UNL     1      31.384 -23.880 -15.281  0.00  0.00    +0.166 C 
ATOM     13  C   UNL     1      30.669 -24.869 -14.622  0.00  0.00    +0.031 C 
ATOM     14  C   UNL     1      29.301 -24.957 -14.862  0.00  0.00    +0.004 C 
ATOM     15  C   UNL     1      29.497 -23.111 -16.350  0.00  0.00    +0.100 C 
ATOM     16  C   UNL     1      28.697 -24.064 -15.740  0.00  0.00    +0.021 C 
ENDBRANCH   8  12
BRANCH   2  17
ATOM     17  C   UNL     1      35.114 -22.264 -18.266  0.00  0.00    +0.094 C 
BRANCH  17  18
ATOM     18  C   UNL     1      36.197 -21.566 -19.100  0.00  0.00    +0.048 C 
BRANCH  18  19
ATOM     19  C   UNL     1      35.664 -20.529 -20.031  0.00  0.00    -0.020 C 
ATOM     20  C   UNL     1      36.531 -19.609 -20.618  0.00  0.00    -0.004 C 
ATOM     21  C   UNL     1      34.299 -20.480 -20.313  0.00  0.00    -0.004 C 
ATOM     22  C   UNL     1      36.033 -18.638 -21.489  0.00  0.00    -0.000 C 
ATOM     23  C   UNL     1      33.800 -19.510 -21.182  0.00  0.00    -0.000 C 
ATOM     24  C   UNL     1      34.668 -18.590 -21.770  0.00  0.00    -0.000 C 
ENDBRANCH  18  19
ENDBRANCH  17  18
ENDBRANCH   2  17
TORSDOF 4
ENDMDL
MODEL 5
REMARK VINA RESULT:     -10.3      2.438      3.487
REMARK  Name = 2740174
REMARK  4 active torsions:
REMARK  status: ('A' for Active; 'I' for Inactive)
REMARK    1  A    between atoms: N_2  and  C_17
REMARK    2  A    between atoms: C_8  and  C_12
REMARK    3  A    between atoms: C_17  and  C_18
REMARK    4  A    between atoms: C_18  and  C_19
REMARK                            x       y       z     vdW  Elec       q    Type
REMARK                         _______ _______ _______ _____ _____    ______ ____
ROOT
ATOM      1 CL   UNL     1      33.376 -15.811 -25.670  0.00  0.00    -0.099 Cl
ATOM      2  N   UNL     1      33.557 -14.895 -22.817  0.00  0.00    -0.309 N 
ATOM      3  N   UNL     1      33.660 -12.590 -23.322  0.00  0.00    -0.326 NA
ATOM      4  N   UNL     1      33.596 -11.830 -25.609  0.00  0.00    -0.346 NA
ATOM      5  C   UNL     1      33.569 -13.894 -23.744  0.00  0.00    +0.191 C 
ATOM      6  C   UNL     1      33.490 -14.184 -25.118  0.00  0.00    +0.195 C 
ATOM      7  C   UNL     1      33.508 -13.120 -25.995  0.00  0.00    +0.122 C 
ATOM      8  C   UNL     1      33.667 -11.640 -24.277  0.00  0.00    +0.157 C 
ATOM      9  C   UNL     1      33.429 -13.334 -27.473  0.00  0.00    +0.064 C 
ATOM     10  H   UNL     1      33.491 -15.821 -23.143  0.00  0.00    +0.149 HD
ENDROOT
BRANCH   8  12
ATOM     11  N   UNL     1      32.785  -9.882 -22.976  0.00  0.00    -0.232 NA
ATOM     12  C   UNL     1      33.761 -10.276 -23.827  0.00  0.00    +0.166 C 
ATOM     13  C   UNL     1      34.792  -9.451 -24.253  0.00  0.00    +0.031 C 
ATOM     14  C   UNL     1      34.822  -8.144 -23.778  0.00  0.00    +0.004 C 
ATOM     15  C   UNL     1      32.846  -8.605 -22.536  0.00  0.00    +0.100 C 
ATOM     16  C   UNL     1      33.834  -7.705 -22.903  0.00  0.00    +0.021 C 
ENDBRANCH   8  12
BRANCH   2  17
ATOM     17  C   UNL     1      33.634 -14.689 -21.389  0.00  0.00    +0.094 C 
BRANCH  17  18
ATOM     18  C   UNL     1      34.593 -15.698 -20.744  0.00  0.00    +0.048 C 
BRANCH  18  19
ATOM     19  C   UNL     1      34.681 -16.996 -21.475  0.00  0.00    -0.020 C 
ATOM     20  C   UNL     1      33.976 -18.106 -21.013  0.00  0.00    -0.004 C 
ATOM     21  C   UNL     1      35.469 -17.097 -22.622  0.00  0.00    -0.004 C 
ATOM     22  C   UNL     1      34.058 -19.320 -21.697  0.00  0.00    -0.000 C 
ATOM     23  C   UNL     1      35.552 -18.310 -23.307  0.00  0.00    -0.000 C 
ATOM     24  C   UNL     1      34.846 -19.421 -22.843  0.00  0.00    -0.000 C 
ENDBRANCH  18  19
ENDBRANCH  17  18
ENDBRANCH   2  17
TORSDOF 4
ENDMDL
MODEL 6
REMARK VINA RESULT:     -10.1      6.131     10.083
REMARK  Name = 2740174
REMARK  4 active torsions:
REMARK  status: ('A' for Active; 'I' for Inactive)
REMARK    1  A    between atoms: N_2  and  C_17
REMARK    2  A    between atoms: C_8  and  C_12
REMARK    3  A    between atoms: C_17  and  C_18
REMARK    4  A    between atoms: C_18  and  C_19
REMARK                            x       y       z     vdW  Elec       q    Type
REMARK                         _______ _______ _______ _____ _____    ______ ____
ROOT
ATOM      1 CL   UNL     1      36.782 -22.790 -16.258  0.00  0.00    -0.099 Cl
ATOM      2  N   UNL     1      34.798 -22.490 -18.492  0.00  0.00    -0.309 N 
ATOM      3  N   UNL     1      32.909 -23.071 -17.200  0.00  0.00    -0.326 NA
ATOM      4  N   UNL     1      33.141 -23.632 -14.867  0.00  0.00    -0.346 NA
ATOM      5  C   UNL     1      34.263 -22.865 -17.294  0.00  0.00    +0.191 C 
ATOM      6  C   UNL     1      35.081 -23.042 -16.164  0.00  0.00    +0.195 C 
ATOM      7  C   UNL     1      34.468 -23.423 -14.988  0.00  0.00    +0.122 C 
ATOM      8  C   UNL     1      32.431 -23.440 -15.996  0.00  0.00    +0.157 C 
ATOM      9  C   UNL     1      35.258 -23.635 -13.737  0.00  0.00    +0.064 C 
ATOM     10  H   UNL     1      35.771 -22.348 -18.535  0.00  0.00    +0.149 HD
ENDROOT
BRANCH   8  12
ATOM     11  N   UNL     1      30.255 -22.832 -16.672  0.00  0.00    -0.232 NA
ATOM     12  C   UNL     1      31.010 -23.653 -15.905  0.00  0.00    +0.166 C 
ATOM     13  C   UNL     1      30.485 -24.638 -15.081  0.00  0.00    +0.031 C 
ATOM     14  C   UNL     1      29.103 -24.790 -15.043  0.00  0.00    +0.004 C 
ATOM     15  C   UNL     1      28.916 -23.008 -16.608  0.00  0.00    +0.100 C 
ATOM     16  C   UNL     1      28.297 -23.962 -15.817  0.00  0.00    +0.021 C 
ENDBRANCH   8  12
BRANCH   2  17
ATOM     17  C   UNL     1      34.035 -22.285 -19.701  0.00  0.00    +0.094 C 
BRANCH  17  18
ATOM     18  C   UNL     1      33.593 -20.821 -19.825  0.00  0.00    +0.048 C 
BRANCH  18  19
ATOM     19  C   UNL     1      34.479 -19.997 -20.698  0.00  0.00    -0.020 C 
ATOM     20  C   UNL     1      33.951 -19.352 -21.816  0.00  0.00    -0.004 C 
ATOM     21  C   UNL     1      35.835 -19.870 -20.394  0.00  0.00    -0.004 C 
ATOM     22  C   UNL     1      34.780 -18.581 -22.632  0.00  0.00    -0.000 C 
ATOM     23  C   UNL     1      36.663 -19.100 -21.210  0.00  0.00    -0.000 C 
ATOM     24  C   UNL     1      36.135 -18.456 -22.329  0.00  0.00    -0.000 C 
ENDBRANCH  18  19
ENDBRANCH  17  18
ENDBRANCH   2  17
TORSDOF 4
ENDMDL
MODEL 7
REMARK VINA RESULT:     -10.0      1.792      7.358
REMARK  Name = 2740174
REMARK  4 active torsions:
REMARK  status: ('A' for Active; 'I' for Inactive)
REMARK    1  A    between atoms: N_2  and  C_17
REMARK    2  A    between atoms: C_8  and  C_12
REMARK    3  A    between atoms: C_17  and  C_18
REMARK    4  A    between atoms: C_18  and  C_19
REMARK                            x       y       z     vdW  Elec       q    Type
REMARK                         _______ _______ _______ _____ _____    ______ ____
ROOT
ATOM      1 CL   UNL     1      34.429 -16.039 -24.925  0.00  0.00    -0.099 Cl
ATOM      2  N   UNL     1      34.326 -15.511 -21.971  0.00  0.00    -0.309 N 
ATOM      3  N   UNL     1      34.509 -17.776 -21.327  0.00  0.00    -0.326 NA
ATOM      4  N   UNL     1      34.691 -19.514 -22.986  0.00  0.00    -0.346 NA
ATOM      5  C   UNL     1      34.446 -16.825 -22.317  0.00  0.00    +0.191 C 
ATOM      6  C   UNL     1      34.506 -17.213 -23.667  0.00  0.00    +0.195 C 
ATOM      7  C   UNL     1      34.627 -18.560 -23.938  0.00  0.00    +0.122 C 
ATOM      8  C   UNL     1      34.627 -19.058 -21.720  0.00  0.00    +0.157 C 
ATOM      9  C   UNL     1      34.697 -19.063 -25.344  0.00  0.00    +0.064 C 
ATOM     10  H   UNL     1      34.284 -14.848 -22.697  0.00  0.00    +0.149 HD
ENDROOT
BRANCH   8  12
ATOM     11  N   UNL     1      35.936 -20.309 -20.209  0.00  0.00    -0.232 NA
ATOM     12  C   UNL     1      34.693 -20.048 -20.677  0.00  0.00    +0.166 C 
ATOM     13  C   UNL     1      33.545 -20.671 -20.207  0.00  0.00    +0.031 C 
ATOM     14  C   UNL     1      33.682 -21.617 -19.198  0.00  0.00    +0.004 C 
ATOM     15  C   UNL     1      36.029 -21.235 -19.228  0.00  0.00    +0.100 C 
ATOM     16  C   UNL     1      34.944 -21.911 -18.694  0.00  0.00    +0.021 C 
ENDBRANCH   8  12
BRANCH   2  17
ATOM     17  C   UNL     1      34.258 -15.024 -20.613  0.00  0.00    +0.094 C 
BRANCH  17  18
ATOM     18  C   UNL     1      32.809 -14.708 -20.220  0.00  0.00    +0.048 C 
BRANCH  18  19
ATOM     19  C   UNL     1      32.330 -13.380 -20.704  0.00  0.00    -0.020 C 
ATOM     20  C   UNL     1      31.965 -12.395 -19.788  0.00  0.00    -0.004 C 
ATOM     21  C   UNL     1      32.249 -13.125 -22.073  0.00  0.00    -0.004 C 
ATOM     22  C   UNL     1      31.518 -11.153 -20.241  0.00  0.00    -0.000 C 
ATOM     23  C   UNL     1      31.801 -11.884 -22.527  0.00  0.00    -0.000 C 
ATOM     24  C   UNL     1      31.436 -10.898 -21.610  0.00  0.00    -0.000 C 
ENDBRANCH  18  19
ENDBRANCH  17  18
ENDBRANCH   2  17
TORSDOF 4
ENDMDL
MODEL 8
REMARK VINA RESULT:      -9.9      8.078     11.275
REMARK  Name = 2740174
REMARK  4 active torsions:
REMARK  status: ('A' for Active; 'I' for Inactive)
REMARK    1  A    between atoms: N_2  and  C_17
REMARK    2  A    between atoms: C_8  and  C_12
REMARK    3  A    between atoms: C_17  and  C_18
REMARK    4  A    between atoms: C_18  and  C_19
REMARK                            x       y       z     vdW  Elec       q    Type
REMARK                         _______ _______ _______ _____ _____    ______ ____
ROOT
ATOM      1 CL   UNL     1      36.106 -25.047 -12.151  0.00  0.00    -0.099 Cl
ATOM      2  N   UNL     1      33.618 -23.833 -13.313  0.00  0.00    -0.309 N 
ATOM      3  N   UNL     1      34.619 -23.158 -15.343  0.00  0.00    -0.326 NA
ATOM      4  N   UNL     1      36.952 -23.592 -15.766  0.00  0.00    -0.346 NA
ATOM      5  C   UNL     1      34.722 -23.759 -14.112  0.00  0.00    +0.191 C 
ATOM      6  C   UNL     1      35.954 -24.289 -13.689  0.00  0.00    +0.195 C 
ATOM      7  C   UNL     1      37.024 -24.177 -14.552  0.00  0.00    +0.122 C 
ATOM      8  C   UNL     1      35.737 -23.111 -16.093  0.00  0.00    +0.157 C 
ATOM      9  C   UNL     1      38.372 -24.711 -14.187  0.00  0.00    +0.064 C 
ATOM     10  H   UNL     1      33.716 -24.269 -12.436  0.00  0.00    +0.149 HD
ENDROOT
BRANCH   8  12
ATOM     11  N   UNL     1      34.446 -22.688 -18.020  0.00  0.00    -0.232 NA
ATOM     12  C   UNL     1      35.621 -22.480 -17.381  0.00  0.00    +0.166 C 
ATOM     13  C   UNL     1      36.658 -21.719 -17.902  0.00  0.00    +0.031 C 
ATOM     14  C   UNL     1      36.478 -21.138 -19.153  0.00  0.00    +0.004 C 
ATOM     15  C   UNL     1      34.307 -22.108 -19.233  0.00  0.00    +0.100 C 
ATOM     16  C   UNL     1      35.283 -21.332 -19.838  0.00  0.00    +0.021 C 
ENDBRANCH   8  12
BRANCH   2  17
ATOM     17  C   UNL     1      32.316 -23.317 -13.665  0.00  0.00    +0.094 C 
BRANCH  17  18
ATOM     18  C   UNL     1      31.368 -24.456 -14.063  0.00  0.00    +0.048 C 
BRANCH  18  19
ATOM     19  C   UNL     1      30.226 -24.018 -14.916  0.00  0.00    -0.020 C 
ATOM     20  C   UNL     1      29.623 -24.920 -15.792  0.00  0.00    -0.004 C 
ATOM     21  C   UNL     1      29.760 -22.705 -14.837  0.00  0.00    -0.004 C 
ATOM     22  C   UNL     1      28.554 -24.510 -16.590  0.00  0.00    -0.000 C 
ATOM     23  C   UNL     1      28.692 -22.295 -15.635  0.00  0.00    -0.000 C 
ATOM     24  C   UNL     1      28.090 -23.198 -16.511  0.00  0.00    -0.000 C 
ENDBRANCH  18  19
ENDBRANCH  17  18
ENDBRANCH   2  17
TORSDOF 4
ENDMDL
MODEL 9
REMARK VINA RESULT:      -9.5      1.947      3.755
REMARK  Name = 2740174
REMARK  4 active torsions:
REMARK  status: ('A' for Active; 'I' for Inactive)
REMARK    1  A    between atoms: N_2  and  C_17
REMARK    2  A    between atoms: C_8  and  C_12
REMARK    3  A    between atoms: C_17  and  C_18
REMARK    4  A    between atoms: C_18  and  C_19
REMARK                            x       y       z     vdW  Elec       q    Type
REMARK                         _______ _______ _______ _____ _____    ______ ____
ROOT
ATOM      1 CL   UNL     1      32.531 -15.206 -19.408  0.00  0.00    -0.099 Cl
ATOM      2  N   UNL     1      33.943 -16.709 -21.590  0.00  0.00    -0.309 N 
ATOM      3  N   UNL     1      33.698 -15.023 -23.226  0.00  0.00    -0.326 NA
ATOM      4  N   UNL     1      32.569 -12.958 -22.701  0.00  0.00    -0.346 NA
ATOM      5  C   UNL     1      33.487 -15.473 -21.945  0.00  0.00    +0.191 C 
ATOM      6  C   UNL     1      32.807 -14.663 -21.018  0.00  0.00    +0.195 C 
ATOM      7  C   UNL     1      32.376 -13.426 -21.450  0.00  0.00    +0.122 C 
ATOM      8  C   UNL     1      33.228 -13.796 -23.525  0.00  0.00    +0.157 C 
ATOM      9  C   UNL     1      31.645 -12.498 -20.534  0.00  0.00    +0.064 C 
ATOM     10  H   UNL     1      33.781 -17.010 -20.668  0.00  0.00    +0.149 HD
ENDROOT
BRANCH   8  12
ATOM     11  N   UNL     1      33.991 -12.093 -24.966  0.00  0.00    -0.232 NA
ATOM     12  C   UNL     1      33.454 -13.331 -24.869  0.00  0.00    +0.166 C 
ATOM     13  C   UNL     1      33.132 -14.121 -25.963  0.00  0.00    +0.031 C 
ATOM     14  C   UNL     1      33.377 -13.609 -27.233  0.00  0.00    +0.004 C 
ATOM     15  C   UNL     1      34.215 -11.629 -26.216  0.00  0.00    +0.100 C 
ATOM     16  C   UNL     1      33.928 -12.340 -27.370  0.00  0.00    +0.021 C 
ENDBRANCH   8  12
BRANCH   2  17
ATOM     17  C   UNL     1      34.649 -17.607 -22.475  0.00  0.00    +0.094 C 
BRANCH  17  18
ATOM     18  C   UNL     1      35.685 -18.432 -21.700  0.00  0.00    +0.048 C 
BRANCH  18  19
ATOM     19  C   UNL     1      35.095 -19.562 -20.924  0.00  0.00    -0.020 C 
ATOM     20  C   UNL     1      33.710 -19.716 -20.861  0.00  0.00    -0.004 C 
ATOM     21  C   UNL     1      35.928 -20.463 -20.262  0.00  0.00    -0.004 C 
ATOM     22  C   UNL     1      33.158 -20.772 -20.135  0.00  0.00    -0.000 C 
ATOM     23  C   UNL     1      35.377 -21.519 -19.536  0.00  0.00    -0.000 C 
ATOM     24  C   UNL     1      33.992 -21.673 -19.473  0.00  0.00    -0.000 C 
ENDBRANCH  18  19
ENDBRANCH  17  18
ENDBRANCH   2  17
TORSDOF 4
ENDMDL
