MODEL 1
REMARK VINA RESULT:      -8.8      0.000      0.000
REMARK  Name = 20824
REMARK  7 active torsions:
REMARK  status: ('A' for Active; 'I' for Inactive)
REMARK    1  A    between atoms: N_2  and  CA_11
REMARK    2  A    between atoms: C_3  and  C_19
REMARK    3  A    between atoms: CA_10  and  C_16
REMARK    4  A    between atoms: C_16  and  O_17
REMARK    5  A    between atoms: C_19  and  C_20
REMARK    6  A    between atoms: C_19  and  C_27
REMARK    7  A    between atoms: C_27  and  O_28
REMARK                            x       y       z     vdW  Elec       q    Type
REMARK                         _______ _______ _______ _____ _____    ______ ____
ROOT
ATOM      1  O   UNL     1      32.432 -22.916 -16.287  0.00  0.00    -0.274 OA
ATOM      2  N   UNL     1      33.610 -23.071 -14.295  0.00  0.00    -0.296 N 
ATOM      3  C   UNL     1      32.455 -23.118 -15.074  0.00  0.00    +0.237 C 
ATOM      4  H   UNL     1      33.534 -23.247 -13.329  0.00  0.00    +0.150 HD
ENDROOT
BRANCH   2  11
ATOM      5  S   UNL     1      35.852 -23.677 -12.286  0.00  0.00    -0.118 S 
ATOM      6  O   UNL     1      35.247 -24.663 -16.537  0.00  0.00    -0.273 OA
ATOM      7  N   UNL     1      36.622 -23.983 -14.744  0.00  0.00    -0.260 N 
ATOM      8  C   UNL     1      36.143 -22.879 -13.907  0.00  0.00    +0.151 C 
ATOM      9  C   UNL     1      37.232 -24.890 -12.592  0.00  0.00    +0.068 C 
ATOM     10  CA  UNL     1      37.135 -25.177 -14.106  0.00  0.00    +0.184 C 
ATOM     11  CA  UNL     1      34.937 -22.772 -14.851  0.00  0.00    +0.178 C 
ATOM     12  C   UNL     1      35.575 -23.946 -15.619  0.00  0.00    +0.247 C 
ATOM     13  C   UNL     1      38.546 -24.230 -12.152  0.00  0.00    +0.013 C 
ATOM     14  C   UNL     1      36.977 -26.152 -11.767  0.00  0.00    +0.013 C 
BRANCH  10  16
ATOM     15  OXT UNL     1      38.956 -26.616 -14.771  0.00  0.00    -0.248 OA
ATOM     16  C   UNL     1      38.429 -25.515 -14.776  0.00  0.00    +0.333 C 
BRANCH  16  17
ATOM     17  O   UNL     1      38.945 -24.424 -15.396  0.00  0.00    -0.479 OA
ATOM     18  H   UNL     1      38.534 -23.588 -15.292  0.00  0.00    +0.295 HD
ENDBRANCH  16  17
ENDBRANCH  10  16
ENDBRANCH   2  11
BRANCH   3  19
ATOM     19  C   UNL     1      31.198 -23.454 -14.273  0.00  0.00    +0.197 C 
BRANCH  19  20
ATOM     20  C   UNL     1      29.968 -23.385 -15.164  0.00  0.00    -0.003 C 
ATOM     21  C   UNL     1      29.644 -24.480 -15.940  0.00  0.00    -0.003 C 
ATOM     22  C   UNL     1      29.211 -22.231 -15.172  0.00  0.00    -0.003 C 
ATOM     23  C   UNL     1      28.515 -24.417 -16.758  0.00  0.00    -0.000 C 
ATOM     24  C   UNL     1      28.083 -22.167 -15.990  0.00  0.00    -0.000 C 
ATOM     25  C   UNL     1      27.735 -23.261 -16.784  0.00  0.00    -0.000 C 
ENDBRANCH  19  20
BRANCH  19  27
ATOM     26  O   UNL     1      32.147 -25.643 -13.735  0.00  0.00    -0.249 OA
ATOM     27  C   UNL     1      31.300 -24.782 -13.535  0.00  0.00    +0.326 C 
BRANCH  27  28
ATOM     28  O   UNL     1      30.348 -24.905 -12.571  0.00  0.00    -0.480 OA
ATOM     29  H   UNL     1      30.596 -25.126 -11.694  0.00  0.00    +0.295 HD
ENDBRANCH  27  28
ENDBRANCH  19  27
ENDBRANCH   3  19
TORSDOF 7
ENDMDL
MODEL 2
REMARK VINA RESULT:      -7.7      3.899      4.926
REMARK  Name = 20824
REMARK  7 active torsions:
REMARK  status: ('A' for Active; 'I' for Inactive)
REMARK    1  A    between atoms: N_2  and  CA_11
REMARK    2  A    between atoms: C_3  and  C_19
REMARK    3  A    between atoms: CA_10  and  C_16
REMARK    4  A    between atoms: C_16  and  O_17
REMARK    5  A    between atoms: C_19  and  C_20
REMARK    6  A    between atoms: C_19  and  C_27
REMARK    7  A    between atoms: C_27  and  O_28
REMARK                            x       y       z     vdW  Elec       q    Type
REMARK                         _______ _______ _______ _____ _____    ______ ____
ROOT
ATOM      1  O   UNL     1      36.432 -21.178 -17.923  0.00  0.00    -0.274 OA
ATOM      2  N   UNL     1      35.459 -22.483 -16.270  0.00  0.00    -0.296 N 
ATOM      3  C   UNL     1      35.492 -21.858 -17.516  0.00  0.00    +0.237 C 
ATOM      4  H   UNL     1      34.663 -23.009 -16.028  0.00  0.00    +0.150 HD
ENDROOT
BRANCH   2  11
ATOM      5  S   UNL     1      35.543 -24.920 -14.405  0.00  0.00    -0.118 S 
ATOM      6  O   UNL     1      38.601 -22.813 -16.776  0.00  0.00    -0.273 OA
ATOM      7  N   UNL     1      37.896 -23.903 -14.805  0.00  0.00    -0.260 N 
ATOM      8  C   UNL     1      36.633 -23.463 -14.205  0.00  0.00    +0.151 C 
ATOM      9  C   UNL     1      36.997 -26.075 -14.257  0.00  0.00    +0.068 C 
ATOM     10  CA  UNL     1      38.136 -25.321 -14.977  0.00  0.00    +0.184 C 
ATOM     11  CA  UNL     1      36.560 -22.391 -15.302  0.00  0.00    +0.178 C 
ATOM     12  C   UNL     1      37.892 -22.978 -15.809  0.00  0.00    +0.247 C 
ATOM     13  C   UNL     1      37.246 -26.331 -12.765  0.00  0.00    +0.013 C 
ATOM     14  C   UNL     1      36.662 -27.388 -14.966  0.00  0.00    +0.013 C 
BRANCH  10  16
ATOM     15  OXT UNL     1      40.179 -26.585 -14.741  0.00  0.00    -0.248 OA
ATOM     16  C   UNL     1      39.512 -25.601 -14.462  0.00  0.00    +0.333 C 
BRANCH  16  17
ATOM     17  O   UNL     1      39.925 -24.608 -13.636  0.00  0.00    -0.479 OA
ATOM     18  H   UNL     1      40.188 -24.808 -12.758  0.00  0.00    +0.295 HD
ENDBRANCH  16  17
ENDBRANCH  10  16
ENDBRANCH   2  11
BRANCH   3  19
ATOM     19  C   UNL     1      34.234 -22.103 -18.349  0.00  0.00    +0.197 C 
BRANCH  19  20
ATOM     20  C   UNL     1      34.196 -21.159 -19.540  0.00  0.00    -0.003 C 
ATOM     21  C   UNL     1      32.983 -20.631 -19.935  0.00  0.00    -0.003 C 
ATOM     22  C   UNL     1      35.374 -20.858 -20.193  0.00  0.00    -0.003 C 
ATOM     23  C   UNL     1      32.947 -19.764 -21.028  0.00  0.00    -0.000 C 
ATOM     24  C   UNL     1      35.339 -19.993 -21.287  0.00  0.00    -0.000 C 
ATOM     25  C   UNL     1      34.125 -19.446 -21.705  0.00  0.00    -0.000 C 
ENDBRANCH  19  20
BRANCH  19  27
ATOM     26  O   UNL     1      34.192 -23.993 -19.901  0.00  0.00    -0.249 OA
ATOM     27  C   UNL     1      34.069 -23.559 -18.763  0.00  0.00    +0.326 C 
BRANCH  27  28
ATOM     28  O   UNL     1      33.799 -24.365 -17.701  0.00  0.00    -0.480 OA
ATOM     29  H   UNL     1      32.922 -24.440 -17.380  0.00  0.00    +0.295 HD
ENDBRANCH  27  28
ENDBRANCH  19  27
ENDBRANCH   3  19
TORSDOF 7
ENDMDL
MODEL 3
REMARK VINA RESULT:      -7.7      1.835      2.920
REMARK  Name = 20824
REMARK  7 active torsions:
REMARK  status: ('A' for Active; 'I' for Inactive)
REMARK    1  A    between atoms: N_2  and  CA_11
REMARK    2  A    between atoms: C_3  and  C_19
REMARK    3  A    between atoms: CA_10  and  C_16
REMARK    4  A    between atoms: C_16  and  O_17
REMARK    5  A    between atoms: C_19  and  C_20
REMARK    6  A    between atoms: C_19  and  C_27
REMARK    7  A    between atoms: C_27  and  O_28
REMARK                            x       y       z     vdW  Elec       q    Type
REMARK                         _______ _______ _______ _____ _____    ______ ____
ROOT
ATOM      1  O   UNL     1      33.026 -22.924 -14.501  0.00  0.00    -0.274 OA
ATOM      2  N   UNL     1      34.803 -23.099 -15.983  0.00  0.00    -0.296 N 
ATOM      3  C   UNL     1      33.457 -23.179 -15.624  0.00  0.00    +0.237 C 
ATOM      4  H   UNL     1      35.057 -23.321 -16.908  0.00  0.00    +0.150 HD
ENDROOT
BRANCH   2  11
ATOM      5  S   UNL     1      35.584 -25.393 -14.099  0.00  0.00    -0.118 S 
ATOM      6  O   UNL     1      37.905 -22.570 -16.560  0.00  0.00    -0.273 OA
ATOM      7  N   UNL     1      37.563 -23.782 -14.564  0.00  0.00    -0.260 N 
ATOM      8  C   UNL     1      36.240 -23.692 -13.939  0.00  0.00    +0.151 C 
ATOM      9  C   UNL     1      37.300 -26.107 -13.976  0.00  0.00    +0.068 C 
ATOM     10  CA  UNL     1      38.176 -25.083 -14.729  0.00  0.00    +0.184 C 
ATOM     11  CA  UNL     1      35.857 -22.697 -15.042  0.00  0.00    +0.178 C 
ATOM     12  C   UNL     1      37.288 -22.907 -15.575  0.00  0.00    +0.247 C 
ATOM     13  C   UNL     1      37.639 -26.264 -12.488  0.00  0.00    +0.013 C 
ATOM     14  C   UNL     1      37.321 -27.473 -14.665  0.00  0.00    +0.013 C 
BRANCH  10  16
ATOM     15  OXT UNL     1      39.933 -24.414 -13.213  0.00  0.00    -0.248 OA
ATOM     16  C   UNL     1      39.587 -24.971 -14.244  0.00  0.00    +0.333 C 
BRANCH  16  17
ATOM     17  O   UNL     1      40.439 -25.572 -15.110  0.00  0.00    -0.479 OA
ATOM     18  H   UNL     1      41.362 -25.423 -15.038  0.00  0.00    +0.295 HD
ENDBRANCH  16  17
ENDBRANCH  10  16
ENDBRANCH   2  11
BRANCH   3  19
ATOM     19  C   UNL     1      32.549 -23.613 -16.775  0.00  0.00    +0.197 C 
BRANCH  19  20
ATOM     20  C   UNL     1      31.092 -23.567 -16.345  0.00  0.00    -0.003 C 
ATOM     21  C   UNL     1      30.356 -22.427 -16.603  0.00  0.00    -0.003 C 
ATOM     22  C   UNL     1      30.546 -24.664 -15.710  0.00  0.00    -0.003 C 
ATOM     23  C   UNL     1      29.018 -22.385 -16.208  0.00  0.00    -0.000 C 
ATOM     24  C   UNL     1      29.209 -24.621 -15.314  0.00  0.00    -0.000 C 
ATOM     25  C   UNL     1      28.445 -23.481 -15.563  0.00  0.00    -0.000 C 
ENDBRANCH  19  20
BRANCH  19  27
ATOM     26  O   UNL     1      32.285 -21.755 -18.343  0.00  0.00    -0.249 OA
ATOM     27  C   UNL     1      32.796 -22.829 -18.056  0.00  0.00    +0.326 C 
BRANCH  27  28
ATOM     28  O   UNL     1      33.703 -23.443 -18.864  0.00  0.00    -0.480 OA
ATOM     29  H   UNL     1      33.861 -24.362 -18.776  0.00  0.00    +0.295 HD
ENDBRANCH  27  28
ENDBRANCH  19  27
ENDBRANCH   3  19
TORSDOF 7
ENDMDL
MODEL 4
REMARK VINA RESULT:      -7.4      9.790     12.216
REMARK  Name = 20824
REMARK  7 active torsions:
REMARK  status: ('A' for Active; 'I' for Inactive)
REMARK    1  A    between atoms: N_2  and  CA_11
REMARK    2  A    between atoms: C_3  and  C_19
REMARK    3  A    between atoms: CA_10  and  C_16
REMARK    4  A    between atoms: C_16  and  O_17
REMARK    5  A    between atoms: C_19  and  C_20
REMARK    6  A    between atoms: C_19  and  C_27
REMARK    7  A    between atoms: C_27  and  O_28
REMARK                            x       y       z     vdW  Elec       q    Type
REMARK                         _______ _______ _______ _____ _____    ______ ____
ROOT
ATOM      1  O   UNL     1      36.453 -17.654 -20.248  0.00  0.00    -0.274 OA
ATOM      2  N   UNL     1      34.539 -16.920 -21.335  0.00  0.00    -0.296 N 
ATOM      3  C   UNL     1      35.525 -17.858 -21.029  0.00  0.00    +0.237 C 
ATOM      4  H   UNL     1      33.833 -17.171 -21.973  0.00  0.00    +0.150 HD
ENDROOT
BRANCH   2  11
ATOM      5  S   UNL     1      34.541 -14.732 -23.488  0.00  0.00    -0.118 S 
ATOM      6  O   UNL     1      32.110 -15.429 -19.880  0.00  0.00    -0.273 OA
ATOM      7  N   UNL     1      33.291 -13.997 -21.337  0.00  0.00    -0.260 N 
ATOM      8  C   UNL     1      34.660 -14.379 -21.696  0.00  0.00    +0.151 C 
ATOM      9  C   UNL     1      33.196 -13.458 -23.687  0.00  0.00    +0.068 C 
ATOM     10  CA  UNL     1      32.380 -13.583 -22.383  0.00  0.00    +0.184 C 
ATOM     11  CA  UNL     1      34.507 -15.575 -20.745  0.00  0.00    +0.178 C 
ATOM     12  C   UNL     1      33.086 -15.039 -20.480  0.00  0.00    +0.247 C 
ATOM     13  C   UNL     1      33.866 -12.093 -23.891  0.00  0.00    +0.013 C 
ATOM     14  C   UNL     1      32.351 -13.816 -24.911  0.00  0.00    +0.013 C 
BRANCH  10  16
ATOM     15  OXT UNL     1      31.155 -11.519 -22.645  0.00  0.00    -0.248 OA
ATOM     16  C   UNL     1      31.719 -12.324 -21.920  0.00  0.00    +0.333 C 
BRANCH  16  17
ATOM     17  O   UNL     1      31.831 -12.192 -20.575  0.00  0.00    -0.479 OA
ATOM     18  H   UNL     1      32.658 -12.332 -20.158  0.00  0.00    +0.295 HD
ENDBRANCH  16  17
ENDBRANCH  10  16
ENDBRANCH   2  11
BRANCH   3  19
ATOM     19  C   UNL     1      35.344 -19.186 -21.762  0.00  0.00    +0.197 C 
BRANCH  19  20
ATOM     20  C   UNL     1      34.701 -20.214 -20.844  0.00  0.00    -0.003 C 
ATOM     21  C   UNL     1      35.500 -21.172 -20.252  0.00  0.00    -0.003 C 
ATOM     22  C   UNL     1      33.339 -20.158 -20.629  0.00  0.00    -0.003 C 
ATOM     23  C   UNL     1      34.910 -22.115 -19.409  0.00  0.00    -0.000 C 
ATOM     24  C   UNL     1      32.749 -21.102 -19.787  0.00  0.00    -0.000 C 
ATOM     25  C   UNL     1      33.535 -22.080 -19.177  0.00  0.00    -0.000 C 
ENDBRANCH  19  20
BRANCH  19  27
ATOM     26  O   UNL     1      33.781 -18.165 -23.342  0.00  0.00    -0.249 OA
ATOM     27  C   UNL     1      34.593 -19.042 -23.079  0.00  0.00    +0.326 C 
BRANCH  27  28
ATOM     28  O   UNL     1      34.955 -19.994 -23.981  0.00  0.00    -0.480 OA
ATOM     29  H   UNL     1      35.417 -20.758 -23.695  0.00  0.00    +0.295 HD
ENDBRANCH  27  28
ENDBRANCH  19  27
ENDBRANCH   3  19
TORSDOF 7
ENDMDL
MODEL 5
REMARK VINA RESULT:      -7.2      3.881      5.502
REMARK  Name = 20824
REMARK  7 active torsions:
REMARK  status: ('A' for Active; 'I' for Inactive)
REMARK    1  A    between atoms: N_2  and  CA_11
REMARK    2  A    between atoms: C_3  and  C_19
REMARK    3  A    between atoms: CA_10  and  C_16
REMARK    4  A    between atoms: C_16  and  O_17
REMARK    5  A    between atoms: C_19  and  C_20
REMARK    6  A    between atoms: C_19  and  C_27
REMARK    7  A    between atoms: C_27  and  O_28
REMARK                            x       y       z     vdW  Elec       q    Type
REMARK                         _______ _______ _______ _____ _____    ______ ____
ROOT
ATOM      1  O   UNL     1      33.781 -23.531 -18.523  0.00  0.00    -0.274 OA
ATOM      2  N   UNL     1      35.301 -23.266 -16.789  0.00  0.00    -0.296 N 
ATOM      3  C   UNL     1      34.810 -23.029 -18.073  0.00  0.00    +0.237 C 
ATOM      4  H   UNL     1      36.134 -22.820 -16.514  0.00  0.00    +0.150 HD
ENDROOT
BRANCH   2  11
ATOM      5  S   UNL     1      37.314 -24.882 -15.127  0.00  0.00    -0.118 S 
ATOM      6  O   UNL     1      33.757 -22.495 -14.094  0.00  0.00    -0.273 OA
ATOM      7  N   UNL     1      35.122 -24.402 -13.826  0.00  0.00    -0.260 N 
ATOM      8  C   UNL     1      35.503 -25.134 -15.037  0.00  0.00    +0.151 C 
ATOM      9  C   UNL     1      37.434 -24.809 -13.269  0.00  0.00    +0.068 C 
ATOM     10  CA  UNL     1      36.140 -24.080 -12.848  0.00  0.00    +0.184 C 
ATOM     11  CA  UNL     1      34.629 -24.152 -15.829  0.00  0.00    +0.178 C 
ATOM     12  C   UNL     1      34.331 -23.493 -14.467  0.00  0.00    +0.247 C 
ATOM     13  C   UNL     1      37.553 -26.248 -12.748  0.00  0.00    +0.013 C 
ATOM     14  C   UNL     1      38.678 -24.008 -12.883  0.00  0.00    +0.013 C 
BRANCH  10  16
ATOM     15  OXT UNL     1      36.106 -24.162 -10.436  0.00  0.00    -0.248 OA
ATOM     16  C   UNL     1      35.600 -24.460 -11.507  0.00  0.00    +0.333 C 
BRANCH  16  17
ATOM     17  O   UNL     1      34.463 -25.188 -11.637  0.00  0.00    -0.479 OA
ATOM     18  H   UNL     1      33.779 -24.891 -12.205  0.00  0.00    +0.295 HD
ENDBRANCH  16  17
ENDBRANCH  10  16
ENDBRANCH   2  11
BRANCH   3  19
ATOM     19  C   UNL     1      35.678 -22.068 -18.884  0.00  0.00    +0.197 C 
BRANCH  19  20
ATOM     20  C   UNL     1      34.806 -21.138 -19.712  0.00  0.00    -0.003 C 
ATOM     21  C   UNL     1      35.396 -20.369 -20.695  0.00  0.00    -0.003 C 
ATOM     22  C   UNL     1      33.450 -21.089 -19.457  0.00  0.00    -0.003 C 
ATOM     23  C   UNL     1      34.596 -19.515 -21.456  0.00  0.00    -0.000 C 
ATOM     24  C   UNL     1      32.650 -20.235 -20.217  0.00  0.00    -0.000 C 
ATOM     25  C   UNL     1      33.223 -19.448 -21.216  0.00  0.00    -0.000 C 
ENDBRANCH  19  20
BRANCH  19  27
ATOM     26  O   UNL     1      37.067 -21.641 -16.916  0.00  0.00    -0.249 OA
ATOM     27  C   UNL     1      36.682 -21.306 -18.028  0.00  0.00    +0.326 C 
BRANCH  27  28
ATOM     28  O   UNL     1      37.153 -20.197 -18.660  0.00  0.00    -0.480 OA
ATOM     29  H   UNL     1      37.980 -20.226 -19.101  0.00  0.00    +0.295 HD
ENDBRANCH  27  28
ENDBRANCH  19  27
ENDBRANCH   3  19
TORSDOF 7
ENDMDL
MODEL 6
REMARK VINA RESULT:      -7.0      8.906     10.257
REMARK  Name = 20824
REMARK  7 active torsions:
REMARK  status: ('A' for Active; 'I' for Inactive)
REMARK    1  A    between atoms: N_2  and  CA_11
REMARK    2  A    between atoms: C_3  and  C_19
REMARK    3  A    between atoms: CA_10  and  C_16
REMARK    4  A    between atoms: C_16  and  O_17
REMARK    5  A    between atoms: C_19  and  C_20
REMARK    6  A    between atoms: C_19  and  C_27
REMARK    7  A    between atoms: C_27  and  O_28
REMARK                            x       y       z     vdW  Elec       q    Type
REMARK                         _______ _______ _______ _____ _____    ______ ____
ROOT
ATOM      1  O   UNL     1      35.023 -17.540 -23.769  0.00  0.00    -0.274 OA
ATOM      2  N   UNL     1      34.004 -17.944 -21.723  0.00  0.00    -0.296 N 
ATOM      3  C   UNL     1      34.609 -17.134 -22.684  0.00  0.00    +0.237 C 
ATOM      4  H   UNL     1      33.703 -17.531 -20.882  0.00  0.00    +0.150 HD
ENDROOT
BRANCH   2  11
ATOM      5  S   UNL     1      36.458 -19.571 -20.854  0.00  0.00    -0.118 S 
ATOM      6  O   UNL     1      32.142 -19.934 -20.047  0.00  0.00    -0.273 OA
ATOM      7  N   UNL     1      34.243 -20.885 -20.544  0.00  0.00    -0.260 N 
ATOM      8  C   UNL     1      34.995 -20.313 -21.665  0.00  0.00    +0.151 C 
ATOM      9  C   UNL     1      36.431 -20.877 -19.525  0.00  0.00    +0.068 C 
ATOM     10  CA  UNL     1      34.926 -21.126 -19.290  0.00  0.00    +0.184 C 
ATOM     11  CA  UNL     1      33.797 -19.386 -21.911  0.00  0.00    +0.178 C 
ATOM     12  C   UNL     1      33.146 -20.090 -20.704  0.00  0.00    +0.247 C 
ATOM     13  C   UNL     1      37.204 -22.096 -20.046  0.00  0.00    +0.013 C 
ATOM     14  C   UNL     1      37.108 -20.323 -18.271  0.00  0.00    +0.013 C 
BRANCH  10  16
ATOM     15  OXT UNL     1      34.031 -23.353 -19.554  0.00  0.00    -0.248 OA
ATOM     16  C   UNL     1      34.568 -22.510 -18.851  0.00  0.00    +0.333 C 
BRANCH  16  17
ATOM     17  O   UNL     1      34.919 -22.707 -17.556  0.00  0.00    -0.479 OA
ATOM     18  H   UNL     1      35.688 -22.297 -17.211  0.00  0.00    +0.295 HD
ENDBRANCH  16  17
ENDBRANCH  10  16
ENDBRANCH   2  11
BRANCH   3  19
ATOM     19  C   UNL     1      34.709 -15.668 -22.264  0.00  0.00    +0.197 C 
BRANCH  19  20
ATOM     20  C   UNL     1      34.163 -14.765 -23.358  0.00  0.00    -0.003 C 
ATOM     21  C   UNL     1      34.211 -13.397 -23.181  0.00  0.00    -0.003 C 
ATOM     22  C   UNL     1      33.635 -15.339 -24.497  0.00  0.00    -0.003 C 
ATOM     23  C   UNL     1      33.709 -12.568 -24.186  0.00  0.00    -0.000 C 
ATOM     24  C   UNL     1      33.133 -14.511 -25.501  0.00  0.00    -0.000 C 
ATOM     25  C   UNL     1      33.170 -13.125 -25.345  0.00  0.00    -0.000 C 
ENDBRANCH  19  20
BRANCH  19  27
ATOM     26  O   UNL     1      32.868 -15.201 -20.722  0.00  0.00    -0.249 OA
ATOM     27  C   UNL     1      34.062 -15.391 -20.913  0.00  0.00    +0.326 C 
BRANCH  27  28
ATOM     28  O   UNL     1      34.968 -15.415 -19.899  0.00  0.00    -0.480 OA
ATOM     29  H   UNL     1      35.359 -16.226 -19.639  0.00  0.00    +0.295 HD
ENDBRANCH  27  28
ENDBRANCH  19  27
ENDBRANCH   3  19
TORSDOF 7
ENDMDL
MODEL 7
REMARK VINA RESULT:      -7.0     13.017     14.712
REMARK  Name = 20824
REMARK  7 active torsions:
REMARK  status: ('A' for Active; 'I' for Inactive)
REMARK    1  A    between atoms: N_2  and  CA_11
REMARK    2  A    between atoms: C_3  and  C_19
REMARK    3  A    between atoms: CA_10  and  C_16
REMARK    4  A    between atoms: C_16  and  O_17
REMARK    5  A    between atoms: C_19  and  C_20
REMARK    6  A    between atoms: C_19  and  C_27
REMARK    7  A    between atoms: C_27  and  O_28
REMARK                            x       y       z     vdW  Elec       q    Type
REMARK                         _______ _______ _______ _____ _____    ______ ____
ROOT
ATOM      1  O   UNL     1      34.042  -9.964 -23.889  0.00  0.00    -0.274 OA
ATOM      2  N   UNL     1      32.993 -12.002 -23.521  0.00  0.00    -0.296 N 
ATOM      3  C   UNL     1      33.056 -10.608 -23.534  0.00  0.00    +0.237 C 
ATOM      4  H   UNL     1      32.161 -12.432 -23.219  0.00  0.00    +0.150 HD
ENDROOT
BRANCH   2  11
ATOM      5  S   UNL     1      33.744 -14.037 -21.348  0.00  0.00    -0.118 S 
ATOM      6  O   UNL     1      33.020 -14.360 -25.683  0.00  0.00    -0.273 OA
ATOM      7  N   UNL     1      34.234 -14.919 -23.738  0.00  0.00    -0.260 N 
ATOM      8  C   UNL     1      34.700 -13.816 -22.893  0.00  0.00    +0.151 C 
ATOM      9  C   UNL     1      33.710 -15.885 -21.589  0.00  0.00    +0.068 C 
ATOM     10  CA  UNL     1      33.576 -16.050 -23.118  0.00  0.00    +0.184 C 
ATOM     11  CA  UNL     1      34.115 -12.855 -23.937  0.00  0.00    +0.178 C 
ATOM     12  C   UNL     1      33.689 -14.123 -24.703  0.00  0.00    +0.247 C 
ATOM     13  C   UNL     1      35.004 -16.460 -20.997  0.00  0.00    +0.013 C 
ATOM     14  C   UNL     1      32.497 -16.459 -20.857  0.00  0.00    +0.013 C 
BRANCH  10  16
ATOM     15  OXT UNL     1      33.819 -18.427 -23.464  0.00  0.00    -0.248 OA
ATOM     16  C   UNL     1      34.198 -17.287 -23.684  0.00  0.00    +0.333 C 
BRANCH  16  17
ATOM     17  O   UNL     1      35.251 -16.973 -24.478  0.00  0.00    -0.479 OA
ATOM     18  H   UNL     1      35.386 -16.085 -24.748  0.00  0.00    +0.295 HD
ENDBRANCH  16  17
ENDBRANCH  10  16
ENDBRANCH   2  11
BRANCH   3  19
ATOM     19  C   UNL     1      31.764  -9.941 -23.063  0.00  0.00    +0.197 C 
BRANCH  19  20
ATOM     20  C   UNL     1      31.656 -10.008 -21.548  0.00  0.00    -0.003 C 
ATOM     21  C   UNL     1      32.171  -8.973 -20.795  0.00  0.00    -0.003 C 
ATOM     22  C   UNL     1      31.044 -11.103 -20.970  0.00  0.00    -0.003 C 
ATOM     23  C   UNL     1      32.071  -9.035 -19.404  0.00  0.00    -0.000 C 
ATOM     24  C   UNL     1      30.946 -11.165 -19.580  0.00  0.00    -0.000 C 
ATOM     25  C   UNL     1      31.459 -10.131 -18.797  0.00  0.00    -0.000 C 
ENDBRANCH  19  20
BRANCH  19  27
ATOM     26  O   UNL     1      30.538  -7.936 -23.741  0.00  0.00    -0.249 OA
ATOM     27  C   UNL     1      31.602  -8.521 -23.589  0.00  0.00    +0.326 C 
BRANCH  27  28
ATOM     28  O   UNL     1      32.801  -7.931 -23.844  0.00  0.00    -0.480 OA
ATOM     29  H   UNL     1      33.575  -8.235 -23.411  0.00  0.00    +0.295 HD
ENDBRANCH  27  28
ENDBRANCH  19  27
ENDBRANCH   3  19
TORSDOF 7
ENDMDL
MODEL 8
REMARK VINA RESULT:      -6.9      8.510     10.857
REMARK  Name = 20824
REMARK  7 active torsions:
REMARK  status: ('A' for Active; 'I' for Inactive)
REMARK    1  A    between atoms: N_2  and  CA_11
REMARK    2  A    between atoms: C_3  and  C_19
REMARK    3  A    between atoms: CA_10  and  C_16
REMARK    4  A    between atoms: C_16  and  O_17
REMARK    5  A    between atoms: C_19  and  C_20
REMARK    6  A    between atoms: C_19  and  C_27
REMARK    7  A    between atoms: C_27  and  O_28
REMARK                            x       y       z     vdW  Elec       q    Type
REMARK                         _______ _______ _______ _____ _____    ______ ____
ROOT
ATOM      1  O   UNL     1      36.736 -19.810 -20.591  0.00  0.00    -0.274 OA
ATOM      2  N   UNL     1      34.717 -18.666 -20.653  0.00  0.00    -0.296 N 
ATOM      3  C   UNL     1      35.510 -19.801 -20.483  0.00  0.00    +0.237 C 
ATOM      4  H   UNL     1      33.742 -18.754 -20.548  0.00  0.00    +0.150 HD
ENDROOT
BRANCH   2  11
ATOM      5  S   UNL     1      35.128 -18.326 -23.677  0.00  0.00    -0.118 S 
ATOM      6  O   UNL     1      33.277 -15.810 -20.569  0.00  0.00    -0.273 OA
ATOM      7  N   UNL     1      34.620 -16.075 -22.491  0.00  0.00    -0.260 N 
ATOM      8  C   UNL     1      35.675 -17.091 -22.442  0.00  0.00    +0.151 C 
ATOM      9  C   UNL     1      34.315 -16.998 -24.700  0.00  0.00    +0.068 C 
ATOM     10  CA  UNL     1      33.749 -16.022 -23.647  0.00  0.00    +0.184 C 
ATOM     11  CA  UNL     1      35.272 -17.347 -20.983  0.00  0.00    +0.178 C 
ATOM     12  C   UNL     1      34.207 -16.254 -21.202  0.00  0.00    +0.247 C 
ATOM     13  C   UNL     1      35.383 -16.393 -25.621  0.00  0.00    +0.013 C 
ATOM     14  C   UNL     1      33.198 -17.627 -25.534  0.00  0.00    +0.013 C 
BRANCH  10  16
ATOM     15  OXT UNL     1      32.967 -14.164 -24.977  0.00  0.00    -0.248 OA
ATOM     16  C   UNL     1      33.674 -14.591 -24.077  0.00  0.00    +0.333 C 
BRANCH  16  17
ATOM     17  O   UNL     1      34.504 -13.823 -23.329  0.00  0.00    -0.479 OA
ATOM     18  H   UNL     1      34.205 -13.001 -22.992  0.00  0.00    +0.295 HD
ENDBRANCH  16  17
ENDBRANCH  10  16
ENDBRANCH   2  11
BRANCH   3  19
ATOM     19  C   UNL     1      34.707 -21.054 -20.139  0.00  0.00    +0.197 C 
BRANCH  19  20
ATOM     20  C   UNL     1      35.199 -21.657 -18.833  0.00  0.00    -0.003 C 
ATOM     21  C   UNL     1      36.480 -21.368 -18.406  0.00  0.00    -0.003 C 
ATOM     22  C   UNL     1      34.352 -22.474 -18.113  0.00  0.00    -0.003 C 
ATOM     23  C   UNL     1      36.932 -21.921 -17.207  0.00  0.00    -0.000 C 
ATOM     24  C   UNL     1      34.804 -23.028 -16.915  0.00  0.00    -0.000 C 
ATOM     25  C   UNL     1      36.094 -22.751 -16.462  0.00  0.00    -0.000 C 
ENDBRANCH  19  20
BRANCH  19  27
ATOM     26  O   UNL     1      32.462 -20.976 -19.171  0.00  0.00    -0.249 OA
ATOM     27  C   UNL     1      33.203 -20.814 -20.131  0.00  0.00    +0.326 C 
BRANCH  27  28
ATOM     28  O   UNL     1      32.754 -20.347 -21.327  0.00  0.00    -0.480 OA
ATOM     29  H   UNL     1      33.234 -20.529 -22.112  0.00  0.00    +0.295 HD
ENDBRANCH  27  28
ENDBRANCH  19  27
ENDBRANCH   3  19
TORSDOF 7
ENDMDL
MODEL 9
REMARK VINA RESULT:      -6.7     13.695     15.763
REMARK  Name = 20824
REMARK  7 active torsions:
REMARK  status: ('A' for Active; 'I' for Inactive)
REMARK    1  A    between atoms: N_2  and  CA_11
REMARK    2  A    between atoms: C_3  and  C_19
REMARK    3  A    between atoms: CA_10  and  C_16
REMARK    4  A    between atoms: C_16  and  O_17
REMARK    5  A    between atoms: C_19  and  C_20
REMARK    6  A    between atoms: C_19  and  C_27
REMARK    7  A    between atoms: C_27  and  O_28
REMARK                            x       y       z     vdW  Elec       q    Type
REMARK                         _______ _______ _______ _____ _____    ______ ____
ROOT
ATOM      1  O   UNL     1      33.096 -14.194 -25.576  0.00  0.00    -0.274 OA
ATOM      2  N   UNL     1      34.375 -12.710 -24.331  0.00  0.00    -0.296 N 
ATOM      3  C   UNL     1      33.926 -13.980 -24.693  0.00  0.00    +0.237 C 
ATOM      4  H   UNL     1      35.042 -12.634 -23.612  0.00  0.00    +0.150 HD
ENDROOT
BRANCH   2  11
ATOM      5  S   UNL     1      31.994 -11.487 -22.826  0.00  0.00    -0.118 S 
ATOM      6  O   UNL     1      35.753  -9.823 -24.414  0.00  0.00    -0.273 OA
ATOM      7  N   UNL     1      33.428  -9.691 -24.029  0.00  0.00    -0.260 N 
ATOM      8  C   UNL     1      32.612 -10.843 -24.424  0.00  0.00    +0.151 C 
ATOM      9  C   UNL     1      31.987  -9.774 -22.095  0.00  0.00    +0.068 C 
ATOM     10  CA  UNL     1      33.231  -9.106 -22.719  0.00  0.00    +0.184 C 
ATOM     11  CA  UNL     1      33.895 -11.480 -24.977  0.00  0.00    +0.178 C 
ATOM     12  C   UNL     1      34.606 -10.200 -24.495  0.00  0.00    +0.247 C 
ATOM     13  C   UNL     1      30.654  -9.109 -22.464  0.00  0.00    +0.013 C 
ATOM     14  C   UNL     1      32.116  -9.882 -20.575  0.00  0.00    +0.013 C 
BRANCH  10  16
ATOM     15  OXT UNL     1      33.025  -7.060 -23.985  0.00  0.00    -0.248 OA
ATOM     16  C   UNL     1      33.135  -7.625 -22.907  0.00  0.00    +0.333 C 
BRANCH  16  17
ATOM     17  O   UNL     1      33.188  -6.987 -21.712  0.00  0.00    -0.479 OA
ATOM     18  H   UNL     1      33.313  -7.478 -20.924  0.00  0.00    +0.295 HD
ENDBRANCH  16  17
ENDBRANCH  10  16
ENDBRANCH   2  11
BRANCH   3  19
ATOM     19  C   UNL     1      34.573 -15.103 -23.884  0.00  0.00    +0.197 C 
BRANCH  19  20
ATOM     20  C   UNL     1      33.992 -15.147 -22.480  0.00  0.00    -0.003 C 
ATOM     21  C   UNL     1      34.825 -15.453 -21.423  0.00  0.00    -0.003 C 
ATOM     22  C   UNL     1      32.650 -14.879 -22.304  0.00  0.00    -0.003 C 
ATOM     23  C   UNL     1      34.291 -15.493 -20.133  0.00  0.00    -0.000 C 
ATOM     24  C   UNL     1      32.116 -14.921 -21.015  0.00  0.00    -0.000 C 
ATOM     25  C   UNL     1      32.937 -15.228 -19.930  0.00  0.00    -0.000 C 
ENDBRANCH  19  20
BRANCH  19  27
ATOM     26  O   UNL     1      34.280 -17.527 -24.030  0.00  0.00    -0.249 OA
ATOM     27  C   UNL     1      34.501 -16.456 -24.580  0.00  0.00    +0.326 C 
BRANCH  27  28
ATOM     28  O   UNL     1      34.671 -16.349 -25.925  0.00  0.00    -0.480 OA
ATOM     29  H   UNL     1      34.935 -17.097 -26.425  0.00  0.00    +0.295 HD
ENDBRANCH  27  28
ENDBRANCH  19  27
ENDBRANCH   3  19
TORSDOF 7
ENDMDL
