MODEL 1
REMARK VINA RESULT:      -6.1      0.000      0.000
REMARK  Name = 59708
REMARK  3 active torsions:
REMARK  status: ('A' for Active; 'I' for Inactive)
REMARK    1  A    between atoms: C_1  and  N_3
REMARK    2  A    between atoms: C_1  and  C_10
REMARK    3  A    between atoms: C_1  and  C_13
REMARK                            x       y       z     vdW  Elec       q    Type
REMARK                         _______ _______ _______ _____ _____    ______ ____
ROOT
ATOM      1  C   UNL     1      35.223 -17.986 -22.004  0.00  0.00    +0.151 C 
ENDROOT
BRANCH   1   3
ATOM      2  O   UNL     1      36.629 -20.182 -20.526  0.00  0.00    -0.275 OA
ATOM      3  N   UNL     1      34.673 -19.082 -21.235  0.00  0.00    -0.273 N 
ATOM      4  C   UNL     1      33.256 -19.191 -20.982  0.00  0.00    +0.094 C 
ATOM      5  C   UNL     1      33.105 -20.614 -20.482  0.00  0.00    +0.031 C 
ATOM      6  C   UNL     1      34.434 -20.904 -19.795  0.00  0.00    +0.087 C 
ATOM      7  C   UNL     1      35.415 -20.047 -20.559  0.00  0.00    +0.226 C 
ENDBRANCH   1   3
BRANCH   1  10
ATOM      8  O   UNL     1      35.184 -16.423 -20.144  0.00  0.00    -0.274 OA
ATOM      9  N   UNL     1      34.151 -15.818 -22.104  0.00  0.00    -0.327 N 
ATOM     10  C   UNL     1      34.876 -16.678 -21.306  0.00  0.00    +0.237 C 
ATOM     11  H   UNL     1      33.872 -14.942 -21.756  0.00  0.00    +0.145 HD
ATOM     12  H   UNL     1      33.912 -16.082 -23.023  0.00  0.00    +0.145 HD
ENDBRANCH   1  10
BRANCH   1  13
ATOM     13  C   UNL     1      34.767 -18.019 -23.466  0.00  0.00    +0.029 C 
ATOM     14  C   UNL     1      34.956 -19.369 -24.150  0.00  0.00    +0.002 C 
ENDBRANCH   1  13
TORSDOF 3
ENDMDL
MODEL 2
REMARK VINA RESULT:      -6.0      8.925     10.506
REMARK  Name = 59708
REMARK  3 active torsions:
REMARK  status: ('A' for Active; 'I' for Inactive)
REMARK    1  A    between atoms: C_1  and  N_3
REMARK    2  A    between atoms: C_1  and  C_10
REMARK    3  A    between atoms: C_1  and  C_13
REMARK                            x       y       z     vdW  Elec       q    Type
REMARK                         _______ _______ _______ _____ _____    ______ ____
ROOT
ATOM      1  C   UNL     1      32.824  -8.099 -21.931  0.00  0.00    +0.151 C 
ENDROOT
BRANCH   1   3
ATOM      2  O   UNL     1      32.187  -8.890 -19.111  0.00  0.00    -0.275 OA
ATOM      3  N   UNL     1      32.145  -9.276 -21.433  0.00  0.00    -0.273 N 
ATOM      4  C   UNL     1      31.549 -10.240 -22.327  0.00  0.00    +0.094 C 
ATOM      5  C   UNL     1      31.289 -11.430 -21.425  0.00  0.00    +0.031 C 
ATOM      6  C   UNL     1      31.042 -10.806 -20.056  0.00  0.00    +0.087 C 
ATOM      7  C   UNL     1      31.873  -9.545 -20.094  0.00  0.00    +0.226 C 
ENDBRANCH   1   3
BRANCH   1  10
ATOM      8  O   UNL     1      31.002  -6.777 -22.847  0.00  0.00    -0.274 OA
ATOM      9  N   UNL     1      31.993  -6.073 -20.898  0.00  0.00    -0.327 N 
ATOM     10  C   UNL     1      31.835  -6.940 -21.959  0.00  0.00    +0.237 C 
ATOM     11  H   UNL     1      31.407  -5.287 -20.815  0.00  0.00    +0.145 HD
ATOM     12  H   UNL     1      32.692  -6.241 -20.225  0.00  0.00    +0.145 HD
ENDBRANCH   1  10
BRANCH   1  13
ATOM     13  C   UNL     1      33.488  -8.345 -23.289  0.00  0.00    +0.029 C 
ATOM     14  C   UNL     1      34.756  -7.532 -23.522  0.00  0.00    +0.002 C 
ENDBRANCH   1  13
TORSDOF 3
ENDMDL
MODEL 3
REMARK VINA RESULT:      -6.0      1.621      4.040
REMARK  Name = 59708
REMARK  3 active torsions:
REMARK  status: ('A' for Active; 'I' for Inactive)
REMARK    1  A    between atoms: C_1  and  N_3
REMARK    2  A    between atoms: C_1  and  C_10
REMARK    3  A    between atoms: C_1  and  C_13
REMARK                            x       y       z     vdW  Elec       q    Type
REMARK                         _______ _______ _______ _____ _____    ______ ____
ROOT
ATOM      1  C   UNL     1      34.965 -18.826 -21.353  0.00  0.00    +0.151 C 
ENDROOT
BRANCH   1   3
ATOM      2  O   UNL     1      34.930 -16.004 -22.363  0.00  0.00    -0.275 OA
ATOM      3  N   UNL     1      34.850 -18.332 -22.708  0.00  0.00    -0.273 N 
ATOM      4  C   UNL     1      34.846 -19.225 -23.841  0.00  0.00    +0.094 C 
ATOM      5  C   UNL     1      34.359 -18.343 -24.974  0.00  0.00    +0.031 C 
ATOM      6  C   UNL     1      34.853 -16.952 -24.592  0.00  0.00    +0.087 C 
ATOM      7  C   UNL     1      34.867 -16.990 -23.082  0.00  0.00    +0.226 C 
ENDBRANCH   1   3
BRANCH   1  10
ATOM      8  O   UNL     1      37.357 -18.654 -21.747  0.00  0.00    -0.274 OA
ATOM      9  N   UNL     1      36.631 -19.819 -19.905  0.00  0.00    -0.327 N 
ATOM     10  C   UNL     1      36.437 -19.065 -21.043  0.00  0.00    +0.237 C 
ATOM     11  H   UNL     1      37.544 -20.036 -19.609  0.00  0.00    +0.145 HD
ATOM     12  H   UNL     1      35.857 -20.141 -19.389  0.00  0.00    +0.145 HD
ENDBRANCH   1  10
BRANCH   1  13
ATOM     13  C   UNL     1      34.098 -20.066 -21.115  0.00  0.00    +0.029 C 
ATOM     14  C   UNL     1      32.714 -19.764 -20.551  0.00  0.00    +0.002 C 
ENDBRANCH   1  13
TORSDOF 3
ENDMDL
MODEL 4
REMARK VINA RESULT:      -6.0      2.000      2.942
REMARK  Name = 59708
REMARK  3 active torsions:
REMARK  status: ('A' for Active; 'I' for Inactive)
REMARK    1  A    between atoms: C_1  and  N_3
REMARK    2  A    between atoms: C_1  and  C_10
REMARK    3  A    between atoms: C_1  and  C_13
REMARK                            x       y       z     vdW  Elec       q    Type
REMARK                         _______ _______ _______ _____ _____    ______ ____
ROOT
ATOM      1  C   UNL     1      34.470 -17.956 -21.710  0.00  0.00    +0.151 C 
ENDROOT
BRANCH   1   3
ATOM      2  O   UNL     1      32.933 -20.227 -20.501  0.00  0.00    -0.275 OA
ATOM      3  N   UNL     1      34.951 -19.125 -21.007  0.00  0.00    -0.273 N 
ATOM      4  C   UNL     1      36.361 -19.411 -20.889  0.00  0.00    +0.094 C 
ATOM      5  C   UNL     1      36.408 -20.476 -19.812  0.00  0.00    +0.031 C 
ATOM      6  C   UNL     1      35.083 -21.212 -19.967  0.00  0.00    +0.087 C 
ATOM      7  C   UNL     1      34.153 -20.147 -20.497  0.00  0.00    +0.226 C 
ENDBRANCH   1   3
BRANCH   1  10
ATOM      8  O   UNL     1      34.639 -18.994 -23.901  0.00  0.00    -0.274 OA
ATOM      9  N   UNL     1      35.670 -16.970 -23.567  0.00  0.00    -0.327 N 
ATOM     10  C   UNL     1      34.909 -18.047 -23.166  0.00  0.00    +0.237 C 
ATOM     11  H   UNL     1      36.008 -16.923 -24.490  0.00  0.00    +0.145 HD
ATOM     12  H   UNL     1      35.874 -16.247 -22.930  0.00  0.00    +0.145 HD
ENDBRANCH   1  10
BRANCH   1  13
ATOM     13  C   UNL     1      34.912 -16.653 -21.037  0.00  0.00    +0.029 C 
ATOM     14  C   UNL     1      33.787 -15.646 -20.824  0.00  0.00    +0.002 C 
ENDBRANCH   1  13
TORSDOF 3
ENDMDL
MODEL 5
REMARK VINA RESULT:      -5.8      9.098     10.725
REMARK  Name = 59708
REMARK  3 active torsions:
REMARK  status: ('A' for Active; 'I' for Inactive)
REMARK    1  A    between atoms: C_1  and  N_3
REMARK    2  A    between atoms: C_1  and  C_10
REMARK    3  A    between atoms: C_1  and  C_13
REMARK                            x       y       z     vdW  Elec       q    Type
REMARK                         _______ _______ _______ _____ _____    ______ ____
ROOT
ATOM      1  C   UNL     1      35.722 -23.977 -12.704  0.00  0.00    +0.151 C 
ENDROOT
BRANCH   1   3
ATOM      2  O   UNL     1      37.720 -22.914 -14.669  0.00  0.00    -0.275 OA
ATOM      3  N   UNL     1      36.752 -24.675 -13.442  0.00  0.00    -0.273 N 
ATOM      4  C   UNL     1      37.028 -26.074 -13.217  0.00  0.00    +0.094 C 
ATOM      5  C   UNL     1      37.883 -26.453 -14.410  0.00  0.00    +0.031 C 
ATOM      6  C   UNL     1      38.619 -25.164 -14.757  0.00  0.00    +0.087 C 
ATOM      7  C   UNL     1      37.655 -24.085 -14.323  0.00  0.00    +0.226 C 
ENDBRANCH   1   3
BRANCH   1  10
ATOM      8  O   UNL     1      35.255 -24.996 -10.547  0.00  0.00    -0.274 OA
ATOM      9  N   UNL     1      36.959 -23.462 -10.687  0.00  0.00    -0.327 N 
ATOM     10  C   UNL     1      35.937 -24.223 -11.216  0.00  0.00    +0.237 C 
ATOM     11  H   UNL     1      37.186 -23.540  -9.733  0.00  0.00    +0.145 HD
ATOM     12  H   UNL     1      37.460 -22.842 -11.264  0.00  0.00    +0.145 HD
ENDBRANCH   1  10
BRANCH   1  13
ATOM     13  C   UNL     1      34.315 -24.359 -13.171  0.00  0.00    +0.029 C 
ATOM     14  C   UNL     1      33.972 -23.882 -14.578  0.00  0.00    +0.002 C 
ENDBRANCH   1  13
TORSDOF 3
ENDMDL
MODEL 6
REMARK VINA RESULT:      -5.8      9.792     10.861
REMARK  Name = 59708
REMARK  3 active torsions:
REMARK  status: ('A' for Active; 'I' for Inactive)
REMARK    1  A    between atoms: C_1  and  N_3
REMARK    2  A    between atoms: C_1  and  C_10
REMARK    3  A    between atoms: C_1  and  C_13
REMARK                            x       y       z     vdW  Elec       q    Type
REMARK                         _______ _______ _______ _____ _____    ______ ____
ROOT
ATOM      1  C   UNL     1      36.409 -23.535 -12.808  0.00  0.00    +0.151 C 
ENDROOT
BRANCH   1   3
ATOM      2  O   UNL     1      36.927 -26.373 -11.998  0.00  0.00    -0.275 OA
ATOM      3  N   UNL     1      37.123 -24.579 -13.509  0.00  0.00    -0.273 N 
ATOM      4  C   UNL     1      37.623 -24.386 -14.850  0.00  0.00    +0.094 C 
ATOM      5  C   UNL     1      38.577 -25.550 -15.033  0.00  0.00    +0.031 C 
ATOM      6  C   UNL     1      37.982 -26.651 -14.162  0.00  0.00    +0.087 C 
ATOM      7  C   UNL     1      37.292 -25.886 -13.057  0.00  0.00    +0.226 C 
ENDBRANCH   1   3
BRANCH   1  10
ATOM      8  O   UNL     1      38.269 -22.528 -11.612  0.00  0.00    -0.274 OA
ATOM      9  N   UNL     1      36.628 -23.579 -10.398  0.00  0.00    -0.327 N 
ATOM     10  C   UNL     1      37.206 -23.143 -11.571  0.00  0.00    +0.237 C 
ATOM     11  H   UNL     1      37.058 -23.382  -9.535  0.00  0.00    +0.145 HD
ATOM     12  H   UNL     1      35.785 -24.087 -10.424  0.00  0.00    +0.145 HD
ENDBRANCH   1  10
BRANCH   1  13
ATOM     13  C   UNL     1      34.968 -23.938 -12.483  0.00  0.00    +0.029 C 
ATOM     14  C   UNL     1      34.069 -24.090 -13.705  0.00  0.00    +0.002 C 
ENDBRANCH   1  13
TORSDOF 3
ENDMDL
MODEL 7
REMARK VINA RESULT:      -5.8      2.477      4.540
REMARK  Name = 59708
REMARK  3 active torsions:
REMARK  status: ('A' for Active; 'I' for Inactive)
REMARK    1  A    between atoms: C_1  and  N_3
REMARK    2  A    between atoms: C_1  and  C_10
REMARK    3  A    between atoms: C_1  and  C_13
REMARK                            x       y       z     vdW  Elec       q    Type
REMARK                         _______ _______ _______ _____ _____    ______ ____
ROOT
ATOM      1  C   UNL     1      34.322 -17.004 -22.278  0.00  0.00    +0.151 C 
ENDROOT
BRANCH   1   3
ATOM      2  O   UNL     1      31.921 -15.771 -20.975  0.00  0.00    -0.275 OA
ATOM      3  N   UNL     1      33.779 -15.670 -22.416  0.00  0.00    -0.273 N 
ATOM      4  C   UNL     1      34.456 -14.654 -23.186  0.00  0.00    +0.094 C 
ATOM      5  C   UNL     1      33.395 -13.584 -23.352  0.00  0.00    +0.031 C 
ATOM      6  C   UNL     1      32.544 -13.714 -22.094  0.00  0.00    +0.087 C 
ATOM      7  C   UNL     1      32.662 -15.179 -21.745  0.00  0.00    +0.226 C 
ENDBRANCH   1   3
BRANCH   1  10
ATOM      8  O   UNL     1      35.143 -16.167 -20.149  0.00  0.00    -0.274 OA
ATOM      9  N   UNL     1      35.729 -18.294 -20.789  0.00  0.00    -0.327 N 
ATOM     10  C   UNL     1      35.084 -17.087 -20.962  0.00  0.00    +0.237 C 
ATOM     11  H   UNL     1      36.252 -18.459 -19.973  0.00  0.00    +0.145 HD
ATOM     12  H   UNL     1      35.665 -18.990 -21.483  0.00  0.00    +0.145 HD
ENDBRANCH   1  10
BRANCH   1  13
ATOM     13  C   UNL     1      35.174 -17.410 -23.484  0.00  0.00    +0.029 C 
ATOM     14  C   UNL     1      34.658 -18.635 -24.231  0.00  0.00    +0.002 C 
ENDBRANCH   1  13
TORSDOF 3
ENDMDL
MODEL 8
REMARK VINA RESULT:      -5.7      7.555     10.014
REMARK  Name = 59708
REMARK  3 active torsions:
REMARK  status: ('A' for Active; 'I' for Inactive)
REMARK    1  A    between atoms: C_1  and  N_3
REMARK    2  A    between atoms: C_1  and  C_10
REMARK    3  A    between atoms: C_1  and  C_13
REMARK                            x       y       z     vdW  Elec       q    Type
REMARK                         _______ _______ _______ _____ _____    ______ ____
ROOT
ATOM      1  C   UNL     1      37.661 -24.821 -13.874  0.00  0.00    +0.151 C 
ENDROOT
BRANCH   1   3
ATOM      2  O   UNL     1      37.847 -22.401 -15.633  0.00  0.00    -0.275 OA
ATOM      3  N   UNL     1      36.661 -24.224 -14.732  0.00  0.00    -0.273 N 
ATOM      4  C   UNL     1      35.374 -24.844 -14.938  0.00  0.00    +0.094 C 
ATOM      5  C   UNL     1      34.558 -23.739 -15.579  0.00  0.00    +0.031 C 
ATOM      6  C   UNL     1      35.589 -22.921 -16.347  0.00  0.00    +0.087 C 
ATOM      7  C   UNL     1      36.851 -23.103 -15.536  0.00  0.00    +0.226 C 
ENDBRANCH   1   3
BRANCH   1  10
ATOM      8  O   UNL     1      38.223 -27.036 -14.702  0.00  0.00    -0.274 OA
ATOM      9  N   UNL     1      39.505 -25.256 -15.381  0.00  0.00    -0.327 N 
ATOM     10  C   UNL     1      38.461 -25.831 -14.687  0.00  0.00    +0.237 C 
ATOM     11  H   UNL     1      40.090 -25.815 -15.941  0.00  0.00    +0.145 HD
ATOM     12  H   UNL     1      39.665 -24.287 -15.317  0.00  0.00    +0.145 HD
ENDBRANCH   1  10
BRANCH   1  13
ATOM     13  C   UNL     1      37.050 -25.428 -12.608  0.00  0.00    +0.029 C 
ATOM     14  C   UNL     1      36.588 -24.400 -11.581  0.00  0.00    +0.002 C 
ENDBRANCH   1  13
TORSDOF 3
ENDMDL
MODEL 9
REMARK VINA RESULT:      -5.6      7.310      9.133
REMARK  Name = 59708
REMARK  3 active torsions:
REMARK  status: ('A' for Active; 'I' for Inactive)
REMARK    1  A    between atoms: C_1  and  N_3
REMARK    2  A    between atoms: C_1  and  C_10
REMARK    3  A    between atoms: C_1  and  C_13
REMARK                            x       y       z     vdW  Elec       q    Type
REMARK                         _______ _______ _______ _____ _____    ______ ____
ROOT
ATOM      1  C   UNL     1      36.770 -22.835 -15.040  0.00  0.00    +0.151 C 
ENDROOT
BRANCH   1   3
ATOM      2  O   UNL     1      36.409 -23.221 -12.089  0.00  0.00    -0.275 OA
ATOM      3  N   UNL     1      37.431 -23.757 -14.142  0.00  0.00    -0.273 N 
ATOM      4  C   UNL     1      38.347 -24.761 -14.628  0.00  0.00    +0.094 C 
ATOM      5  C   UNL     1      39.046 -25.229 -13.367  0.00  0.00    +0.031 C 
ATOM      6  C   UNL     1      37.996 -25.044 -12.277  0.00  0.00    +0.087 C 
ATOM      7  C   UNL     1      37.176 -23.879 -12.778  0.00  0.00    +0.226 C 
ENDBRANCH   1   3
BRANCH   1  10
ATOM      8  O   UNL     1      35.175 -24.297 -16.148  0.00  0.00    -0.274 OA
ATOM      9  N   UNL     1      34.376 -22.704 -14.699  0.00  0.00    -0.327 N 
ATOM     10  C   UNL     1      35.383 -23.377 -15.360  0.00  0.00    +0.237 C 
ATOM     11  H   UNL     1      33.438 -22.970 -14.831  0.00  0.00    +0.145 HD
ATOM     12  H   UNL     1      34.597 -21.959 -14.095  0.00  0.00    +0.145 HD
ENDBRANCH   1  10
BRANCH   1  13
ATOM     13  C   UNL     1      37.602 -22.553 -16.294  0.00  0.00    +0.029 C 
ATOM     14  C   UNL     1      36.962 -21.560 -17.259  0.00  0.00    +0.002 C 
ENDBRANCH   1  13
TORSDOF 3
ENDMDL
