MODEL 1
REMARK VINA RESULT:      -9.8      0.000      0.000
REMARK  Name = 1235170
REMARK  4 active torsions:
REMARK  status: ('A' for Active; 'I' for Inactive)
REMARK    1  A    between atoms: C_3  and  C_10
REMARK    2  A    between atoms: C_4  and  C_18
REMARK    3  A    between atoms: C_6  and  C_25
REMARK    4  A    between atoms: C_11  and  O_16
REMARK                            x       y       z     vdW  Elec       q    Type
REMARK                         _______ _______ _______ _____ _____    ______ ____
ROOT
ATOM      1  O   UNL     1      33.254 -13.266 -27.392  0.00  0.00    -0.269 OA
ATOM      2  N   UNL     1      33.543 -11.758 -25.685  0.00  0.00    -0.280 N 
ATOM      3  C   UNL     1      33.731 -11.472 -24.353  0.00  0.00    +0.053 C 
ATOM      4  C   UNL     1      33.696 -13.866 -23.889  0.00  0.00    +0.015 C 
ATOM      5  C   UNL     1      33.812 -12.476 -23.466  0.00  0.00    +0.016 C 
ATOM      6  C   UNL     1      33.509 -14.160 -25.196  0.00  0.00    +0.122 C 
ATOM      7  C   UNL     1      33.422 -13.038 -26.195  0.00  0.00    +0.259 C 
ATOM      8  H   UNL     1      33.492 -11.003 -26.316  0.00  0.00    +0.155 HD
ENDROOT
BRANCH   3  10
ATOM      9 BR   UNL     1      31.965  -7.561 -21.199  0.00  0.00    -0.049 Br
ATOM     10  C   UNL     1      33.854 -10.060 -23.946  0.00  0.00    +0.048 C 
ATOM     11  C   UNL     1      34.798  -9.215 -24.537  0.00  0.00    +0.135 C 
ATOM     12  C   UNL     1      33.010  -9.561 -22.949  0.00  0.00    +0.011 C 
ATOM     13  C   UNL     1      34.896  -7.883 -24.135  0.00  0.00    +0.037 C 
ATOM     14  C   UNL     1      33.108  -8.229 -22.548  0.00  0.00    +0.035 C 
ATOM     15  C   UNL     1      34.051  -7.390 -23.141  0.00  0.00    +0.010 C 
BRANCH  11  16
ATOM     16  O   UNL     1      35.635  -9.671 -25.511  0.00  0.00    -0.505 OA
ATOM     17  H   UNL     1      36.540  -9.422 -25.505  0.00  0.00    +0.292 HD
ENDBRANCH  11  16
ENDBRANCH   3  10
BRANCH   4  18
ATOM     18  C   UNL     1      33.784 -14.950 -22.885  0.00  0.00    +0.001 C 
ATOM     19  C   UNL     1      34.856 -15.835 -22.917  0.00  0.00    +0.000 C 
ATOM     20  C   UNL     1      32.793 -15.073 -21.916  0.00  0.00    +0.000 C 
ATOM     21  C   UNL     1      34.939 -16.855 -21.971  0.00  0.00    +0.000 C 
ATOM     22  C   UNL     1      32.877 -16.093 -20.969  0.00  0.00    +0.000 C 
ATOM     23  C   UNL     1      33.949 -16.985 -20.996  0.00  0.00    +0.000 C 
ENDBRANCH   4  18
BRANCH   6  25
ATOM     24  N   UNL     1      33.292 -16.585 -26.075  0.00  0.00    -0.191 NA
ATOM     25  C   UNL     1      33.389 -15.498 -25.680  0.00  0.00    +0.105 C 
ENDBRANCH   6  25
TORSDOF 4
ENDMDL
MODEL 2
REMARK VINA RESULT:      -9.3      4.273      7.653
REMARK  Name = 1235170
REMARK  4 active torsions:
REMARK  status: ('A' for Active; 'I' for Inactive)
REMARK    1  A    between atoms: C_3  and  C_10
REMARK    2  A    between atoms: C_4  and  C_18
REMARK    3  A    between atoms: C_6  and  C_25
REMARK    4  A    between atoms: C_11  and  O_16
REMARK                            x       y       z     vdW  Elec       q    Type
REMARK                         _______ _______ _______ _____ _____    ______ ____
ROOT
ATOM      1  O   UNL     1      34.717 -16.824 -25.922  0.00  0.00    -0.269 OA
ATOM      2  N   UNL     1      34.906 -17.693 -23.806  0.00  0.00    -0.280 N 
ATOM      3  C   UNL     1      34.702 -17.606 -22.447  0.00  0.00    +0.053 C 
ATOM      4  C   UNL     1      33.642 -15.438 -22.800  0.00  0.00    +0.015 C 
ATOM      5  C   UNL     1      34.089 -16.526 -21.939  0.00  0.00    +0.016 C 
ATOM      6  C   UNL     1      33.838 -15.511 -24.136  0.00  0.00    +0.122 C 
ATOM      7  C   UNL     1      34.522 -16.722 -24.712  0.00  0.00    +0.259 C 
ATOM      8  H   UNL     1      35.354 -18.498 -24.154  0.00  0.00    +0.155 HD
ENDROOT
BRANCH   3  10
ATOM      9 BR   UNL     1      33.314 -21.636 -19.255  0.00  0.00    -0.049 Br
ATOM     10  C   UNL     1      35.155 -18.720 -21.595  0.00  0.00    +0.048 C 
ATOM     11  C   UNL     1      36.514 -19.000 -21.427  0.00  0.00    +0.135 C 
ATOM     12  C   UNL     1      34.202 -19.511 -20.943  0.00  0.00    +0.011 C 
ATOM     13  C   UNL     1      36.917 -20.061 -20.616  0.00  0.00    +0.037 C 
ATOM     14  C   UNL     1      34.606 -20.570 -20.132  0.00  0.00    +0.035 C 
ATOM     15  C   UNL     1      35.963 -20.846 -19.968  0.00  0.00    +0.010 C 
BRANCH  11  16
ATOM     16  O   UNL     1      37.467 -18.250 -22.049  0.00  0.00    -0.505 OA
ATOM     17  H   UNL     1      37.478 -18.188 -22.985  0.00  0.00    +0.292 HD
ENDBRANCH  11  16
ENDBRANCH   3  10
BRANCH   4  18
ATOM     18  C   UNL     1      32.974 -14.258 -22.206  0.00  0.00    +0.001 C 
ATOM     19  C   UNL     1      32.555 -13.218 -23.027  0.00  0.00    +0.000 C 
ATOM     20  C   UNL     1      32.772 -14.201 -20.831  0.00  0.00    +0.000 C 
ATOM     21  C   UNL     1      31.925 -12.107 -22.468  0.00  0.00    +0.000 C 
ATOM     22  C   UNL     1      32.142 -13.089 -20.271  0.00  0.00    +0.000 C 
ATOM     23  C   UNL     1      31.719 -12.041 -21.090  0.00  0.00    +0.000 C 
ENDBRANCH   4  18
BRANCH   6  25
ATOM     24  N   UNL     1      33.089 -13.650 -25.771  0.00  0.00    -0.191 NA
ATOM     25  C   UNL     1      33.425 -14.484 -25.038  0.00  0.00    +0.105 C 
ENDBRANCH   6  25
TORSDOF 4
ENDMDL
MODEL 3
REMARK VINA RESULT:      -9.2      1.813      2.548
REMARK  Name = 1235170
REMARK  4 active torsions:
REMARK  status: ('A' for Active; 'I' for Inactive)
REMARK    1  A    between atoms: C_3  and  C_10
REMARK    2  A    between atoms: C_4  and  C_18
REMARK    3  A    between atoms: C_6  and  C_25
REMARK    4  A    between atoms: C_11  and  O_16
REMARK                            x       y       z     vdW  Elec       q    Type
REMARK                         _______ _______ _______ _____ _____    ______ ____
ROOT
ATOM      1  O   UNL     1      33.353 -15.229 -26.863  0.00  0.00    -0.269 OA
ATOM      2  N   UNL     1      33.163 -13.871 -25.021  0.00  0.00    -0.280 N 
ATOM      3  C   UNL     1      33.279 -13.659 -23.666  0.00  0.00    +0.053 C 
ATOM      4  C   UNL     1      34.063 -15.956 -23.429  0.00  0.00    +0.015 C 
ATOM      5  C   UNL     1      33.716 -14.653 -22.877  0.00  0.00    +0.016 C 
ATOM      6  C   UNL     1      33.952 -16.178 -24.759  0.00  0.00    +0.122 C 
ATOM      7  C   UNL     1      33.466 -15.065 -25.649  0.00  0.00    +0.259 C 
ATOM      8  H   UNL     1      32.844 -13.124 -25.579  0.00  0.00    +0.155 HD
ENDROOT
BRANCH   3  10
ATOM      9 BR   UNL     1      30.880 -10.894 -19.799  0.00  0.00    -0.049 Br
ATOM     10  C   UNL     1      32.931 -12.331 -23.129  0.00  0.00    +0.048 C 
ATOM     11  C   UNL     1      33.315 -11.159 -23.787  0.00  0.00    +0.135 C 
ATOM     12  C   UNL     1      32.203 -12.247 -21.938  0.00  0.00    +0.011 C 
ATOM     13  C   UNL     1      32.974  -9.914 -23.258  0.00  0.00    +0.037 C 
ATOM     14  C   UNL     1      31.862 -11.001 -21.411  0.00  0.00    +0.035 C 
ATOM     15  C   UNL     1      32.248  -9.835 -22.070  0.00  0.00    +0.010 C 
BRANCH  11  16
ATOM     16  O   UNL     1      34.025 -11.208 -24.949  0.00  0.00    -0.505 OA
ATOM     17  H   UNL     1      34.541 -11.964 -25.152  0.00  0.00    +0.292 HD
ENDBRANCH  11  16
ENDBRANCH   3  10
BRANCH   4  18
ATOM     18  C   UNL     1      34.537 -17.032 -22.530  0.00  0.00    +0.001 C 
ATOM     19  C   UNL     1      35.878 -17.400 -22.541  0.00  0.00    +0.000 C 
ATOM     20  C   UNL     1      33.636 -17.666 -21.680  0.00  0.00    +0.000 C 
ATOM     21  C   UNL     1      36.324 -18.413 -21.694  0.00  0.00    +0.000 C 
ATOM     22  C   UNL     1      34.082 -18.680 -20.832  0.00  0.00    +0.000 C 
ATOM     23  C   UNL     1      35.427 -19.054 -20.839  0.00  0.00    +0.000 C 
ENDBRANCH   4  18
BRANCH   6  25
ATOM     24  N   UNL     1      34.540 -18.444 -25.860  0.00  0.00    -0.191 NA
ATOM     25  C   UNL     1      34.276 -17.428 -25.367  0.00  0.00    +0.105 C 
ENDBRANCH   6  25
TORSDOF 4
ENDMDL
MODEL 4
REMARK VINA RESULT:      -9.1      2.507      3.351
REMARK  Name = 1235170
REMARK  4 active torsions:
REMARK  status: ('A' for Active; 'I' for Inactive)
REMARK    1  A    between atoms: C_3  and  C_10
REMARK    2  A    between atoms: C_4  and  C_18
REMARK    3  A    between atoms: C_6  and  C_25
REMARK    4  A    between atoms: C_11  and  O_16
REMARK                            x       y       z     vdW  Elec       q    Type
REMARK                         _______ _______ _______ _____ _____    ______ ____
ROOT
ATOM      1  O   UNL     1      31.399 -12.129 -20.112  0.00  0.00    -0.269 OA
ATOM      2  N   UNL     1      32.280 -10.801 -21.764  0.00  0.00    -0.280 N 
ATOM      3  C   UNL     1      32.947 -10.652 -22.959  0.00  0.00    +0.053 C 
ATOM      4  C   UNL     1      33.112 -13.080 -23.109  0.00  0.00    +0.015 C 
ATOM      5  C   UNL     1      33.355 -11.740 -23.629  0.00  0.00    +0.016 C 
ATOM      6  C   UNL     1      32.460 -13.241 -21.935  0.00  0.00    +0.122 C 
ATOM      7  C   UNL     1      31.996 -12.022 -21.182  0.00  0.00    +0.259 C 
ATOM      8  H   UNL     1      31.987  -9.987 -21.295  0.00  0.00    +0.155 HD
ENDROOT
BRANCH   3  10
ATOM      9 BR   UNL     1      30.888  -5.834 -23.910  0.00  0.00    -0.049 Br
ATOM     10  C   UNL     1      33.175  -9.288 -23.472  0.00  0.00    +0.048 C 
ATOM     11  C   UNL     1      34.422  -8.901 -23.971  0.00  0.00    +0.135 C 
ATOM     12  C   UNL     1      32.122  -8.368 -23.456  0.00  0.00    +0.011 C 
ATOM     13  C   UNL     1      34.614  -7.604 -24.450  0.00  0.00    +0.037 C 
ATOM     14  C   UNL     1      32.314  -7.073 -23.936  0.00  0.00    +0.035 C 
ATOM     15  C   UNL     1      33.560  -6.691 -24.433  0.00  0.00    +0.010 C 
BRANCH  11  16
ATOM     16  O   UNL     1      35.469  -9.773 -23.999  0.00  0.00    -0.505 OA
ATOM     17  H   UNL     1      36.308  -9.509 -23.673  0.00  0.00    +0.292 HD
ENDBRANCH  11  16
ENDBRANCH   3  10
BRANCH   4  18
ATOM     18  C   UNL     1      33.581 -14.260 -23.870  0.00  0.00    +0.001 C 
ATOM     19  C   UNL     1      34.545 -15.097 -23.320  0.00  0.00    +0.000 C 
ATOM     20  C   UNL     1      33.053 -14.521 -25.131  0.00  0.00    +0.000 C 
ATOM     21  C   UNL     1      34.987 -16.208 -24.037  0.00  0.00    +0.000 C 
ATOM     22  C   UNL     1      33.494 -15.633 -25.848  0.00  0.00    +0.000 C 
ATOM     23  C   UNL     1      34.462 -16.477 -25.301  0.00  0.00    +0.000 C 
ENDBRANCH   4  18
BRANCH   6  25
ATOM     24  N   UNL     1      31.966 -15.564 -20.908  0.00  0.00    -0.191 NA
ATOM     25  C   UNL     1      32.187 -14.522 -21.368  0.00  0.00    +0.105 C 
ENDBRANCH   6  25
TORSDOF 4
ENDMDL
MODEL 5
REMARK VINA RESULT:      -8.8     11.626     15.386
REMARK  Name = 1235170
REMARK  4 active torsions:
REMARK  status: ('A' for Active; 'I' for Inactive)
REMARK    1  A    between atoms: C_3  and  C_10
REMARK    2  A    between atoms: C_4  and  C_18
REMARK    3  A    between atoms: C_6  and  C_25
REMARK    4  A    between atoms: C_11  and  O_16
REMARK                            x       y       z     vdW  Elec       q    Type
REMARK                         _______ _______ _______ _____ _____    ______ ____
ROOT
ATOM      1  O   UNL     1      31.610 -24.363 -14.200  0.00  0.00    -0.269 OA
ATOM      2  N   UNL     1      33.894 -24.569 -14.091  0.00  0.00    -0.280 N 
ATOM      3  C   UNL     1      35.147 -24.343 -14.613  0.00  0.00    +0.053 C 
ATOM      4  C   UNL     1      34.102 -23.180 -16.484  0.00  0.00    +0.015 C 
ATOM      5  C   UNL     1      35.272 -23.670 -15.767  0.00  0.00    +0.016 C 
ATOM      6  C   UNL     1      32.864 -23.397 -15.983  0.00  0.00    +0.122 C 
ATOM      7  C   UNL     1      32.719 -24.147 -14.686  0.00  0.00    +0.259 C 
ATOM      8  H   UNL     1      33.830 -25.061 -13.240  0.00  0.00    +0.155 HD
ENDROOT
BRANCH   3  10
ATOM      9 BR   UNL     1      40.302 -25.672 -14.764  0.00  0.00    -0.049 Br
ATOM     10  C   UNL     1      36.319 -24.840 -13.868  0.00  0.00    +0.048 C 
ATOM     11  C   UNL     1      36.234 -25.155 -12.509  0.00  0.00    +0.135 C 
ATOM     12  C   UNL     1      37.537 -24.996 -14.537  0.00  0.00    +0.011 C 
ATOM     13  C   UNL     1      37.357 -25.622 -11.825  0.00  0.00    +0.037 C 
ATOM     14  C   UNL     1      38.659 -25.464 -13.854  0.00  0.00    +0.035 C 
ATOM     15  C   UNL     1      38.569 -25.777 -12.498  0.00  0.00    +0.010 C 
BRANCH  11  16
ATOM     16  O   UNL     1      35.063 -25.013 -11.827  0.00  0.00    -0.505 OA
ATOM     17  H   UNL     1      34.730 -25.723 -11.313  0.00  0.00    +0.292 HD
ENDBRANCH  11  16
ENDBRANCH   3  10
BRANCH   4  18
ATOM     18  C   UNL     1      34.275 -22.447 -17.758  0.00  0.00    +0.001 C 
ATOM     19  C   UNL     1      33.173 -22.212 -18.573  0.00  0.00    +0.000 C 
ATOM     20  C   UNL     1      35.538 -21.999 -18.129  0.00  0.00    +0.000 C 
ATOM     21  C   UNL     1      33.336 -21.521 -19.772  0.00  0.00    +0.000 C 
ATOM     22  C   UNL     1      35.701 -21.307 -19.329  0.00  0.00    +0.000 C 
ATOM     23  C   UNL     1      34.599 -21.068 -20.152  0.00  0.00    +0.000 C 
ENDBRANCH   4  18
BRANCH   6  25
ATOM     24  N   UNL     1      30.709 -22.576 -17.157  0.00  0.00    -0.191 NA
ATOM     25  C   UNL     1      31.675 -22.944 -16.631  0.00  0.00    +0.105 C 
ENDBRANCH   6  25
TORSDOF 4
ENDMDL
MODEL 6
REMARK VINA RESULT:      -8.7     10.467     13.352
REMARK  Name = 1235170
REMARK  4 active torsions:
REMARK  status: ('A' for Active; 'I' for Inactive)
REMARK    1  A    between atoms: C_3  and  C_10
REMARK    2  A    between atoms: C_4  and  C_18
REMARK    3  A    between atoms: C_6  and  C_25
REMARK    4  A    between atoms: C_11  and  O_16
REMARK                            x       y       z     vdW  Elec       q    Type
REMARK                         _______ _______ _______ _____ _____    ______ ____
ROOT
ATOM      1  O   UNL     1      34.918 -24.618 -14.302  0.00  0.00    -0.269 OA
ATOM      2  N   UNL     1      34.813 -23.350 -16.213  0.00  0.00    -0.280 N 
ATOM      3  C   UNL     1      34.089 -22.689 -17.179  0.00  0.00    +0.053 C 
ATOM      4  C   UNL     1      32.044 -23.378 -16.042  0.00  0.00    +0.015 C 
ATOM      5  C   UNL     1      32.748 -22.686 -17.114  0.00  0.00    +0.016 C 
ATOM      6  C   UNL     1      32.744 -24.032 -15.087  0.00  0.00    +0.122 C 
ATOM      7  C   UNL     1      34.248 -24.035 -15.153  0.00  0.00    +0.259 C 
ATOM      8  H   UNL     1      35.795 -23.333 -16.280  0.00  0.00    +0.155 HD
ENDROOT
BRANCH   3  10
ATOM      9 BR   UNL     1      33.787 -19.733 -21.598  0.00  0.00    -0.049 Br
ATOM     10  C   UNL     1      34.820 -21.989 -18.251  0.00  0.00    +0.048 C 
ATOM     11  C   UNL     1      36.217 -21.987 -18.294  0.00  0.00    +0.135 C 
ATOM     12  C   UNL     1      34.098 -21.315 -19.241  0.00  0.00    +0.011 C 
ATOM     13  C   UNL     1      36.886 -21.317 -19.318  0.00  0.00    +0.037 C 
ATOM     14  C   UNL     1      34.768 -20.645 -20.264  0.00  0.00    +0.035 C 
ATOM     15  C   UNL     1      36.162 -20.646 -20.303  0.00  0.00    +0.010 C 
BRANCH  11  16
ATOM     16  O   UNL     1      36.949 -22.634 -17.344  0.00  0.00    -0.505 OA
ATOM     17  H   UNL     1      37.391 -23.434 -17.557  0.00  0.00    +0.292 HD
ENDBRANCH  11  16
ENDBRANCH   3  10
BRANCH   4  18
ATOM     18  C   UNL     1      30.565 -23.359 -16.003  0.00  0.00    +0.001 C 
ATOM     19  C   UNL     1      29.903 -22.282 -15.425  0.00  0.00    +0.000 C 
ATOM     20  C   UNL     1      29.849 -24.422 -16.545  0.00  0.00    +0.000 C 
ATOM     21  C   UNL     1      28.510 -22.265 -15.389  0.00  0.00    +0.000 C 
ATOM     22  C   UNL     1      28.454 -24.404 -16.509  0.00  0.00    +0.000 C 
ATOM     23  C   UNL     1      27.784 -23.326 -15.930  0.00  0.00    +0.000 C 
ENDBRANCH   4  18
BRANCH   6  25
ATOM     24  N   UNL     1      31.613 -25.293 -13.131  0.00  0.00    -0.191 NA
ATOM     25  C   UNL     1      32.120 -24.728 -14.008  0.00  0.00    +0.105 C 
ENDBRANCH   6  25
TORSDOF 4
ENDMDL
MODEL 7
REMARK VINA RESULT:      -8.6     11.305     14.364
REMARK  Name = 1235170
REMARK  4 active torsions:
REMARK  status: ('A' for Active; 'I' for Inactive)
REMARK    1  A    between atoms: C_3  and  C_10
REMARK    2  A    between atoms: C_4  and  C_18
REMARK    3  A    between atoms: C_6  and  C_25
REMARK    4  A    between atoms: C_11  and  O_16
REMARK                            x       y       z     vdW  Elec       q    Type
REMARK                         _______ _______ _______ _____ _____    ______ ____
ROOT
ATOM      1  O   UNL     1      35.801 -24.082 -13.787  0.00  0.00    -0.269 OA
ATOM      2  N   UNL     1      33.667 -23.999 -14.628  0.00  0.00    -0.280 N 
ATOM      3  C   UNL     1      32.777 -23.647 -15.617  0.00  0.00    +0.053 C 
ATOM      4  C   UNL     1      34.641 -22.728 -16.893  0.00  0.00    +0.015 C 
ATOM      5  C   UNL     1      33.226 -23.035 -16.724  0.00  0.00    +0.016 C 
ATOM      6  C   UNL     1      35.525 -23.067 -15.927  0.00  0.00    +0.122 C 
ATOM      7  C   UNL     1      35.027 -23.758 -14.686  0.00  0.00    +0.259 C 
ATOM      8  H   UNL     1      33.312 -24.451 -13.828  0.00  0.00    +0.155 HD
ENDROOT
BRANCH   3  10
ATOM      9 BR   UNL     1      27.740 -22.635 -17.021  0.00  0.00    -0.049 Br
ATOM     10  C   UNL     1      31.351 -23.974 -15.430  0.00  0.00    +0.048 C 
ATOM     11  C   UNL     1      30.946 -24.960 -14.527  0.00  0.00    +0.135 C 
ATOM     12  C   UNL     1      30.390 -23.281 -16.173  0.00  0.00    +0.011 C 
ATOM     13  C   UNL     1      29.591 -25.252 -14.368  0.00  0.00    +0.037 C 
ATOM     14  C   UNL     1      29.035 -23.573 -16.013  0.00  0.00    +0.035 C 
ATOM     15  C   UNL     1      28.636 -24.558 -15.111  0.00  0.00    +0.010 C 
BRANCH  11  16
ATOM     16  O   UNL     1      31.858 -25.653 -13.788  0.00  0.00    -0.505 OA
ATOM     17  H   UNL     1      31.855 -25.582 -12.853  0.00  0.00    +0.292 HD
ENDBRANCH  11  16
ENDBRANCH   3  10
BRANCH   4  18
ATOM     18  C   UNL     1      35.102 -22.047 -18.123  0.00  0.00    +0.001 C 
ATOM     19  C   UNL     1      36.444 -21.712 -18.264  0.00  0.00    +0.000 C 
ATOM     20  C   UNL     1      34.189 -21.747 -19.129  0.00  0.00    +0.000 C 
ATOM     21  C   UNL     1      36.879 -21.070 -19.423  0.00  0.00    +0.000 C 
ATOM     22  C   UNL     1      34.624 -21.106 -20.288  0.00  0.00    +0.000 C 
ATOM     23  C   UNL     1      35.970 -20.766 -20.435  0.00  0.00    +0.000 C 
ENDBRANCH   4  18
BRANCH   6  25
ATOM     24  N   UNL     1      38.060 -22.580 -16.110  0.00  0.00    -0.191 NA
ATOM     25  C   UNL     1      36.924 -22.799 -16.028  0.00  0.00    +0.105 C 
ENDBRANCH   6  25
TORSDOF 4
ENDMDL
MODEL 8
REMARK VINA RESULT:      -8.5      4.368      7.628
REMARK  Name = 1235170
REMARK  4 active torsions:
REMARK  status: ('A' for Active; 'I' for Inactive)
REMARK    1  A    between atoms: C_3  and  C_10
REMARK    2  A    between atoms: C_4  and  C_18
REMARK    3  A    between atoms: C_6  and  C_25
REMARK    4  A    between atoms: C_11  and  O_16
REMARK                            x       y       z     vdW  Elec       q    Type
REMARK                         _______ _______ _______ _____ _____    ______ ____
ROOT
ATOM      1  O   UNL     1      32.264 -13.679 -19.871  0.00  0.00    -0.269 OA
ATOM      2  N   UNL     1      33.280 -15.538 -20.754  0.00  0.00    -0.280 N 
ATOM      3  C   UNL     1      33.819 -16.222 -21.820  0.00  0.00    +0.053 C 
ATOM      4  C   UNL     1      33.299 -14.309 -23.241  0.00  0.00    +0.015 C 
ATOM      5  C   UNL     1      33.842 -15.645 -23.032  0.00  0.00    +0.016 C 
ATOM      6  C   UNL     1      32.765 -13.627 -22.202  0.00  0.00    +0.122 C 
ATOM      7  C   UNL     1      32.740 -14.268 -20.840  0.00  0.00    +0.259 C 
ATOM      8  H   UNL     1      33.279 -15.982 -19.875  0.00  0.00    +0.155 HD
ENDROOT
BRANCH   3  10
ATOM      9 BR   UNL     1      33.062 -21.056 -19.717  0.00  0.00    -0.049 Br
ATOM     10  C   UNL     1      34.371 -17.569 -21.586  0.00  0.00    +0.048 C 
ATOM     11  C   UNL     1      35.642 -17.922 -22.047  0.00  0.00    +0.135 C 
ATOM     12  C   UNL     1      33.604 -18.509 -20.890  0.00  0.00    +0.011 C 
ATOM     13  C   UNL     1      36.142 -19.203 -21.814  0.00  0.00    +0.037 C 
ATOM     14  C   UNL     1      34.105 -19.789 -20.657  0.00  0.00    +0.035 C 
ATOM     15  C   UNL     1      35.373 -20.137 -21.118  0.00  0.00    +0.010 C 
BRANCH  11  16
ATOM     16  O   UNL     1      36.414 -17.030 -22.729  0.00  0.00    -0.505 OA
ATOM     17  H   UNL     1      36.211 -16.819 -23.620  0.00  0.00    +0.292 HD
ENDBRANCH  11  16
ENDBRANCH   3  10
BRANCH   4  18
ATOM     18  C   UNL     1      33.335 -13.705 -24.591  0.00  0.00    +0.001 C 
ATOM     19  C   UNL     1      33.895 -12.444 -24.768  0.00  0.00    +0.000 C 
ATOM     20  C   UNL     1      32.809 -14.403 -25.673  0.00  0.00    +0.000 C 
ATOM     21  C   UNL     1      33.930 -11.875 -26.040  0.00  0.00    +0.000 C 
ATOM     22  C   UNL     1      32.844 -13.834 -26.946  0.00  0.00    +0.000 C 
ATOM     23  C   UNL     1      33.404 -12.569 -27.130  0.00  0.00    +0.000 C 
ENDBRANCH   4  18
BRANCH   6  25
ATOM     24  N   UNL     1      31.772 -11.250 -22.442  0.00  0.00    -0.191 NA
ATOM     25  C   UNL     1      32.217 -12.316 -22.334  0.00  0.00    +0.105 C 
ENDBRANCH   6  25
TORSDOF 4
ENDMDL
MODEL 9
REMARK VINA RESULT:      -8.3      3.716      7.857
REMARK  Name = 1235170
REMARK  4 active torsions:
REMARK  status: ('A' for Active; 'I' for Inactive)
REMARK    1  A    between atoms: C_3  and  C_10
REMARK    2  A    between atoms: C_4  and  C_18
REMARK    3  A    between atoms: C_6  and  C_25
REMARK    4  A    between atoms: C_11  and  O_16
REMARK                            x       y       z     vdW  Elec       q    Type
REMARK                         _______ _______ _______ _____ _____    ______ ____
ROOT
ATOM      1  O   UNL     1      31.412  -9.422 -19.526  0.00  0.00    -0.269 OA
ATOM      2  N   UNL     1      32.060 -10.902 -21.156  0.00  0.00    -0.280 N 
ATOM      3  C   UNL     1      32.536 -11.166 -22.420  0.00  0.00    +0.053 C 
ATOM      4  C   UNL     1      32.622  -8.764 -22.831  0.00  0.00    +0.015 C 
ATOM      5  C   UNL     1      32.818 -10.147 -23.247  0.00  0.00    +0.016 C 
ATOM      6  C   UNL     1      32.153  -8.491 -21.592  0.00  0.00    +0.122 C 
ATOM      7  C   UNL     1      31.839  -9.631 -20.660  0.00  0.00    +0.259 C 
ATOM      8  H   UNL     1      31.865 -11.667 -20.568  0.00  0.00    +0.155 HD
ENDROOT
BRANCH   3  10
ATOM      9 BR   UNL     1      33.336 -14.611 -26.401  0.00  0.00    -0.049 Br
ATOM     10  C   UNL     1      32.735 -12.571 -22.818  0.00  0.00    +0.048 C 
ATOM     11  C   UNL     1      32.755 -13.598 -21.870  0.00  0.00    +0.135 C 
ATOM     12  C   UNL     1      32.909 -12.879 -24.171  0.00  0.00    +0.011 C 
ATOM     13  C   UNL     1      32.946 -14.920 -22.271  0.00  0.00    +0.037 C 
ATOM     14  C   UNL     1      33.100 -14.202 -24.571  0.00  0.00    +0.035 C 
ATOM     15  C   UNL     1      33.118 -15.222 -23.621  0.00  0.00    +0.010 C 
BRANCH  11  16
ATOM     16  O   UNL     1      32.589 -13.331 -20.544  0.00  0.00    -0.505 OA
ATOM     17  H   UNL     1      32.462 -14.034 -19.936  0.00  0.00    +0.292 HD
ENDBRANCH  11  16
ENDBRANCH   3  10
BRANCH   4  18
ATOM     18  C   UNL     1      32.938  -7.663 -23.769  0.00  0.00    +0.001 C 
ATOM     19  C   UNL     1      31.918  -6.843 -24.239  0.00  0.00    +0.000 C 
ATOM     20  C   UNL     1      34.253  -7.459 -24.174  0.00  0.00    +0.000 C 
ATOM     21  C   UNL     1      32.215  -5.806 -25.122  0.00  0.00    +0.000 C 
ATOM     22  C   UNL     1      34.551  -6.421 -25.057  0.00  0.00    +0.000 C 
ATOM     23  C   UNL     1      33.531  -5.595 -25.532  0.00  0.00    +0.000 C 
ENDBRANCH   4  18
BRANCH   6  25
ATOM     24  N   UNL     1      31.764  -6.080 -20.735  0.00  0.00    -0.191 NA
ATOM     25  C   UNL     1      31.939  -7.161 -21.119  0.00  0.00    +0.105 C 
ENDBRANCH   6  25
TORSDOF 4
ENDMDL
