MODEL 1
REMARK VINA RESULT:     -11.0      0.000      0.000
REMARK  Name = 15942657
REMARK  6 active torsions:
REMARK  status: ('A' for Active; 'I' for Inactive)
REMARK    1  A    between atoms: C_2  and  C_8
REMARK    2  A    between atoms: C_3  and  N_17
REMARK    3  A    between atoms: C_11  and  O_14
REMARK    4  A    between atoms: C_18  and  C_21
REMARK    5  A    between atoms: C_22  and  C_26
REMARK    6  A    between atoms: C_26  and  O_27
REMARK                            x       y       z     vdW  Elec       q    Type
REMARK                         _______ _______ _______ _____ _____    ______ ____
ROOT
ATOM      1  F   UNL     1      33.480 -21.693 -19.238  0.00  0.00    -0.203 F 
ATOM      2  C   UNL     1      35.311 -19.457 -21.444  0.00  0.00    +0.002 C 
ATOM      3  C   UNL     1      35.800 -21.190 -19.314  0.00  0.00    +0.078 C 
ATOM      4  C   UNL     1      34.256 -20.158 -20.859  0.00  0.00    +0.031 C 
ATOM      5  C   UNL     1      36.610 -19.623 -20.964  0.00  0.00    +0.001 C 
ATOM      6  C   UNL     1      34.502 -21.024 -19.793  0.00  0.00    +0.153 C 
ATOM      7  C   UNL     1      36.856 -20.490 -19.898  0.00  0.00    +0.017 C 
ENDROOT
BRANCH   2   8
ATOM      8  C   UNL     1      35.058 -18.559 -22.550  0.00  0.00    +0.003 C 
ATOM      9  C   UNL     1      35.128 -17.179 -22.358  0.00  0.00    +0.037 C 
ATOM     10  C   UNL     1      34.744 -19.073 -23.808  0.00  0.00    +0.000 C 
ATOM     11  C   UNL     1      34.885 -16.314 -23.424  0.00  0.00    +0.139 C 
ATOM     12  C   UNL     1      34.499 -18.207 -24.874  0.00  0.00    +0.003 C 
ATOM     13  C   UNL     1      34.570 -16.828 -24.682  0.00  0.00    +0.037 C 
BRANCH  11  14
ATOM     14  O   UNL     1      34.953 -14.967 -23.238  0.00  0.00    -0.471 OA
ATOM     15  C   UNL     1      33.821 -14.198 -23.639  0.00  0.00    +0.252 C 
ENDBRANCH  11  14
ENDBRANCH   2   8
BRANCH   3  17
ATOM     16  O   UNL     1      37.321 -20.737 -16.796  0.00  0.00    -0.270 OA
ATOM     17  N   UNL     1      36.047 -22.055 -18.247  0.00  0.00    -0.279 N 
ATOM     18  C   UNL     1      36.774 -21.801 -17.069  0.00  0.00    +0.250 C 
ATOM     19  H   UNL     1      35.664 -22.958 -18.328  0.00  0.00    +0.155 HD
BRANCH  18  21
ATOM     20  S   UNL     1      36.056 -24.756 -14.533  0.00  0.00    -0.080 S 
ATOM     21  C   UNL     1      36.816 -22.919 -16.112  0.00  0.00    +0.066 C 
ATOM     22  C   UNL     1      35.682 -23.486 -15.617  0.00  0.00    +0.109 C 
ATOM     23  C   UNL     1      38.006 -23.493 -15.631  0.00  0.00    +0.012 C 
ATOM     24  C   UNL     1      37.738 -24.518 -14.751  0.00  0.00    +0.036 C 
BRANCH  22  26
ATOM     25  O   UNL     1      33.677 -23.352 -16.924  0.00  0.00    -0.245 OA
ATOM     26  C   UNL     1      34.307 -23.184 -15.864  0.00  0.00    +0.344 C 
BRANCH  26  27
ATOM     27  O   UNL     1      33.671 -22.652 -14.771  0.00  0.00    -0.477 OA
ATOM     28  H   UNL     1      32.978 -23.126 -14.355  0.00  0.00    +0.295 HD
ENDBRANCH  26  27
ENDBRANCH  22  26
ENDBRANCH  18  21
ENDBRANCH   3  17
TORSDOF 6
ENDMDL
MODEL 2
REMARK VINA RESULT:     -10.6      4.773     10.064
REMARK  Name = 15942657
REMARK  6 active torsions:
REMARK  status: ('A' for Active; 'I' for Inactive)
REMARK    1  A    between atoms: C_2  and  C_8
REMARK    2  A    between atoms: C_3  and  N_17
REMARK    3  A    between atoms: C_11  and  O_14
REMARK    4  A    between atoms: C_18  and  C_21
REMARK    5  A    between atoms: C_22  and  C_26
REMARK    6  A    between atoms: C_26  and  O_27
REMARK                            x       y       z     vdW  Elec       q    Type
REMARK                         _______ _______ _______ _____ _____    ______ ____
ROOT
ATOM      1  F   UNL     1      34.336 -17.829 -24.795  0.00  0.00    -0.203 F 
ATOM      2  C   UNL     1      34.859 -18.758 -21.319  0.00  0.00    +0.002 C 
ATOM      3  C   UNL     1      34.601 -16.457 -22.875  0.00  0.00    +0.078 C 
ATOM      4  C   UNL     1      34.658 -18.866 -22.696  0.00  0.00    +0.031 C 
ATOM      5  C   UNL     1      34.932 -17.500 -20.721  0.00  0.00    +0.001 C 
ATOM      6  C   UNL     1      34.529 -17.714 -23.473  0.00  0.00    +0.153 C 
ATOM      7  C   UNL     1      34.802 -16.349 -21.498  0.00  0.00    +0.017 C 
ENDROOT
BRANCH   2   8
ATOM      8  C   UNL     1      34.992 -19.952 -20.512  0.00  0.00    +0.003 C 
ATOM      9  C   UNL     1      33.853 -20.612 -20.051  0.00  0.00    +0.037 C 
ATOM     10  C   UNL     1      36.259 -20.444 -20.197  0.00  0.00    +0.000 C 
ATOM     11  C   UNL     1      33.982 -21.764 -19.274  0.00  0.00    +0.139 C 
ATOM     12  C   UNL     1      36.387 -21.595 -19.420  0.00  0.00    +0.003 C 
ATOM     13  C   UNL     1      35.248 -22.255 -18.959  0.00  0.00    +0.037 C 
BRANCH  11  14
ATOM     14  O   UNL     1      32.871 -22.409 -18.824  0.00  0.00    -0.471 OA
ATOM     15  C   UNL     1      32.993 -23.137 -17.603  0.00  0.00    +0.252 C 
ENDBRANCH  11  14
ENDBRANCH   2   8
BRANCH   3  17
ATOM     16  O   UNL     1      32.615 -14.247 -22.706  0.00  0.00    -0.270 OA
ATOM     17  N   UNL     1      34.474 -15.305 -23.651  0.00  0.00    -0.279 N 
ATOM     18  C   UNL     1      33.516 -14.279 -23.538  0.00  0.00    +0.250 C 
ATOM     19  H   UNL     1      35.138 -15.194 -24.369  0.00  0.00    +0.155 HD
BRANCH  18  21
ATOM     20  S   UNL     1      33.692 -11.850 -26.660  0.00  0.00    -0.080 S 
ATOM     21  C   UNL     1      33.681 -13.169 -24.491  0.00  0.00    +0.066 C 
ATOM     22  C   UNL     1      33.402 -13.310 -25.815  0.00  0.00    +0.109 C 
ATOM     23  C   UNL     1      34.133 -11.887 -24.129  0.00  0.00    +0.012 C 
ATOM     24  C   UNL     1      34.188 -11.056 -25.226  0.00  0.00    +0.036 C 
BRANCH  22  26
ATOM     25  O   UNL     1      33.477 -15.552 -26.661  0.00  0.00    -0.245 OA
ATOM     26  C   UNL     1      32.928 -14.440 -26.551  0.00  0.00    +0.344 C 
BRANCH  26  27
ATOM     27  O   UNL     1      31.733 -14.206 -27.181  0.00  0.00    -0.477 OA
ATOM     28  H   UNL     1      31.075 -14.873 -27.201  0.00  0.00    +0.295 HD
ENDBRANCH  26  27
ENDBRANCH  22  26
ENDBRANCH  18  21
ENDBRANCH   3  17
TORSDOF 6
ENDMDL
MODEL 3
REMARK VINA RESULT:     -10.6      6.818     12.019
REMARK  Name = 15942657
REMARK  6 active torsions:
REMARK  status: ('A' for Active; 'I' for Inactive)
REMARK    1  A    between atoms: C_2  and  C_8
REMARK    2  A    between atoms: C_3  and  N_17
REMARK    3  A    between atoms: C_11  and  O_14
REMARK    4  A    between atoms: C_18  and  C_21
REMARK    5  A    between atoms: C_22  and  C_26
REMARK    6  A    between atoms: C_26  and  O_27
REMARK                            x       y       z     vdW  Elec       q    Type
REMARK                         _______ _______ _______ _____ _____    ______ ____
ROOT
ATOM      1  F   UNL     1      31.582 -12.368 -21.017  0.00  0.00    -0.203 F 
ATOM      2  C   UNL     1      33.571 -14.283 -23.382  0.00  0.00    +0.002 C 
ATOM      3  C   UNL     1      32.715 -11.659 -22.981  0.00  0.00    +0.078 C 
ATOM      4  C   UNL     1      32.775 -13.970 -22.280  0.00  0.00    +0.031 C 
ATOM      5  C   UNL     1      33.938 -13.284 -24.284  0.00  0.00    +0.001 C 
ATOM      6  C   UNL     1      32.347 -12.657 -22.080  0.00  0.00    +0.153 C 
ATOM      7  C   UNL     1      33.511 -11.971 -24.083  0.00  0.00    +0.017 C 
ENDROOT
BRANCH   2   8
ATOM      8  C   UNL     1      34.015 -15.644 -23.590  0.00  0.00    +0.003 C 
ATOM      9  C   UNL     1      34.379 -16.433 -22.498  0.00  0.00    +0.037 C 
ATOM     10  C   UNL     1      34.079 -16.168 -24.881  0.00  0.00    +0.000 C 
ATOM     11  C   UNL     1      34.806 -17.746 -22.698  0.00  0.00    +0.139 C 
ATOM     12  C   UNL     1      34.507 -17.480 -25.081  0.00  0.00    +0.003 C 
ATOM     13  C   UNL     1      34.871 -18.269 -23.990  0.00  0.00    +0.037 C 
BRANCH  11  14
ATOM     14  O   UNL     1      35.161 -18.516 -21.634  0.00  0.00    -0.471 OA
ATOM     15  C   UNL     1      34.191 -19.446 -21.154  0.00  0.00    +0.252 C 
ENDBRANCH  11  14
ENDBRANCH   2   8
BRANCH   3  17
ATOM     16  O   UNL     1      34.150  -9.090 -23.428  0.00  0.00    -0.270 OA
ATOM     17  N   UNL     1      32.286 -10.346 -22.783  0.00  0.00    -0.279 N 
ATOM     18  C   UNL     1      32.999  -9.153 -23.008  0.00  0.00    +0.250 C 
ATOM     19  H   UNL     1      31.369 -10.239 -22.443  0.00  0.00    +0.155 HD
BRANCH  18  21
ATOM     20  S   UNL     1      31.155  -5.996 -21.488  0.00  0.00    -0.080 S 
ATOM     21  C   UNL     1      32.243  -7.918 -22.738  0.00  0.00    +0.066 C 
ATOM     22  C   UNL     1      32.074  -7.440 -21.476  0.00  0.00    +0.109 C 
ATOM     23  C   UNL     1      31.640  -7.136 -23.739  0.00  0.00    +0.012 C 
ATOM     24  C   UNL     1      31.004  -6.043 -23.193  0.00  0.00    +0.036 C 
BRANCH  22  26
ATOM     25  O   UNL     1      32.352  -9.089 -19.759  0.00  0.00    -0.245 OA
ATOM     26  C   UNL     1      32.529  -7.947 -20.220  0.00  0.00    +0.344 C 
BRANCH  26  27
ATOM     27  O   UNL     1      33.233  -7.021 -19.492  0.00  0.00    -0.477 OA
ATOM     28  H   UNL     1      33.049  -6.107 -19.594  0.00  0.00    +0.295 HD
ENDBRANCH  26  27
ENDBRANCH  22  26
ENDBRANCH  18  21
ENDBRANCH   3  17
TORSDOF 6
ENDMDL
MODEL 4
REMARK VINA RESULT:     -10.5      5.239     10.325
REMARK  Name = 15942657
REMARK  6 active torsions:
REMARK  status: ('A' for Active; 'I' for Inactive)
REMARK    1  A    between atoms: C_2  and  C_8
REMARK    2  A    between atoms: C_3  and  N_17
REMARK    3  A    between atoms: C_11  and  O_14
REMARK    4  A    between atoms: C_18  and  C_21
REMARK    5  A    between atoms: C_22  and  C_26
REMARK    6  A    between atoms: C_26  and  O_27
REMARK                            x       y       z     vdW  Elec       q    Type
REMARK                         _______ _______ _______ _____ _____    ______ ____
ROOT
ATOM      1  F   UNL     1      34.795 -15.744 -24.540  0.00  0.00    -0.203 F 
ATOM      2  C   UNL     1      34.938 -17.548 -21.386  0.00  0.00    +0.002 C 
ATOM      3  C   UNL     1      34.558 -14.945 -22.316  0.00  0.00    +0.078 C 
ATOM      4  C   UNL     1      34.961 -17.286 -22.757  0.00  0.00    +0.031 C 
ATOM      5  C   UNL     1      34.726 -16.508 -20.481  0.00  0.00    +0.001 C 
ATOM      6  C   UNL     1      34.771 -15.984 -23.221  0.00  0.00    +0.153 C 
ATOM      7  C   UNL     1      34.535 -15.206 -20.946  0.00  0.00    +0.017 C 
ENDROOT
BRANCH   2   8
ATOM      8  C   UNL     1      35.134 -18.898 -20.905  0.00  0.00    +0.003 C 
ATOM      9  C   UNL     1      34.032 -19.690 -20.583  0.00  0.00    +0.037 C 
ATOM     10  C   UNL     1      36.425 -19.408 -20.763  0.00  0.00    +0.000 C 
ATOM     11  C   UNL     1      34.221 -20.993 -20.120  0.00  0.00    +0.139 C 
ATOM     12  C   UNL     1      36.613 -20.709 -20.300  0.00  0.00    +0.003 C 
ATOM     13  C   UNL     1      35.512 -21.502 -19.978  0.00  0.00    +0.037 C 
BRANCH  11  14
ATOM     14  O   UNL     1      33.147 -21.767 -19.806  0.00  0.00    -0.471 OA
ATOM     15  C   UNL     1      33.187 -22.459 -18.559  0.00  0.00    +0.252 C 
ENDBRANCH  11  14
ENDBRANCH   2   8
BRANCH   3  17
ATOM     16  O   UNL     1      32.071 -13.570 -23.200  0.00  0.00    -0.270 OA
ATOM     17  N   UNL     1      34.370 -13.642 -22.778  0.00  0.00    -0.279 N 
ATOM     18  C   UNL     1      33.172 -13.028 -23.188  0.00  0.00    +0.250 C 
ATOM     19  H   UNL     1      35.177 -13.081 -22.824  0.00  0.00    +0.155 HD
BRANCH  18  21
ATOM     20  S   UNL     1      32.980  -9.099 -23.642  0.00  0.00    -0.080 S 
ATOM     21  C   UNL     1      33.303 -11.616 -23.586  0.00  0.00    +0.066 C 
ATOM     22  C   UNL     1      32.618 -10.624 -22.955  0.00  0.00    +0.109 C 
ATOM     23  C   UNL     1      34.132 -11.171 -24.631  0.00  0.00    +0.012 C 
ATOM     24  C   UNL     1      34.053  -9.804 -24.775  0.00  0.00    +0.036 C 
BRANCH  22  26
ATOM     25  O   UNL     1      31.833 -10.179 -20.734  0.00  0.00    -0.245 OA
ATOM     26  C   UNL     1      31.695 -10.679 -21.865  0.00  0.00    +0.344 C 
BRANCH  26  27
ATOM     27  O   UNL     1      30.551 -11.373 -22.167  0.00  0.00    -0.477 OA
ATOM     28  H   UNL     1      30.328 -11.544 -23.062  0.00  0.00    +0.295 HD
ENDBRANCH  26  27
ENDBRANCH  22  26
ENDBRANCH  18  21
ENDBRANCH   3  17
TORSDOF 6
ENDMDL
MODEL 5
REMARK VINA RESULT:     -10.5      3.322      8.965
REMARK  Name = 15942657
REMARK  6 active torsions:
REMARK  status: ('A' for Active; 'I' for Inactive)
REMARK    1  A    between atoms: C_2  and  C_8
REMARK    2  A    between atoms: C_3  and  N_17
REMARK    3  A    between atoms: C_11  and  O_14
REMARK    4  A    between atoms: C_18  and  C_21
REMARK    5  A    between atoms: C_22  and  C_26
REMARK    6  A    between atoms: C_26  and  O_27
REMARK                            x       y       z     vdW  Elec       q    Type
REMARK                         _______ _______ _______ _____ _____    ______ ____
ROOT
ATOM      1  F   UNL     1      32.788 -21.214 -20.214  0.00  0.00    -0.203 F 
ATOM      2  C   UNL     1      35.453 -22.115 -17.911  0.00  0.00    +0.002 C 
ATOM      3  C   UNL     1      35.086 -20.615 -20.235  0.00  0.00    +0.078 C 
ATOM      4  C   UNL     1      34.189 -22.035 -18.498  0.00  0.00    +0.031 C 
ATOM      5  C   UNL     1      36.533 -21.446 -18.488  0.00  0.00    +0.001 C 
ATOM      6  C   UNL     1      34.006 -21.285 -19.660  0.00  0.00    +0.153 C 
ATOM      7  C   UNL     1      36.349 -20.695 -19.649  0.00  0.00    +0.017 C 
ENDROOT
BRANCH   2   8
ATOM      8  C   UNL     1      35.643 -22.892 -16.706  0.00  0.00    +0.003 C 
ATOM      9  C   UNL     1      36.907 -22.977 -16.123  0.00  0.00    +0.037 C 
ATOM     10  C   UNL     1      34.561 -23.556 -16.126  0.00  0.00    +0.000 C 
ATOM     11  C   UNL     1      37.089 -23.725 -14.960  0.00  0.00    +0.139 C 
ATOM     12  C   UNL     1      34.745 -24.305 -14.964  0.00  0.00    +0.003 C 
ATOM     13  C   UNL     1      36.008 -24.390 -14.381  0.00  0.00    +0.037 C 
BRANCH  11  14
ATOM     14  O   UNL     1      38.323 -23.808 -14.390  0.00  0.00    -0.471 OA
ATOM     15  C   UNL     1      38.642 -25.019 -13.706  0.00  0.00    +0.252 C 
ENDBRANCH  11  14
ENDBRANCH   2   8
BRANCH   3  17
ATOM     16  O   UNL     1      35.357 -17.686 -20.684  0.00  0.00    -0.270 OA
ATOM     17  N   UNL     1      34.905 -19.866 -21.398  0.00  0.00    -0.279 N 
ATOM     18  C   UNL     1      35.044 -18.476 -21.569  0.00  0.00    +0.250 C 
ATOM     19  H   UNL     1      34.648 -20.373 -22.201  0.00  0.00    +0.155 HD
BRANCH  18  21
ATOM     20  S   UNL     1      34.285 -16.457 -24.890  0.00  0.00    -0.080 S 
ATOM     21  C   UNL     1      34.822 -17.995 -22.943  0.00  0.00    +0.066 C 
ATOM     22  C   UNL     1      34.468 -16.708 -23.207  0.00  0.00    +0.109 C 
ATOM     23  C   UNL     1      34.953 -18.804 -24.086  0.00  0.00    +0.012 C 
ATOM     24  C   UNL     1      34.686 -18.087 -25.231  0.00  0.00    +0.036 C 
BRANCH  22  26
ATOM     25  O   UNL     1      34.938 -14.581 -22.206  0.00  0.00    -0.245 OA
ATOM     26  C   UNL     1      34.242 -15.606 -22.325  0.00  0.00    +0.344 C 
BRANCH  26  27
ATOM     27  O   UNL     1      33.118 -15.759 -21.554  0.00  0.00    -0.477 OA
ATOM     28  H   UNL     1      32.444 -15.108 -21.574  0.00  0.00    +0.295 HD
ENDBRANCH  26  27
ENDBRANCH  22  26
ENDBRANCH  18  21
ENDBRANCH   3  17
TORSDOF 6
ENDMDL
MODEL 6
REMARK VINA RESULT:     -10.2      2.113      2.551
REMARK  Name = 15942657
REMARK  6 active torsions:
REMARK  status: ('A' for Active; 'I' for Inactive)
REMARK    1  A    between atoms: C_2  and  C_8
REMARK    2  A    between atoms: C_3  and  N_17
REMARK    3  A    between atoms: C_11  and  O_14
REMARK    4  A    between atoms: C_18  and  C_21
REMARK    5  A    between atoms: C_22  and  C_26
REMARK    6  A    between atoms: C_26  and  O_27
REMARK                            x       y       z     vdW  Elec       q    Type
REMARK                         _______ _______ _______ _____ _____    ______ ____
ROOT
ATOM      1  F   UNL     1      36.497 -21.289 -19.203  0.00  0.00    -0.203 F 
ATOM      2  C   UNL     1      34.383 -19.543 -21.590  0.00  0.00    +0.002 C 
ATOM      3  C   UNL     1      34.136 -21.040 -19.249  0.00  0.00    +0.078 C 
ATOM      4  C   UNL     1      35.521 -20.054 -20.965  0.00  0.00    +0.031 C 
ATOM      5  C   UNL     1      33.121 -19.782 -21.045  0.00  0.00    +0.001 C 
ATOM      6  C   UNL     1      35.396 -20.803 -19.795  0.00  0.00    +0.153 C 
ATOM      7  C   UNL     1      32.997 -20.530 -19.873  0.00  0.00    +0.017 C 
ENDROOT
BRANCH   2   8
ATOM      8  C   UNL     1      34.512 -18.767 -22.804  0.00  0.00    +0.003 C 
ATOM      9  C   UNL     1      34.557 -17.374 -22.739  0.00  0.00    +0.037 C 
ATOM     10  C   UNL     1      34.592 -19.410 -24.039  0.00  0.00    +0.000 C 
ATOM     11  C   UNL     1      34.683 -16.625 -23.909  0.00  0.00    +0.139 C 
ATOM     12  C   UNL     1      34.717 -18.661 -25.209  0.00  0.00    +0.003 C 
ATOM     13  C   UNL     1      34.762 -17.269 -25.144  0.00  0.00    +0.037 C 
BRANCH  11  14
ATOM     14  O   UNL     1      34.727 -15.266 -23.847  0.00  0.00    -0.471 OA
ATOM     15  C   UNL     1      34.433 -14.664 -22.587  0.00  0.00    +0.252 C 
ENDBRANCH  11  14
ENDBRANCH   2   8
BRANCH   3  17
ATOM     16  O   UNL     1      33.743 -23.968 -18.887  0.00  0.00    -0.270 OA
ATOM     17  N   UNL     1      34.009 -21.790 -18.079  0.00  0.00    -0.279 N 
ATOM     18  C   UNL     1      33.824 -23.179 -17.950  0.00  0.00    +0.250 C 
ATOM     19  H   UNL     1      34.055 -21.284 -17.237  0.00  0.00    +0.155 HD
BRANCH  18  21
ATOM     20  S   UNL     1      32.882 -24.256 -14.258  0.00  0.00    -0.080 S 
ATOM     21  C   UNL     1      33.769 -23.671 -16.563  0.00  0.00    +0.066 C 
ATOM     22  C   UNL     1      32.630 -23.609 -15.822  0.00  0.00    +0.109 C 
ATOM     23  C   UNL     1      34.866 -24.239 -15.891  0.00  0.00    +0.012 C 
ATOM     24  C   UNL     1      34.521 -24.608 -14.609  0.00  0.00    +0.036 C 
BRANCH  22  26
ATOM     25  O   UNL     1      30.998 -22.504 -17.186  0.00  0.00    -0.245 OA
ATOM     26  C   UNL     1      31.332 -23.109 -16.151  0.00  0.00    +0.344 C 
BRANCH  26  27
ATOM     27  O   UNL     1      30.400 -23.355 -15.176  0.00  0.00    -0.477 OA
ATOM     28  H   UNL     1      29.724 -23.988 -15.322  0.00  0.00    +0.295 HD
ENDBRANCH  26  27
ENDBRANCH  22  26
ENDBRANCH  18  21
ENDBRANCH   3  17
TORSDOF 6
ENDMDL
MODEL 7
REMARK VINA RESULT:     -10.2      6.047     10.154
REMARK  Name = 15942657
REMARK  6 active torsions:
REMARK  status: ('A' for Active; 'I' for Inactive)
REMARK    1  A    between atoms: C_2  and  C_8
REMARK    2  A    between atoms: C_3  and  N_17
REMARK    3  A    between atoms: C_11  and  O_14
REMARK    4  A    between atoms: C_18  and  C_21
REMARK    5  A    between atoms: C_22  and  C_26
REMARK    6  A    between atoms: C_26  and  O_27
REMARK                            x       y       z     vdW  Elec       q    Type
REMARK                         _______ _______ _______ _____ _____    ______ ____
ROOT
ATOM      1  F   UNL     1      31.730 -13.379 -21.866  0.00  0.00    -0.203 F 
ATOM      2  C   UNL     1      32.533 -10.035 -23.046  0.00  0.00    +0.002 C 
ATOM      3  C   UNL     1      33.215 -12.686 -23.585  0.00  0.00    +0.078 C 
ATOM      4  C   UNL     1      31.952 -11.068 -22.309  0.00  0.00    +0.031 C 
ATOM      5  C   UNL     1      33.455 -10.328 -24.051  0.00  0.00    +0.001 C 
ATOM      6  C   UNL     1      32.294 -12.394 -22.580  0.00  0.00    +0.153 C 
ATOM      7  C   UNL     1      33.796 -11.653 -24.321  0.00  0.00    +0.017 C 
ENDROOT
BRANCH   2   8
ATOM      8  C   UNL     1      32.179  -8.661 -22.766  0.00  0.00    +0.003 C 
ATOM      9  C   UNL     1      31.650  -7.858 -23.777  0.00  0.00    +0.037 C 
ATOM     10  C   UNL     1      32.364  -8.138 -21.486  0.00  0.00    +0.000 C 
ATOM     11  C   UNL     1      31.306  -6.532 -23.507  0.00  0.00    +0.139 C 
ATOM     12  C   UNL     1      32.022  -6.814 -21.217  0.00  0.00    +0.003 C 
ATOM     13  C   UNL     1      31.493  -6.011 -22.227  0.00  0.00    +0.037 C 
BRANCH  11  14
ATOM     14  O   UNL     1      30.790  -5.748 -24.492  0.00  0.00    -0.471 OA
ATOM     15  C   UNL     1      31.149  -4.368 -24.478  0.00  0.00    +0.252 C 
ENDBRANCH  11  14
ENDBRANCH   2   8
BRANCH   3  17
ATOM     16  O   UNL     1      34.981 -14.549 -22.079  0.00  0.00    -0.270 OA
ATOM     17  N   UNL     1      33.559 -14.011 -23.855  0.00  0.00    -0.279 N 
ATOM     18  C   UNL     1      34.401 -14.861 -23.115  0.00  0.00    +0.250 C 
ATOM     19  H   UNL     1      33.162 -14.401 -24.667  0.00  0.00    +0.155 HD
BRANCH  18  21
ATOM     20  S   UNL     1      34.772 -18.752 -23.748  0.00  0.00    -0.080 S 
ATOM     21  C   UNL     1      34.528 -16.228 -23.649  0.00  0.00    +0.066 C 
ATOM     22  C   UNL     1      34.642 -17.311 -22.834  0.00  0.00    +0.109 C 
ATOM     23  C   UNL     1      34.542 -16.533 -25.022  0.00  0.00    +0.012 C 
ATOM     24  C   UNL     1      34.671 -17.889 -25.224  0.00  0.00    +0.036 C 
BRANCH  22  26
ATOM     25  O   UNL     1      35.580 -17.863 -20.699  0.00  0.00    -0.245 OA
ATOM     26  C   UNL     1      34.667 -17.404 -21.408  0.00  0.00    +0.344 C 
BRANCH  26  27
ATOM     27  O   UNL     1      33.528 -16.916 -20.820  0.00  0.00    -0.477 OA
ATOM     28  H   UNL     1      33.591 -16.316 -20.102  0.00  0.00    +0.295 HD
ENDBRANCH  26  27
ENDBRANCH  22  26
ENDBRANCH  18  21
ENDBRANCH   3  17
TORSDOF 6
ENDMDL
MODEL 8
REMARK VINA RESULT:     -10.1      1.548      2.189
REMARK  Name = 15942657
REMARK  6 active torsions:
REMARK  status: ('A' for Active; 'I' for Inactive)
REMARK    1  A    between atoms: C_2  and  C_8
REMARK    2  A    between atoms: C_3  and  N_17
REMARK    3  A    between atoms: C_11  and  O_14
REMARK    4  A    between atoms: C_18  and  C_21
REMARK    5  A    between atoms: C_22  and  C_26
REMARK    6  A    between atoms: C_26  and  O_27
REMARK                            x       y       z     vdW  Elec       q    Type
REMARK                         _______ _______ _______ _____ _____    ______ ____
ROOT
ATOM      1  F   UNL     1      32.875 -21.896 -18.726  0.00  0.00    -0.203 F 
ATOM      2  C   UNL     1      35.111 -20.050 -20.920  0.00  0.00    +0.002 C 
ATOM      3  C   UNL     1      35.241 -21.689 -18.666  0.00  0.00    +0.078 C 
ATOM      4  C   UNL     1      33.940 -20.576 -20.372  0.00  0.00    +0.031 C 
ATOM      5  C   UNL     1      36.345 -20.344 -20.341  0.00  0.00    +0.001 C 
ATOM      6  C   UNL     1      34.006 -21.396 -19.244  0.00  0.00    +0.153 C 
ATOM      7  C   UNL     1      36.411 -21.164 -19.214  0.00  0.00    +0.017 C 
ENDROOT
BRANCH   2   8
ATOM      8  C   UNL     1      35.043 -19.201 -22.089  0.00  0.00    +0.003 C 
ATOM      9  C   UNL     1      35.244 -17.826 -21.965  0.00  0.00    +0.037 C 
ATOM     10  C   UNL     1      34.777 -19.757 -23.341  0.00  0.00    +0.000 C 
ATOM     11  C   UNL     1      35.180 -17.008 -23.093  0.00  0.00    +0.139 C 
ATOM     12  C   UNL     1      34.713 -18.938 -24.468  0.00  0.00    +0.003 C 
ATOM     13  C   UNL     1      34.914 -17.564 -24.344  0.00  0.00    +0.037 C 
BRANCH  11  14
ATOM     14  O   UNL     1      35.376 -15.666 -22.973  0.00  0.00    -0.471 OA
ATOM     15  C   UNL     1      34.215 -14.851 -22.823  0.00  0.00    +0.252 C 
ENDBRANCH  11  14
ENDBRANCH   2   8
BRANCH   3  17
ATOM     16  O   UNL     1      37.021 -21.524 -16.288  0.00  0.00    -0.270 OA
ATOM     17  N   UNL     1      35.308 -22.508 -17.538  0.00  0.00    -0.279 N 
ATOM     18  C   UNL     1      36.168 -22.395 -16.430  0.00  0.00    +0.250 C 
ATOM     19  H   UNL     1      34.674 -23.260 -17.514  0.00  0.00    +0.155 HD
BRANCH  18  21
ATOM     20  S   UNL     1      36.398 -25.294 -13.743  0.00  0.00    -0.080 S 
ATOM     21  C   UNL     1      35.958 -23.402 -15.376  0.00  0.00    +0.066 C 
ATOM     22  C   UNL     1      36.948 -24.245 -14.979  0.00  0.00    +0.109 C 
ATOM     23  C   UNL     1      34.739 -23.580 -14.697  0.00  0.00    +0.012 C 
ATOM     24  C   UNL     1      34.837 -24.592 -13.768  0.00  0.00    +0.036 C 
BRANCH  22  26
ATOM     25  O   UNL     1      39.088 -23.445 -15.705  0.00  0.00    -0.245 OA
ATOM     26  C   UNL     1      38.301 -24.367 -15.424  0.00  0.00    +0.344 C 
BRANCH  26  27
ATOM     27  O   UNL     1      38.714 -25.670 -15.532  0.00  0.00    -0.477 OA
ATOM     28  H   UNL     1      39.503 -25.948 -15.111  0.00  0.00    +0.295 HD
ENDBRANCH  26  27
ENDBRANCH  22  26
ENDBRANCH  18  21
ENDBRANCH   3  17
TORSDOF 6
ENDMDL
MODEL 9
REMARK VINA RESULT:     -10.0      1.640      2.808
REMARK  Name = 15942657
REMARK  6 active torsions:
REMARK  status: ('A' for Active; 'I' for Inactive)
REMARK    1  A    between atoms: C_2  and  C_8
REMARK    2  A    between atoms: C_3  and  N_17
REMARK    3  A    between atoms: C_11  and  O_14
REMARK    4  A    between atoms: C_18  and  C_21
REMARK    5  A    between atoms: C_22  and  C_26
REMARK    6  A    between atoms: C_26  and  O_27
REMARK                            x       y       z     vdW  Elec       q    Type
REMARK                         _______ _______ _______ _____ _____    ______ ____
ROOT
ATOM      1  F   UNL     1      36.121 -21.461 -19.150  0.00  0.00    -0.203 F 
ATOM      2  C   UNL     1      34.233 -19.547 -21.599  0.00  0.00    +0.002 C 
ATOM      3  C   UNL     1      33.789 -21.027 -19.276  0.00  0.00    +0.078 C 
ATOM      4  C   UNL     1      35.306 -20.148 -20.938  0.00  0.00    +0.031 C 
ATOM      5  C   UNL     1      32.939 -19.687 -21.098  0.00  0.00    +0.001 C 
ATOM      6  C   UNL     1      35.083 -20.888 -19.777  0.00  0.00    +0.153 C 
ATOM      7  C   UNL     1      32.716 -20.426 -19.935  0.00  0.00    +0.017 C 
ENDROOT
BRANCH   2   8
ATOM      8  C   UNL     1      34.465 -18.779 -22.803  0.00  0.00    +0.003 C 
ATOM      9  C   UNL     1      34.703 -17.407 -22.719  0.00  0.00    +0.037 C 
ATOM     10  C   UNL     1      34.450 -19.410 -24.047  0.00  0.00    +0.000 C 
ATOM     11  C   UNL     1      34.928 -16.667 -23.881  0.00  0.00    +0.139 C 
ATOM     12  C   UNL     1      34.674 -18.670 -25.207  0.00  0.00    +0.003 C 
ATOM     13  C   UNL     1      34.912 -17.299 -25.124  0.00  0.00    +0.037 C 
BRANCH  11  14
ATOM     14  O   UNL     1      35.161 -15.329 -23.801  0.00  0.00    -0.471 OA
ATOM     15  C   UNL     1      34.032 -14.486 -23.575  0.00  0.00    +0.252 C 
ENDBRANCH  11  14
ENDBRANCH   2   8
BRANCH   3  17
ATOM     16  O   UNL     1      33.776 -23.974 -18.860  0.00  0.00    -0.270 OA
ATOM     17  N   UNL     1      33.564 -21.768 -18.115  0.00  0.00    -0.279 N 
ATOM     18  C   UNL     1      33.567 -23.167 -17.960  0.00  0.00    +0.250 C 
ATOM     19  H   UNL     1      33.380 -21.247 -17.301  0.00  0.00    +0.155 HD
BRANCH  18  21
ATOM     20  S   UNL     1      33.764 -24.354 -14.188  0.00  0.00    -0.080 S 
ATOM     21  C   UNL     1      33.333 -23.639 -16.585  0.00  0.00    +0.066 C 
ATOM     22  C   UNL     1      34.351 -23.795 -15.695  0.00  0.00    +0.109 C 
ATOM     23  C   UNL     1      32.064 -23.965 -16.075  0.00  0.00    +0.012 C 
ATOM     24  C   UNL     1      32.151 -24.376 -14.763  0.00  0.00    +0.036 C 
BRANCH  22  26
ATOM     25  O   UNL     1      36.325 -22.484 -16.054  0.00  0.00    -0.245 OA
ATOM     26  C   UNL     1      35.755 -23.568 -15.838  0.00  0.00    +0.344 C 
BRANCH  26  27
ATOM     27  O   UNL     1      36.497 -24.715 -15.714  0.00  0.00    -0.477 OA
ATOM     28  H   UNL     1      36.089 -25.509 -15.427  0.00  0.00    +0.295 HD
ENDBRANCH  26  27
ENDBRANCH  22  26
ENDBRANCH  18  21
ENDBRANCH   3  17
TORSDOF 6
ENDMDL
