MODEL 1
REMARK VINA RESULT:     -10.6      0.000      0.000
REMARK  Name = 25023706
REMARK  5 active torsions:
REMARK  status: ('A' for Active; 'I' for Inactive)
REMARK    1  A    between atoms: N_3  and  C_25
REMARK    2  A    between atoms: C_5  and  C_18
REMARK    3  A    between atoms: C_10  and  C_15
REMARK    4  A    between atoms: C_25  and  C_26
REMARK    5  A    between atoms: C_26  and  C_29
REMARK                            x       y       z     vdW  Elec       q    Type
REMARK                         _______ _______ _______ _____ _____    ______ ____
ROOT
ATOM      1  N   UNL     1      34.365 -23.098 -16.663  0.00  0.00    -0.331 NA
ATOM      2  N   UNL     1      33.539 -24.322 -14.761  0.00  0.00    -0.283 NA
ATOM      3  N   UNL     1      32.866 -22.262 -18.272  0.00  0.00    -0.310 N 
ATOM      4  N   UNL     1      31.275 -24.708 -14.460  0.00  0.00    -0.327 NA
ATOM      5  C   UNL     1      34.514 -23.776 -15.516  0.00  0.00    +0.124 C 
ATOM      6  C   UNL     1      33.089 -22.970 -17.064  0.00  0.00    +0.189 C 
ATOM      7  C   UNL     1      32.002 -23.492 -16.366  0.00  0.00    +0.199 C 
ATOM      8  C   UNL     1      32.275 -24.182 -15.180  0.00  0.00    +0.138 C 
ATOM      9  C   UNL     1      30.677 -23.349 -16.801  0.00  0.00    +0.007 C 
ATOM     10  C   UNL     1      29.650 -23.895 -16.051  0.00  0.00    +0.095 C 
ATOM     11  C   UNL     1      30.001 -24.560 -14.896  0.00  0.00    +0.193 C 
ATOM     12  H   UNL     1      31.970 -21.893 -18.444  0.00  0.00    +0.149 HD
ATOM     13  N   UNL     1      28.968 -25.130 -14.108  0.00  0.00    -0.332 N 
ATOM     14  H   UNL     1      29.190 -25.610 -13.279  0.00  0.00    +0.145 HD
ATOM     15  H   UNL     1      28.029 -25.044 -14.392  0.00  0.00    +0.145 HD
ENDROOT
BRANCH  10  18
ATOM     16  O   UNL     1      27.754 -24.575 -17.271  0.00  0.00    -0.270 OA
ATOM     17  N   UNL     1      27.546 -22.667 -16.016  0.00  0.00    -0.325 N 
ATOM     18  C   UNL     1      28.271 -23.751 -16.498  0.00  0.00    +0.246 C 
ATOM     19  H   UNL     1      26.611 -22.537 -16.295  0.00  0.00    +0.145 HD
ATOM     20  H   UNL     1      27.967 -22.030 -15.394  0.00  0.00    +0.145 HD
ENDBRANCH  10  18
BRANCH   5  21
ATOM     21  C   UNL     1      35.910 -23.949 -15.021  0.00  0.00    +0.096 C 
ATOM     22  C   UNL     1      36.918 -23.111 -15.867  0.00  0.00    +0.017 C 
ATOM     23  C   UNL     1      36.458 -25.416 -15.055  0.00  0.00    +0.017 C 
ATOM     24  C   UNL     1      36.046 -23.489 -13.537  0.00  0.00    +0.017 C 
ENDBRANCH   5  21
BRANCH   3  25
ATOM     25  C   UNL     1      33.888 -22.062 -19.247  0.00  0.00    +0.095 C 
BRANCH  25  26
ATOM     26  C   UNL     1      33.545 -20.889 -20.165  0.00  0.00    +0.063 C 
BRANCH  26  29
ATOM     27  N   UNL     1      36.006 -20.332 -20.091  0.00  0.00    -0.319 N 
ATOM     28  N   UNL     1      36.225 -18.623 -21.492  0.00  0.00    -0.315 N 
ATOM     29  C   UNL     1      34.754 -20.086 -20.578  0.00  0.00    +0.039 C 
ATOM     30  C   UNL     1      34.914 -19.026 -21.440  0.00  0.00    +0.069 C 
ATOM     31  C   UNL     1      36.856 -19.429 -20.668  0.00  0.00    +0.182 C 
ATOM     32  H   UNL     1      36.252 -21.032 -19.443  0.00  0.00    +0.148 HD
ATOM     33  H   UNL     1      36.607 -17.892 -22.027  0.00  0.00    +0.148 HD
ENDBRANCH  26  29
ENDBRANCH  25  26
ENDBRANCH   3  25
TORSDOF 5
ENDMDL
MODEL 2
REMARK VINA RESULT:     -10.3      2.761      5.388
REMARK  Name = 25023706
REMARK  5 active torsions:
REMARK  status: ('A' for Active; 'I' for Inactive)
REMARK    1  A    between atoms: N_3  and  C_25
REMARK    2  A    between atoms: C_5  and  C_18
REMARK    3  A    between atoms: C_10  and  C_15
REMARK    4  A    between atoms: C_25  and  C_26
REMARK    5  A    between atoms: C_26  and  C_29
REMARK                            x       y       z     vdW  Elec       q    Type
REMARK                         _______ _______ _______ _____ _____    ______ ____
ROOT
ATOM      1  N   UNL     1      31.951 -23.360 -16.474  0.00  0.00    -0.331 NA
ATOM      2  N   UNL     1      31.774 -23.926 -14.140  0.00  0.00    -0.283 NA
ATOM      3  N   UNL     1      34.063 -23.012 -17.450  0.00  0.00    -0.310 N 
ATOM      4  N   UNL     1      33.652 -24.141 -12.802  0.00  0.00    -0.327 NA
ATOM      5  C   UNL     1      31.266 -23.664 -15.362  0.00  0.00    +0.124 C 
ATOM      6  C   UNL     1      33.283 -23.327 -16.308  0.00  0.00    +0.189 C 
ATOM      7  C   UNL     1      33.918 -23.580 -15.094  0.00  0.00    +0.199 C 
ATOM      8  C   UNL     1      33.104 -23.887 -13.998  0.00  0.00    +0.138 C 
ATOM      9  C   UNL     1      35.311 -23.540 -14.939  0.00  0.00    +0.007 C 
ATOM     10  C   UNL     1      35.868 -23.804 -13.700  0.00  0.00    +0.095 C 
ATOM     11  C   UNL     1      34.999 -24.097 -12.671  0.00  0.00    +0.193 C 
ATOM     12  H   UNL     1      35.015 -23.262 -17.454  0.00  0.00    +0.149 HD
ATOM     13  N   UNL     1      35.543 -24.372 -11.390  0.00  0.00    -0.332 N 
ATOM     14  H   UNL     1      34.947 -24.584 -10.637  0.00  0.00    +0.145 HD
ATOM     15  H   UNL     1      36.518 -24.350 -11.255  0.00  0.00    +0.145 HD
ENDROOT
BRANCH  10  18
ATOM     16  O   UNL     1      37.849 -22.982 -12.727  0.00  0.00    -0.270 OA
ATOM     17  N   UNL     1      38.078 -24.642 -14.293  0.00  0.00    -0.325 N 
ATOM     18  C   UNL     1      37.314 -23.763 -13.533  0.00  0.00    +0.246 C 
ATOM     19  H   UNL     1      39.058 -24.643 -14.207  0.00  0.00    +0.145 HD
ATOM     20  H   UNL     1      37.638 -25.263 -14.918  0.00  0.00    +0.145 HD
ENDBRANCH  10  18
BRANCH   5  21
ATOM     21  C   UNL     1      29.781 -23.716 -15.487  0.00  0.00    +0.096 C 
ATOM     22  C   UNL     1      29.187 -24.916 -14.687  0.00  0.00    +0.017 C 
ATOM     23  C   UNL     1      29.236 -23.878 -16.946  0.00  0.00    +0.017 C 
ATOM     24  C   UNL     1      29.120 -22.413 -14.940  0.00  0.00    +0.017 C 
ENDBRANCH   5  21
BRANCH   3  25
ATOM     25  C   UNL     1      33.524 -22.347 -18.591  0.00  0.00    +0.095 C 
BRANCH  25  26
ATOM     26  C   UNL     1      34.626 -21.991 -19.587  0.00  0.00    +0.063 C 
BRANCH  26  29
ATOM     27  N   UNL     1      35.479 -19.787 -20.476  0.00  0.00    -0.319 N 
ATOM     28  N   UNL     1      33.651 -18.727 -21.160  0.00  0.00    -0.315 N 
ATOM     29  C   UNL     1      34.438 -20.632 -20.217  0.00  0.00    +0.039 C 
ATOM     30  C   UNL     1      33.320 -19.956 -20.647  0.00  0.00    +0.069 C 
ATOM     31  C   UNL     1      34.958 -18.656 -21.042  0.00  0.00    +0.182 C 
ATOM     32  H   UNL     1      36.431 -19.960 -20.289  0.00  0.00    +0.148 HD
ATOM     33  H   UNL     1      33.044 -18.049 -21.534  0.00  0.00    +0.148 HD
ENDBRANCH  26  29
ENDBRANCH  25  26
ENDBRANCH   3  25
TORSDOF 5
ENDMDL
MODEL 3
REMARK VINA RESULT:     -10.0      2.441      6.307
REMARK  Name = 25023706
REMARK  5 active torsions:
REMARK  status: ('A' for Active; 'I' for Inactive)
REMARK    1  A    between atoms: N_3  and  C_25
REMARK    2  A    between atoms: C_5  and  C_18
REMARK    3  A    between atoms: C_10  and  C_15
REMARK    4  A    between atoms: C_25  and  C_26
REMARK    5  A    between atoms: C_26  and  C_29
REMARK                            x       y       z     vdW  Elec       q    Type
REMARK                         _______ _______ _______ _____ _____    ______ ____
ROOT
ATOM      1  N   UNL     1      34.617 -24.329 -13.416  0.00  0.00    -0.331 NA
ATOM      2  N   UNL     1      36.500 -23.186 -14.391  0.00  0.00    -0.283 NA
ATOM      3  N   UNL     1      32.640 -24.620 -14.657  0.00  0.00    -0.310 N 
ATOM      4  N   UNL     1      36.423 -22.350 -16.549  0.00  0.00    -0.327 NA
ATOM      5  C   UNL     1      35.866 -23.840 -13.396  0.00  0.00    +0.124 C 
ATOM      6  C   UNL     1      33.966 -24.125 -14.573  0.00  0.00    +0.189 C 
ATOM      7  C   UNL     1      34.520 -23.464 -15.667  0.00  0.00    +0.199 C 
ATOM      8  C   UNL     1      35.832 -22.994 -15.534  0.00  0.00    +0.138 C 
ATOM      9  C   UNL     1      33.824 -23.258 -16.867  0.00  0.00    +0.007 C 
ATOM     10  C   UNL     1      34.443 -22.593 -17.911  0.00  0.00    +0.095 C 
ATOM     11  C   UNL     1      35.736 -22.162 -17.701  0.00  0.00    +0.193 C 
ATOM     12  H   UNL     1      32.244 -24.759 -15.547  0.00  0.00    +0.149 HD
ATOM     13  N   UNL     1      36.395 -21.477 -18.753  0.00  0.00    -0.332 N 
ATOM     14  H   UNL     1      37.317 -21.158 -18.632  0.00  0.00    +0.145 HD
ATOM     15  H   UNL     1      35.928 -21.320 -19.606  0.00  0.00    +0.145 HD
ENDROOT
BRANCH  10  18
ATOM     16  O   UNL     1      33.834 -23.167 -20.111  0.00  0.00    -0.270 OA
ATOM     17  N   UNL     1      32.897 -21.263 -19.243  0.00  0.00    -0.325 N 
ATOM     18  C   UNL     1      33.726 -22.377 -19.159  0.00  0.00    +0.246 C 
ATOM     19  H   UNL     1      32.395 -21.084 -20.071  0.00  0.00    +0.145 HD
ATOM     20  H   UNL     1      32.812 -20.653 -18.474  0.00  0.00    +0.145 HD
ENDBRANCH  10  18
BRANCH   5  21
ATOM     21  C   UNL     1      36.638 -24.038 -12.135  0.00  0.00    +0.096 C 
ATOM     22  C   UNL     1      35.693 -24.375 -10.940  0.00  0.00    +0.017 C 
ATOM     23  C   UNL     1      37.481 -22.806 -11.664  0.00  0.00    +0.017 C 
ATOM     24  C   UNL     1      37.657 -25.211 -12.274  0.00  0.00    +0.017 C 
ENDBRANCH   5  21
BRANCH   3  25
ATOM     25  C   UNL     1      31.857 -24.923 -13.504  0.00  0.00    +0.095 C 
BRANCH  25  26
ATOM     26  C   UNL     1      30.666 -23.972 -13.386  0.00  0.00    +0.063 C 
BRANCH  26  29
ATOM     27  N   UNL     1      29.846 -22.712 -15.414  0.00  0.00    -0.319 N 
ATOM     28  N   UNL     1      28.555 -24.170 -16.482  0.00  0.00    -0.315 N 
ATOM     29  C   UNL     1      29.875 -23.854 -14.666  0.00  0.00    +0.039 C 
ATOM     30  C   UNL     1      29.070 -24.739 -15.344  0.00  0.00    +0.069 C 
ATOM     31  C   UNL     1      29.042 -22.949 -16.494  0.00  0.00    +0.182 C 
ATOM     32  H   UNL     1      30.319 -21.871 -15.213  0.00  0.00    +0.148 HD
ATOM     33  H   UNL     1      27.955 -24.584 -17.142  0.00  0.00    +0.148 HD
ENDBRANCH  26  29
ENDBRANCH  25  26
ENDBRANCH   3  25
TORSDOF 5
ENDMDL
MODEL 4
REMARK VINA RESULT:      -9.9      2.929      6.995
REMARK  Name = 25023706
REMARK  5 active torsions:
REMARK  status: ('A' for Active; 'I' for Inactive)
REMARK    1  A    between atoms: N_3  and  C_25
REMARK    2  A    between atoms: C_5  and  C_18
REMARK    3  A    between atoms: C_10  and  C_15
REMARK    4  A    between atoms: C_25  and  C_26
REMARK    5  A    between atoms: C_26  and  C_29
REMARK                            x       y       z     vdW  Elec       q    Type
REMARK                         _______ _______ _______ _____ _____    ______ ____
ROOT
ATOM      1  N   UNL     1      32.978 -23.920 -15.339  0.00  0.00    -0.331 NA
ATOM      2  N   UNL     1      31.574 -22.842 -16.971  0.00  0.00    -0.283 NA
ATOM      3  N   UNL     1      35.317 -23.883 -15.583  0.00  0.00    -0.310 N 
ATOM      4  N   UNL     1      32.470 -21.750 -18.807  0.00  0.00    -0.327 NA
ATOM      5  C   UNL     1      31.792 -23.549 -15.844  0.00  0.00    +0.124 C 
ATOM      6  C   UNL     1      34.035 -23.521 -16.066  0.00  0.00    +0.189 C 
ATOM      7  C   UNL     1      33.929 -22.787 -17.246  0.00  0.00    +0.199 C 
ATOM      8  C   UNL     1      32.641 -22.455 -17.680  0.00  0.00    +0.138 C 
ATOM      9  C   UNL     1      35.044 -22.380 -17.993  0.00  0.00    +0.007 C 
ATOM     10  C   UNL     1      34.858 -21.651 -19.155  0.00  0.00    +0.095 C 
ATOM     11  C   UNL     1      33.559 -21.365 -19.515  0.00  0.00    +0.193 C 
ATOM     12  H   UNL     1      36.101 -23.378 -15.900  0.00  0.00    +0.149 HD
ATOM     13  N   UNL     1      33.339 -20.620 -20.701  0.00  0.00    -0.332 N 
ATOM     14  H   UNL     1      32.422 -20.401 -20.983  0.00  0.00    +0.145 HD
ATOM     15  H   UNL     1      34.105 -20.322 -21.244  0.00  0.00    +0.145 HD
ENDROOT
BRANCH  10  18
ATOM     16  O   UNL     1      36.359 -21.838 -20.960  0.00  0.00    -0.270 OA
ATOM     17  N   UNL     1      36.703 -20.099 -19.504  0.00  0.00    -0.325 N 
ATOM     18  C   UNL     1      36.012 -21.227 -19.935  0.00  0.00    +0.246 C 
ATOM     19  H   UNL     1      37.488 -19.782 -20.007  0.00  0.00    +0.145 HD
ATOM     20  H   UNL     1      36.408 -19.619 -18.697  0.00  0.00    +0.145 HD
ENDBRANCH  10  18
BRANCH   5  21
ATOM     21  C   UNL     1      30.583 -23.965 -15.077  0.00  0.00    +0.096 C 
ATOM     22  C   UNL     1      30.788 -23.764 -13.544  0.00  0.00    +0.017 C 
ATOM     23  C   UNL     1      30.162 -25.463 -15.248  0.00  0.00    +0.017 C 
ATOM     24  C   UNL     1      29.332 -23.132 -15.496  0.00  0.00    +0.017 C 
ENDBRANCH   5  21
BRANCH   3  25
ATOM     25  C   UNL     1      35.519 -24.950 -14.658  0.00  0.00    +0.095 C 
BRANCH  25  26
ATOM     26  C   UNL     1      36.534 -24.557 -13.585  0.00  0.00    +0.063 C 
BRANCH  26  29
ATOM     27  N   UNL     1      38.533 -24.858 -15.097  0.00  0.00    -0.319 N 
ATOM     28  N   UNL     1      40.011 -25.945 -13.844  0.00  0.00    -0.315 N 
ATOM     29  C   UNL     1      37.931 -25.043 -13.885  0.00  0.00    +0.039 C 
ATOM     30  C   UNL     1      38.861 -25.717 -13.129  0.00  0.00    +0.069 C 
ATOM     31  C   UNL     1      39.780 -25.415 -15.025  0.00  0.00    +0.182 C 
ATOM     32  H   UNL     1      38.142 -24.406 -15.879  0.00  0.00    +0.148 HD
ATOM     33  H   UNL     1      40.826 -26.403 -13.540  0.00  0.00    +0.148 HD
ENDBRANCH  26  29
ENDBRANCH  25  26
ENDBRANCH   3  25
TORSDOF 5
ENDMDL
MODEL 5
REMARK VINA RESULT:      -9.8      3.013      6.991
REMARK  Name = 25023706
REMARK  5 active torsions:
REMARK  status: ('A' for Active; 'I' for Inactive)
REMARK    1  A    between atoms: N_3  and  C_25
REMARK    2  A    between atoms: C_5  and  C_18
REMARK    3  A    between atoms: C_10  and  C_15
REMARK    4  A    between atoms: C_25  and  C_26
REMARK    5  A    between atoms: C_26  and  C_29
REMARK                            x       y       z     vdW  Elec       q    Type
REMARK                         _______ _______ _______ _____ _____    ______ ____
ROOT
ATOM      1  N   UNL     1      33.279 -22.984 -16.893  0.00  0.00    -0.331 NA
ATOM      2  N   UNL     1      35.682 -22.993 -17.050  0.00  0.00    -0.283 NA
ATOM      3  N   UNL     1      32.221 -23.704 -14.920  0.00  0.00    -0.310 N 
ATOM      4  N   UNL     1      37.007 -23.702 -15.287  0.00  0.00    -0.327 NA
ATOM      5  C   UNL     1      34.441 -22.774 -17.530  0.00  0.00    +0.124 C 
ATOM      6  C   UNL     1      33.414 -23.462 -15.645  0.00  0.00    +0.189 C 
ATOM      7  C   UNL     1      34.644 -23.726 -15.047  0.00  0.00    +0.199 C 
ATOM      8  C   UNL     1      35.793 -23.470 -15.804  0.00  0.00    +0.138 C 
ATOM      9  C   UNL     1      34.767 -24.226 -13.742  0.00  0.00    +0.007 C 
ATOM     10  C   UNL     1      36.025 -24.462 -13.216  0.00  0.00    +0.095 C 
ATOM     11  C   UNL     1      37.105 -24.185 -14.026  0.00  0.00    +0.193 C 
ATOM     12  H   UNL     1      32.269 -23.763 -13.938  0.00  0.00    +0.149 HD
ATOM     13  N   UNL     1      38.407 -24.417 -13.512  0.00  0.00    -0.332 N 
ATOM     14  H   UNL     1      39.196 -24.229 -14.067  0.00  0.00    +0.145 HD
ATOM     15  H   UNL     1      38.520 -24.769 -12.599  0.00  0.00    +0.145 HD
ENDROOT
BRANCH  10  18
ATOM     16  O   UNL     1      36.702 -26.078 -11.642  0.00  0.00    -0.270 OA
ATOM     17  N   UNL     1      35.671 -24.201 -10.820  0.00  0.00    -0.325 N 
ATOM     18  C   UNL     1      36.157 -24.982 -11.863  0.00  0.00    +0.246 C 
ATOM     19  H   UNL     1      35.743 -24.520  -9.891  0.00  0.00    +0.145 HD
ATOM     20  H   UNL     1      35.254 -23.330 -11.010  0.00  0.00    +0.145 HD
ENDBRANCH  10  18
BRANCH   5  21
ATOM     21  C   UNL     1      34.352 -22.243 -18.920  0.00  0.00    +0.096 C 
ATOM     22  C   UNL     1      35.603 -21.382 -19.278  0.00  0.00    +0.017 C 
ATOM     23  C   UNL     1      33.118 -21.323 -19.210  0.00  0.00    +0.017 C 
ATOM     24  C   UNL     1      34.262 -23.399 -19.964  0.00  0.00    +0.017 C 
ENDBRANCH   5  21
BRANCH   3  25
ATOM     25  C   UNL     1      30.954 -23.866 -15.554  0.00  0.00    +0.095 C 
BRANCH  25  26
ATOM     26  C   UNL     1      29.889 -23.004 -14.877  0.00  0.00    +0.063 C 
BRANCH  26  29
ATOM     27  N   UNL     1      28.715 -22.952 -17.112  0.00  0.00    -0.319 N 
ATOM     28  N   UNL     1      26.697 -22.146 -16.653  0.00  0.00    -0.315 N 
ATOM     29  C   UNL     1      28.702 -22.723 -15.766  0.00  0.00    +0.039 C 
ATOM     30  C   UNL     1      27.446 -22.224 -15.506  0.00  0.00    +0.069 C 
ATOM     31  C   UNL     1      27.490 -22.591 -17.602  0.00  0.00    +0.182 C 
ATOM     32  H   UNL     1      29.468 -23.312 -17.635  0.00  0.00    +0.148 HD
ATOM     33  H   UNL     1      25.771 -21.826 -16.745  0.00  0.00    +0.148 HD
ENDBRANCH  26  29
ENDBRANCH  25  26
ENDBRANCH   3  25
TORSDOF 5
ENDMDL
MODEL 6
REMARK VINA RESULT:      -9.8      2.564      5.742
REMARK  Name = 25023706
REMARK  5 active torsions:
REMARK  status: ('A' for Active; 'I' for Inactive)
REMARK    1  A    between atoms: N_3  and  C_25
REMARK    2  A    between atoms: C_5  and  C_18
REMARK    3  A    between atoms: C_10  and  C_15
REMARK    4  A    between atoms: C_25  and  C_26
REMARK    5  A    between atoms: C_26  and  C_29
REMARK                            x       y       z     vdW  Elec       q    Type
REMARK                         _______ _______ _______ _____ _____    ______ ____
ROOT
ATOM      1  N   UNL     1      35.102 -22.782 -17.446  0.00  0.00    -0.331 NA
ATOM      2  N   UNL     1      32.942 -22.215 -18.347  0.00  0.00    -0.283 NA
ATOM      3  N   UNL     1      35.266 -23.869 -15.366  0.00  0.00    -0.310 N 
ATOM      4  N   UNL     1      30.987 -22.715 -17.211  0.00  0.00    -0.327 NA
ATOM      5  C   UNL     1      34.290 -22.263 -18.378  0.00  0.00    +0.124 C 
ATOM      6  C   UNL     1      34.461 -23.303 -16.386  0.00  0.00    +0.189 C 
ATOM      7  C   UNL     1      33.075 -23.310 -16.247  0.00  0.00    +0.199 C 
ATOM      8  C   UNL     1      32.325 -22.740 -17.282  0.00  0.00    +0.138 C 
ATOM      9  C   UNL     1      32.423 -23.857 -15.133  0.00  0.00    +0.007 C 
ATOM     10  C   UNL     1      31.041 -23.828 -15.068  0.00  0.00    +0.095 C 
ATOM     11  C   UNL     1      30.375 -23.248 -16.127  0.00  0.00    +0.193 C 
ATOM     12  H   UNL     1      34.855 -24.507 -14.740  0.00  0.00    +0.149 HD
ATOM     13  N   UNL     1      28.958 -23.204 -16.086  0.00  0.00    -0.332 N 
ATOM     14  H   UNL     1      28.457 -22.797 -16.828  0.00  0.00    +0.145 HD
ATOM     15  H   UNL     1      28.476 -23.581 -15.315  0.00  0.00    +0.145 HD
ENDROOT
BRANCH  10  18
ATOM     16  O   UNL     1      30.562 -23.960 -12.766  0.00  0.00    -0.270 OA
ATOM     17  N   UNL     1      29.454 -25.426 -14.139  0.00  0.00    -0.325 N 
ATOM     18  C   UNL     1      30.358 -24.394 -13.913  0.00  0.00    +0.246 C 
ATOM     19  H   UNL     1      28.973 -25.834 -13.383  0.00  0.00    +0.145 HD
ATOM     20  H   UNL     1      29.295 -25.750 -15.055  0.00  0.00    +0.145 HD
ENDBRANCH  10  18
BRANCH   5  21
ATOM     21  C   UNL     1      34.947 -21.670 -19.578  0.00  0.00    +0.096 C 
ATOM     22  C   UNL     1      36.329 -21.043 -19.215  0.00  0.00    +0.017 C 
ATOM     23  C   UNL     1      34.145 -20.528 -20.287  0.00  0.00    +0.017 C 
ATOM     24  C   UNL     1      35.195 -22.748 -20.678  0.00  0.00    +0.017 C 
ENDBRANCH   5  21
BRANCH   3  25
ATOM     25  C   UNL     1      36.648 -23.550 -15.210  0.00  0.00    +0.095 C 
BRANCH  25  26
ATOM     26  C   UNL     1      37.207 -24.159 -13.924  0.00  0.00    +0.063 C 
BRANCH  26  29
ATOM     27  N   UNL     1      39.201 -24.855 -15.309  0.00  0.00    -0.319 N 
ATOM     28  N   UNL     1      40.359 -26.195 -13.969  0.00  0.00    -0.315 N 
ATOM     29  C   UNL     1      38.500 -24.909 -14.138  0.00  0.00    +0.039 C 
ATOM     30  C   UNL     1      39.233 -25.743 -13.326  0.00  0.00    +0.069 C 
ATOM     31  C   UNL     1      40.309 -25.643 -15.160  0.00  0.00    +0.182 C 
ATOM     32  H   UNL     1      38.954 -24.344 -16.113  0.00  0.00    +0.148 HD
ATOM     33  H   UNL     1      41.050 -26.800 -13.615  0.00  0.00    +0.148 HD
ENDBRANCH  26  29
ENDBRANCH  25  26
ENDBRANCH   3  25
TORSDOF 5
ENDMDL
MODEL 7
REMARK VINA RESULT:      -9.8      1.913      3.005
REMARK  Name = 25023706
REMARK  5 active torsions:
REMARK  status: ('A' for Active; 'I' for Inactive)
REMARK    1  A    between atoms: N_3  and  C_25
REMARK    2  A    between atoms: C_5  and  C_18
REMARK    3  A    between atoms: C_10  and  C_15
REMARK    4  A    between atoms: C_25  and  C_26
REMARK    5  A    between atoms: C_26  and  C_29
REMARK                            x       y       z     vdW  Elec       q    Type
REMARK                         _______ _______ _______ _____ _____    ______ ____
ROOT
ATOM      1  N   UNL     1      36.643 -23.392 -14.799  0.00  0.00    -0.331 NA
ATOM      2  N   UNL     1      35.310 -24.750 -13.323  0.00  0.00    -0.283 NA
ATOM      3  N   UNL     1      35.606 -22.025 -16.407  0.00  0.00    -0.310 N 
ATOM      4  N   UNL     1      32.997 -24.751 -13.439  0.00  0.00    -0.327 NA
ATOM      5  C   UNL     1      36.478 -24.274 -13.802  0.00  0.00    +0.124 C 
ATOM      6  C   UNL     1      35.496 -22.960 -15.348  0.00  0.00    +0.189 C 
ATOM      7  C   UNL     1      34.234 -23.381 -14.934  0.00  0.00    +0.199 C 
ATOM      8  C   UNL     1      34.179 -24.305 -13.885  0.00  0.00    +0.138 C 
ATOM      9  C   UNL     1      33.046 -22.921 -15.520  0.00  0.00    +0.007 C 
ATOM     10  C   UNL     1      31.829 -23.385 -15.053  0.00  0.00    +0.095 C 
ATOM     11  C   UNL     1      31.860 -24.294 -14.017  0.00  0.00    +0.193 C 
ATOM     12  H   UNL     1      34.823 -21.471 -16.630  0.00  0.00    +0.149 HD
ATOM     13  N   UNL     1      30.627 -24.787 -13.519  0.00  0.00    -0.332 N 
ATOM     14  H   UNL     1      30.619 -25.437 -12.780  0.00  0.00    +0.145 HD
ATOM     15  H   UNL     1      29.779 -24.479 -13.913  0.00  0.00    +0.145 HD
ENDROOT
BRANCH  10  18
ATOM     16  O   UNL     1      29.604 -22.619 -14.963  0.00  0.00    -0.270 OA
ATOM     17  N   UNL     1      30.561 -22.776 -17.042  0.00  0.00    -0.325 N 
ATOM     18  C   UNL     1      30.593 -22.910 -15.658  0.00  0.00    +0.246 C 
ATOM     19  H   UNL     1      29.742 -22.457 -17.486  0.00  0.00    +0.145 HD
ATOM     20  H   UNL     1      31.357 -22.999 -17.577  0.00  0.00    +0.145 HD
ENDBRANCH  10  18
BRANCH   5  21
ATOM     21  C   UNL     1      37.719 -24.788 -13.155  0.00  0.00    +0.096 C 
ATOM     22  C   UNL     1      38.878 -24.933 -14.188  0.00  0.00    +0.017 C 
ATOM     23  C   UNL     1      37.589 -26.193 -12.476  0.00  0.00    +0.017 C 
ATOM     24  C   UNL     1      38.210 -23.827 -12.029  0.00  0.00    +0.017 C 
ENDBRANCH   5  21
BRANCH   3  25
ATOM     25  C   UNL     1      36.803 -21.854 -17.163  0.00  0.00    +0.095 C 
BRANCH  25  26
ATOM     26  C   UNL     1      36.540 -22.047 -18.656  0.00  0.00    +0.063 C 
BRANCH  26  29
ATOM     27  N   UNL     1      34.686 -20.651 -19.651  0.00  0.00    -0.319 N 
ATOM     28  N   UNL     1      32.868 -21.903 -19.411  0.00  0.00    -0.315 N 
ATOM     29  C   UNL     1      35.102 -21.799 -19.040  0.00  0.00    +0.039 C 
ATOM     30  C   UNL     1      33.962 -22.557 -18.902  0.00  0.00    +0.069 C 
ATOM     31  C   UNL     1      33.338 -20.758 -19.854  0.00  0.00    +0.182 C 
ATOM     32  H   UNL     1      35.254 -19.885 -19.899  0.00  0.00    +0.148 HD
ATOM     33  H   UNL     1      31.937 -22.221 -19.439  0.00  0.00    +0.148 HD
ENDBRANCH  26  29
ENDBRANCH  25  26
ENDBRANCH   3  25
TORSDOF 5
ENDMDL
MODEL 8
REMARK VINA RESULT:      -9.7      2.360      6.537
REMARK  Name = 25023706
REMARK  5 active torsions:
REMARK  status: ('A' for Active; 'I' for Inactive)
REMARK    1  A    between atoms: N_3  and  C_25
REMARK    2  A    between atoms: C_5  and  C_18
REMARK    3  A    between atoms: C_10  and  C_15
REMARK    4  A    between atoms: C_25  and  C_26
REMARK    5  A    between atoms: C_26  and  C_29
REMARK                            x       y       z     vdW  Elec       q    Type
REMARK                         _______ _______ _______ _____ _____    ______ ____
ROOT
ATOM      1  N   UNL     1      34.674 -23.778 -16.009  0.00  0.00    -0.331 NA
ATOM      2  N   UNL     1      36.660 -22.654 -16.780  0.00  0.00    -0.283 NA
ATOM      3  N   UNL     1      32.628 -23.460 -17.124  0.00  0.00    -0.310 N 
ATOM      4  N   UNL     1      36.616 -21.245 -18.617  0.00  0.00    -0.327 NA
ATOM      5  C   UNL     1      35.980 -23.475 -15.953  0.00  0.00    +0.124 C 
ATOM      6  C   UNL     1      34.012 -23.179 -17.012  0.00  0.00    +0.189 C 
ATOM      7  C   UNL     1      34.611 -22.313 -17.925  0.00  0.00    +0.199 C 
ATOM      8  C   UNL     1      35.980 -22.068 -17.773  0.00  0.00    +0.138 C 
ATOM      9  C   UNL     1      33.904 -21.695 -18.966  0.00  0.00    +0.007 C 
ATOM     10  C   UNL     1      34.569 -20.847 -19.835  0.00  0.00    +0.095 C 
ATOM     11  C   UNL     1      35.916 -20.658 -19.617  0.00  0.00    +0.193 C 
ATOM     12  H   UNL     1      32.180 -23.295 -17.985  0.00  0.00    +0.149 HD
ATOM     13  N   UNL     1      36.623 -19.793 -20.492  0.00  0.00    -0.332 N 
ATOM     14  H   UNL     1      37.586 -19.639 -20.360  0.00  0.00    +0.145 HD
ATOM     15  H   UNL     1      36.150 -19.347 -21.231  0.00  0.00    +0.145 HD
ENDROOT
BRANCH  10  18
ATOM     16  O   UNL     1      34.421 -19.808 -21.943  0.00  0.00    -0.270 OA
ATOM     17  N   UNL     1      32.463 -20.059 -20.774  0.00  0.00    -0.325 N 
ATOM     18  C   UNL     1      33.839 -20.202 -20.918  0.00  0.00    +0.246 C 
ATOM     19  H   UNL     1      31.937 -19.628 -21.486  0.00  0.00    +0.145 HD
ATOM     20  H   UNL     1      32.016 -20.389 -19.961  0.00  0.00    +0.145 HD
ENDBRANCH  10  18
BRANCH   5  21
ATOM     21  C   UNL     1      36.765 -24.113 -14.858  0.00  0.00    +0.096 C 
ATOM     22  C   UNL     1      36.294 -25.578 -14.603  0.00  0.00    +0.017 C 
ATOM     23  C   UNL     1      36.679 -23.400 -13.467  0.00  0.00    +0.017 C 
ATOM     24  C   UNL     1      38.285 -24.162 -15.206  0.00  0.00    +0.017 C 
ENDBRANCH   5  21
BRANCH   3  25
ATOM     25  C   UNL     1      31.857 -23.974 -16.039  0.00  0.00    +0.095 C 
BRANCH  25  26
ATOM     26  C   UNL     1      31.025 -22.869 -15.389  0.00  0.00    +0.063 C 
BRANCH  26  29
ATOM     27  N   UNL     1      28.597 -22.204 -15.189  0.00  0.00    -0.319 N 
ATOM     28  N   UNL     1      27.634 -23.097 -16.980  0.00  0.00    -0.315 N 
ATOM     29  C   UNL     1      29.593 -22.846 -15.867  0.00  0.00    +0.039 C 
ATOM     30  C   UNL     1      28.975 -23.390 -16.969  0.00  0.00    +0.069 C 
ATOM     31  C   UNL     1      27.439 -22.382 -15.895  0.00  0.00    +0.182 C 
ATOM     32  H   UNL     1      28.694 -21.704 -14.346  0.00  0.00    +0.148 HD
ATOM     33  H   UNL     1      26.967 -23.363 -17.652  0.00  0.00    +0.148 HD
ENDBRANCH  26  29
ENDBRANCH  25  26
ENDBRANCH   3  25
TORSDOF 5
ENDMDL
MODEL 9
REMARK VINA RESULT:      -9.6      2.125      5.957
REMARK  Name = 25023706
REMARK  5 active torsions:
REMARK  status: ('A' for Active; 'I' for Inactive)
REMARK    1  A    between atoms: N_3  and  C_25
REMARK    2  A    between atoms: C_5  and  C_18
REMARK    3  A    between atoms: C_10  and  C_15
REMARK    4  A    between atoms: C_25  and  C_26
REMARK    5  A    between atoms: C_26  and  C_29
REMARK                            x       y       z     vdW  Elec       q    Type
REMARK                         _______ _______ _______ _____ _____    ______ ____
ROOT
ATOM      1  N   UNL     1      35.222 -22.723 -17.501  0.00  0.00    -0.331 NA
ATOM      2  N   UNL     1      33.045 -22.145 -18.353  0.00  0.00    -0.283 NA
ATOM      3  N   UNL     1      35.427 -23.835 -15.438  0.00  0.00    -0.310 N 
ATOM      4  N   UNL     1      31.113 -22.659 -17.185  0.00  0.00    -0.327 NA
ATOM      5  C   UNL     1      34.392 -22.192 -18.411  0.00  0.00    +0.124 C 
ATOM      6  C   UNL     1      34.602 -23.257 -16.435  0.00  0.00    +0.189 C 
ATOM      7  C   UNL     1      33.219 -23.266 -16.270  0.00  0.00    +0.199 C 
ATOM      8  C   UNL     1      32.449 -22.683 -17.282  0.00  0.00    +0.138 C 
ATOM      9  C   UNL     1      32.588 -23.826 -15.150  0.00  0.00    +0.007 C 
ATOM     10  C   UNL     1      31.208 -23.798 -15.057  0.00  0.00    +0.095 C 
ATOM     11  C   UNL     1      30.522 -23.206 -16.095  0.00  0.00    +0.193 C 
ATOM     12  H   UNL     1      35.027 -24.481 -14.812  0.00  0.00    +0.149 HD
ATOM     13  N   UNL     1      29.105 -23.162 -16.027  0.00  0.00    -0.332 N 
ATOM     14  H   UNL     1      28.590 -22.745 -16.753  0.00  0.00    +0.145 HD
ATOM     15  H   UNL     1      28.639 -23.549 -15.251  0.00  0.00    +0.145 HD
ENDROOT
BRANCH  10  18
ATOM     16  O   UNL     1      30.669 -23.875 -12.766  0.00  0.00    -0.270 OA
ATOM     17  N   UNL     1      29.760 -25.507 -14.097  0.00  0.00    -0.325 N 
ATOM     18  C   UNL     1      30.548 -24.378 -13.896  0.00  0.00    +0.246 C 
ATOM     19  H   UNL     1      29.298 -25.926 -13.336  0.00  0.00    +0.145 HD
ATOM     20  H   UNL     1      29.665 -25.886 -15.001  0.00  0.00    +0.145 HD
ENDBRANCH  10  18
BRANCH   5  21
ATOM     21  C   UNL     1      35.026 -21.585 -19.616  0.00  0.00    +0.096 C 
ATOM     22  C   UNL     1      35.319 -22.663 -20.705  0.00  0.00    +0.017 C 
ATOM     23  C   UNL     1      36.393 -20.865 -19.365  0.00  0.00    +0.017 C 
ATOM     24  C   UNL     1      34.101 -20.507 -20.260  0.00  0.00    +0.017 C 
ENDBRANCH   5  21
BRANCH   3  25
ATOM     25  C   UNL     1      36.811 -23.518 -15.305  0.00  0.00    +0.095 C 
BRANCH  25  26
ATOM     26  C   UNL     1      37.482 -24.423 -14.272  0.00  0.00    +0.063 C 
BRANCH  26  29
ATOM     27  N   UNL     1      36.093 -24.815 -12.201  0.00  0.00    -0.319 N 
ATOM     28  N   UNL     1      36.804 -23.279 -10.764  0.00  0.00    -0.315 N 
ATOM     29  C   UNL     1      37.065 -24.115 -12.855  0.00  0.00    +0.039 C 
ATOM     30  C   UNL     1      37.489 -23.171 -11.949  0.00  0.00    +0.069 C 
ATOM     31  C   UNL     1      35.971 -24.278 -10.950  0.00  0.00    +0.182 C 
ATOM     32  H   UNL     1      35.574 -25.570 -12.564  0.00  0.00    +0.148 HD
ATOM     33  H   UNL     1      36.912 -22.729  -9.955  0.00  0.00    +0.148 HD
ENDBRANCH  26  29
ENDBRANCH  25  26
ENDBRANCH   3  25
TORSDOF 5
ENDMDL
