MODEL 1
REMARK VINA RESULT:      -7.2      0.000      0.000
REMARK  Name = 3748
REMARK  3 active torsions:
REMARK  status: ('A' for Active; 'I' for Inactive)
REMARK    1  A    between atoms: N_2  and  N_11
REMARK    2  A    between atoms: C_3  and  C_6
REMARK    3  A    between atoms: N_11  and  C_13
REMARK                            x       y       z     vdW  Elec       q    Type
REMARK                         _______ _______ _______ _____ _____    ______ ____
ROOT
ATOM      1  O   UNL     1      35.367 -17.339 -20.606  0.00  0.00    -0.269 OA
ATOM      2  N   UNL     1      36.012 -19.479 -21.232  0.00  0.00    -0.246 N 
ATOM      3  C   UNL     1      35.506 -18.211 -21.461  0.00  0.00    +0.259 C 
ATOM      4  H   UNL     1      36.092 -20.126 -21.970  0.00  0.00    +0.169 HD
ENDROOT
BRANCH   3   6
ATOM      5  N   UNL     1      34.319 -17.400 -25.459  0.00  0.00    -0.242 NA
ATOM      6  C   UNL     1      35.091 -17.928 -22.860  0.00  0.00    +0.058 C 
ATOM      7  C   UNL     1      34.776 -18.979 -23.687  0.00  0.00    +0.025 C 
ATOM      8  C   UNL     1      35.035 -16.621 -23.285  0.00  0.00    +0.025 C 
ATOM      9  C   UNL     1      34.395 -18.662 -24.981  0.00  0.00    +0.099 C 
ATOM     10  C   UNL     1      34.641 -16.410 -24.596  0.00  0.00    +0.099 C 
ENDBRANCH   3   6
BRANCH   2  11
ATOM     11  N   UNL     1      36.402 -19.824 -19.943  0.00  0.00    -0.231 NA
ATOM     12  H   UNL     1      35.952 -19.197 -19.277  0.00  0.00    +0.145 HD
BRANCH  11  13
ATOM     13  C   UNL     1      36.023 -21.188 -19.644  0.00  0.00    +0.072 C 
ATOM     14  C   UNL     1      34.503 -21.302 -19.663  0.00  0.00    +0.019 C 
ATOM     15  C   UNL     1      36.592 -21.589 -18.289  0.00  0.00    +0.019 C 
ENDBRANCH  11  13
ENDBRANCH   2  11
TORSDOF 3
ENDMDL
MODEL 2
REMARK VINA RESULT:      -7.1      2.565      6.411
REMARK  Name = 3748
REMARK  3 active torsions:
REMARK  status: ('A' for Active; 'I' for Inactive)
REMARK    1  A    between atoms: N_2  and  N_11
REMARK    2  A    between atoms: C_3  and  C_6
REMARK    3  A    between atoms: N_11  and  C_13
REMARK                            x       y       z     vdW  Elec       q    Type
REMARK                         _______ _______ _______ _____ _____    ______ ____
ROOT
ATOM      1  O   UNL     1      34.561 -18.052 -25.596  0.00  0.00    -0.269 OA
ATOM      2  N   UNL     1      34.047 -15.861 -25.029  0.00  0.00    -0.246 N 
ATOM      3  C   UNL     1      34.487 -17.148 -24.768  0.00  0.00    +0.259 C 
ATOM      4  H   UNL     1      34.015 -15.189 -24.310  0.00  0.00    +0.169 HD
ENDROOT
BRANCH   3   6
ATOM      5  N   UNL     1      35.594 -17.928 -20.741  0.00  0.00    -0.242 NA
ATOM      6  C   UNL     1      34.874 -17.421 -23.359  0.00  0.00    +0.058 C 
ATOM      7  C   UNL     1      35.574 -18.569 -23.072  0.00  0.00    +0.025 C 
ATOM      8  C   UNL     1      34.520 -16.518 -22.385  0.00  0.00    +0.025 C 
ATOM      9  C   UNL     1      35.911 -18.777 -21.744  0.00  0.00    +0.099 C 
ATOM     10  C   UNL     1      34.906 -16.818 -21.088  0.00  0.00    +0.099 C 
ENDBRANCH   3   6
BRANCH   2  11
ATOM     11  N   UNL     1      33.649 -15.536 -26.321  0.00  0.00    -0.231 NA
ATOM     12  H   UNL     1      33.098 -16.303 -26.705  0.00  0.00    +0.145 HD
BRANCH  11  13
ATOM     13  C   UNL     1      32.850 -14.330 -26.319  0.00  0.00    +0.072 C 
ATOM     14  C   UNL     1      33.413 -13.352 -27.343  0.00  0.00    +0.019 C 
ATOM     15  C   UNL     1      32.844 -13.726 -24.920  0.00  0.00    +0.019 C 
ENDBRANCH  11  13
ENDBRANCH   2  11
TORSDOF 3
ENDMDL
MODEL 3
REMARK VINA RESULT:      -7.1      1.640      5.400
REMARK  Name = 3748
REMARK  3 active torsions:
REMARK  status: ('A' for Active; 'I' for Inactive)
REMARK    1  A    between atoms: N_2  and  N_11
REMARK    2  A    between atoms: C_3  and  C_6
REMARK    3  A    between atoms: N_11  and  C_13
REMARK                            x       y       z     vdW  Elec       q    Type
REMARK                         _______ _______ _______ _____ _____    ______ ____
ROOT
ATOM      1  O   UNL     1      35.602 -17.716 -20.607  0.00  0.00    -0.269 OA
ATOM      2  N   UNL     1      35.386 -18.797 -22.649  0.00  0.00    -0.246 N 
ATOM      3  C   UNL     1      35.321 -18.712 -21.269  0.00  0.00    +0.259 C 
ATOM      4  H   UNL     1      35.145 -19.633 -23.110  0.00  0.00    +0.169 HD
ENDROOT
BRANCH   3   6
ATOM      5  N   UNL     1      34.092 -22.251 -19.264  0.00  0.00    -0.242 NA
ATOM      6  C   UNL     1      34.891 -19.951 -20.568  0.00  0.00    +0.058 C 
ATOM      7  C   UNL     1      35.850 -20.807 -20.081  0.00  0.00    +0.025 C 
ATOM      8  C   UNL     1      33.547 -20.203 -20.427  0.00  0.00    +0.025 C 
ATOM      9  C   UNL     1      35.398 -21.946 -19.435  0.00  0.00    +0.099 C 
ATOM     10  C   UNL     1      33.199 -21.369 -19.765  0.00  0.00    +0.099 C 
ENDBRANCH   3   6
BRANCH   2  11
ATOM     11  N   UNL     1      35.799 -17.684 -23.372  0.00  0.00    -0.231 NA
ATOM     12  H   UNL     1      36.338 -17.990 -24.181  0.00  0.00    +0.145 HD
BRANCH  11  13
ATOM     13  C   UNL     1      34.657 -16.919 -23.824  0.00  0.00    +0.072 C 
ATOM     14  C   UNL     1      34.638 -16.897 -25.348  0.00  0.00    +0.019 C 
ATOM     15  C   UNL     1      34.730 -15.509 -23.251  0.00  0.00    +0.019 C 
ENDBRANCH  11  13
ENDBRANCH   2  11
TORSDOF 3
ENDMDL
MODEL 4
REMARK VINA RESULT:      -7.1      1.571      5.321
REMARK  Name = 3748
REMARK  3 active torsions:
REMARK  status: ('A' for Active; 'I' for Inactive)
REMARK    1  A    between atoms: N_2  and  N_11
REMARK    2  A    between atoms: C_3  and  C_6
REMARK    3  A    between atoms: N_11  and  C_13
REMARK                            x       y       z     vdW  Elec       q    Type
REMARK                         _______ _______ _______ _____ _____    ______ ____
ROOT
ATOM      1  O   UNL     1      35.318 -17.453 -20.705  0.00  0.00    -0.269 OA
ATOM      2  N   UNL     1      35.353 -18.568 -22.740  0.00  0.00    -0.246 N 
ATOM      3  C   UNL     1      35.194 -18.481 -21.368  0.00  0.00    +0.259 C 
ATOM      4  H   UNL     1      35.237 -19.430 -23.203  0.00  0.00    +0.169 HD
ENDROOT
BRANCH   3   6
ATOM      5  N   UNL     1      34.258 -22.123 -19.392  0.00  0.00    -0.242 NA
ATOM      6  C   UNL     1      34.866 -19.755 -20.676  0.00  0.00    +0.058 C 
ATOM      7  C   UNL     1      33.546 -20.087 -20.484  0.00  0.00    +0.025 C 
ATOM      8  C   UNL     1      35.893 -20.563 -20.249  0.00  0.00    +0.025 C 
ATOM      9  C   UNL     1      33.294 -21.286 -19.835  0.00  0.00    +0.099 C 
ATOM     10  C   UNL     1      35.535 -21.740 -19.612  0.00  0.00    +0.099 C 
ENDBRANCH   3   6
BRANCH   2  11
ATOM     11  N   UNL     1      35.679 -17.421 -23.454  0.00  0.00    -0.231 NA
ATOM     12  H   UNL     1      36.686 -17.400 -23.613  0.00  0.00    +0.145 HD
BRANCH  11  13
ATOM     13  C   UNL     1      34.996 -17.403 -24.729  0.00  0.00    +0.072 C 
ATOM     14  C   UNL     1      34.050 -16.209 -24.776  0.00  0.00    +0.019 C 
ATOM     15  C   UNL     1      34.244 -18.714 -24.922  0.00  0.00    +0.019 C 
ENDBRANCH  11  13
ENDBRANCH   2  11
TORSDOF 3
ENDMDL
MODEL 5
REMARK VINA RESULT:      -7.1      5.244      8.530
REMARK  Name = 3748
REMARK  3 active torsions:
REMARK  status: ('A' for Active; 'I' for Inactive)
REMARK    1  A    between atoms: N_2  and  N_11
REMARK    2  A    between atoms: C_3  and  C_6
REMARK    3  A    between atoms: N_11  and  C_13
REMARK                            x       y       z     vdW  Elec       q    Type
REMARK                         _______ _______ _______ _____ _____    ______ ____
ROOT
ATOM      1  O   UNL     1      34.122 -23.651 -17.458  0.00  0.00    -0.269 OA
ATOM      2  N   UNL     1      32.452 -22.338 -18.392  0.00  0.00    -0.246 N 
ATOM      3  C   UNL     1      33.034 -23.085 -17.383  0.00  0.00    +0.259 C 
ATOM      4  H   UNL     1      31.573 -21.914 -18.257  0.00  0.00    +0.169 HD
ENDROOT
BRANCH   3   6
ATOM      5  N   UNL     1      30.763 -23.427 -13.808  0.00  0.00    -0.242 NA
ATOM      6  C   UNL     1      32.239 -23.206 -16.132  0.00  0.00    +0.058 C 
ATOM      7  C   UNL     1      32.893 -23.466 -14.951  0.00  0.00    +0.025 C 
ATOM      8  C   UNL     1      30.875 -23.052 -16.193  0.00  0.00    +0.025 C 
ATOM      9  C   UNL     1      32.108 -23.568 -13.814  0.00  0.00    +0.099 C 
ATOM     10  C   UNL     1      30.181 -23.171 -15.000  0.00  0.00    +0.099 C 
ENDBRANCH   3   6
BRANCH   2  11
ATOM     11  N   UNL     1      33.127 -22.197 -19.599  0.00  0.00    -0.231 NA
ATOM     12  H   UNL     1      32.477 -22.358 -20.368  0.00  0.00    +0.145 HD
BRANCH  11  13
ATOM     13  C   UNL     1      33.684 -20.866 -19.718  0.00  0.00    +0.072 C 
ATOM     14  C   UNL     1      32.952 -20.113 -20.822  0.00  0.00    +0.019 C 
ATOM     15  C   UNL     1      35.176 -20.964 -20.009  0.00  0.00    +0.019 C 
ENDBRANCH  11  13
ENDBRANCH   2  11
TORSDOF 3
ENDMDL
MODEL 6
REMARK VINA RESULT:      -7.0      2.574      3.131
REMARK  Name = 3748
REMARK  3 active torsions:
REMARK  status: ('A' for Active; 'I' for Inactive)
REMARK    1  A    between atoms: N_2  and  N_11
REMARK    2  A    between atoms: C_3  and  C_6
REMARK    3  A    between atoms: N_11  and  C_13
REMARK                            x       y       z     vdW  Elec       q    Type
REMARK                         _______ _______ _______ _____ _____    ______ ____
ROOT
ATOM      1  O   UNL     1      35.023 -15.841 -19.843  0.00  0.00    -0.269 OA
ATOM      2  N   UNL     1      35.012 -17.446 -21.520  0.00  0.00    -0.246 N 
ATOM      3  C   UNL     1      34.735 -16.201 -20.983  0.00  0.00    +0.259 C 
ATOM      4  H   UNL     1      34.748 -17.661 -22.444  0.00  0.00    +0.169 HD
ENDROOT
BRANCH   3   6
ATOM      5  N   UNL     1      32.670 -13.513 -23.544  0.00  0.00    -0.242 NA
ATOM      6  C   UNL     1      34.013 -15.260 -21.879  0.00  0.00    +0.058 C 
ATOM      7  C   UNL     1      34.422 -15.139 -23.186  0.00  0.00    +0.025 C 
ATOM      8  C   UNL     1      32.957 -14.538 -21.374  0.00  0.00    +0.025 C 
ATOM      9  C   UNL     1      33.716 -14.250 -23.980  0.00  0.00    +0.099 C 
ATOM     10  C   UNL     1      32.317 -13.677 -22.250  0.00  0.00    +0.099 C 
ENDBRANCH   3   6
BRANCH   2  11
ATOM     11  N   UNL     1      35.669 -18.386 -20.734  0.00  0.00    -0.231 NA
ATOM     12  H   UNL     1      35.495 -18.181 -19.751  0.00  0.00    +0.145 HD
BRANCH  11  13
ATOM     13  C   UNL     1      35.194 -19.720 -21.034  0.00  0.00    +0.072 C 
ATOM     14  C   UNL     1      33.690 -19.784 -20.792  0.00  0.00    +0.019 C 
ATOM     15  C   UNL     1      35.937 -20.730 -20.169  0.00  0.00    +0.019 C 
ENDBRANCH  11  13
ENDBRANCH   2  11
TORSDOF 3
ENDMDL
MODEL 7
REMARK VINA RESULT:      -6.9      2.251      5.498
REMARK  Name = 3748
REMARK  3 active torsions:
REMARK  status: ('A' for Active; 'I' for Inactive)
REMARK    1  A    between atoms: N_2  and  N_11
REMARK    2  A    between atoms: C_3  and  C_6
REMARK    3  A    between atoms: N_11  and  C_13
REMARK                            x       y       z     vdW  Elec       q    Type
REMARK                         _______ _______ _______ _____ _____    ______ ____
ROOT
ATOM      1  O   UNL     1      34.523 -19.319 -22.715  0.00  0.00    -0.269 OA
ATOM      2  N   UNL     1      35.250 -17.911 -21.019  0.00  0.00    -0.246 N 
ATOM      3  C   UNL     1      34.802 -19.115 -21.535  0.00  0.00    +0.259 C 
ATOM      4  H   UNL     1      35.452 -17.824 -20.059  0.00  0.00    +0.169 HD
ENDROOT
BRANCH   3   6
ATOM      5  N   UNL     1      34.339 -22.265 -18.722  0.00  0.00    -0.242 NA
ATOM      6  C   UNL     1      34.640 -20.217 -20.550  0.00  0.00    +0.058 C 
ATOM      7  C   UNL     1      33.372 -20.600 -20.183  0.00  0.00    +0.025 C 
ATOM      8  C   UNL     1      35.763 -20.820 -20.037  0.00  0.00    +0.025 C 
ATOM      9  C   UNL     1      33.275 -21.632 -19.263  0.00  0.00    +0.099 C 
ATOM     10  C   UNL     1      35.558 -21.843 -19.125  0.00  0.00    +0.099 C 
ENDBRANCH   3   6
BRANCH   2  11
ATOM     11  N   UNL     1      35.408 -16.829 -21.877  0.00  0.00    -0.231 NA
ATOM     12  H   UNL     1      35.487 -17.169 -22.834  0.00  0.00    +0.145 HD
BRANCH  11  13
ATOM     13  C   UNL     1      34.273 -15.935 -21.782  0.00  0.00    +0.072 C 
ATOM     14  C   UNL     1      34.248 -15.024 -23.003  0.00  0.00    +0.019 C 
ATOM     15  C   UNL     1      34.367 -15.130 -20.492  0.00  0.00    +0.019 C 
ENDBRANCH  11  13
ENDBRANCH   2  11
TORSDOF 3
ENDMDL
MODEL 8
REMARK VINA RESULT:      -6.8      1.829      2.549
REMARK  Name = 3748
REMARK  3 active torsions:
REMARK  status: ('A' for Active; 'I' for Inactive)
REMARK    1  A    between atoms: N_2  and  N_11
REMARK    2  A    between atoms: C_3  and  C_6
REMARK    3  A    between atoms: N_11  and  C_13
REMARK                            x       y       z     vdW  Elec       q    Type
REMARK                         _______ _______ _______ _____ _____    ______ ____
ROOT
ATOM      1  O   UNL     1      34.944 -16.158 -20.253  0.00  0.00    -0.269 OA
ATOM      2  N   UNL     1      35.340 -17.944 -21.681  0.00  0.00    -0.246 N 
ATOM      3  C   UNL     1      34.937 -16.655 -21.377  0.00  0.00    +0.259 C 
ATOM      4  H   UNL     1      35.304 -18.273 -22.609  0.00  0.00    +0.169 HD
ENDROOT
BRANCH   3   6
ATOM      5  N   UNL     1      33.533 -14.346 -24.656  0.00  0.00    -0.242 NA
ATOM      6  C   UNL     1      34.445 -15.847 -22.524  0.00  0.00    +0.058 C 
ATOM      7  C   UNL     1      34.172 -14.514 -22.330  0.00  0.00    +0.025 C 
ATOM      8  C   UNL     1      34.278 -16.458 -23.744  0.00  0.00    +0.025 C 
ATOM      9  C   UNL     1      33.717 -13.805 -23.431  0.00  0.00    +0.099 C 
ATOM     10  C   UNL     1      33.819 -15.661 -24.781  0.00  0.00    +0.099 C 
ENDBRANCH   3   6
BRANCH   2  11
ATOM     11  N   UNL     1      35.794 -18.766 -20.657  0.00  0.00    -0.231 NA
ATOM     12  H   UNL     1      35.453 -18.410 -19.765  0.00  0.00    +0.145 HD
BRANCH  11  13
ATOM     13  C   UNL     1      35.319 -20.120 -20.842  0.00  0.00    +0.072 C 
ATOM     14  C   UNL     1      33.811 -20.157 -20.626  0.00  0.00    +0.019 C 
ATOM     15  C   UNL     1      36.040 -21.049 -19.873  0.00  0.00    +0.019 C 
ENDBRANCH  11  13
ENDBRANCH   2  11
TORSDOF 3
ENDMDL
MODEL 9
REMARK VINA RESULT:      -6.8      3.372      4.800
REMARK  Name = 3748
REMARK  3 active torsions:
REMARK  status: ('A' for Active; 'I' for Inactive)
REMARK    1  A    between atoms: N_2  and  N_11
REMARK    2  A    between atoms: C_3  and  C_6
REMARK    3  A    between atoms: N_11  and  C_13
REMARK                            x       y       z     vdW  Elec       q    Type
REMARK                         _______ _______ _______ _____ _____    ______ ____
ROOT
ATOM      1  O   UNL     1      33.864 -23.484 -19.304  0.00  0.00    -0.269 OA
ATOM      2  N   UNL     1      34.990 -22.276 -17.673  0.00  0.00    -0.246 N 
ATOM      3  C   UNL     1      34.363 -22.438 -18.897  0.00  0.00    +0.259 C 
ATOM      4  H   UNL     1      35.367 -21.404 -17.417  0.00  0.00    +0.169 HD
ENDROOT
BRANCH   3   6
ATOM      5  N   UNL     1      34.263 -18.993 -21.382  0.00  0.00    -0.242 NA
ATOM      6  C   UNL     1      34.328 -21.232 -19.766  0.00  0.00    +0.058 C 
ATOM      7  C   UNL     1      35.508 -20.746 -20.277  0.00  0.00    +0.025 C 
ATOM      8  C   UNL     1      33.117 -20.639 -20.032  0.00  0.00    +0.025 C 
ATOM      9  C   UNL     1      35.421 -19.621 -21.082  0.00  0.00    +0.099 C 
ATOM     10  C   UNL     1      33.138 -19.520 -20.849  0.00  0.00    +0.099 C 
ENDBRANCH   3   6
BRANCH   2  11
ATOM     11  N   UNL     1      35.078 -23.366 -16.814  0.00  0.00    -0.231 NA
ATOM     12  H   UNL     1      35.402 -24.179 -17.336  0.00  0.00    +0.145 HD
BRANCH  11  13
ATOM     13  C   UNL     1      36.005 -23.091 -15.738  0.00  0.00    +0.072 C 
ATOM     14  C   UNL     1      37.240 -22.401 -16.303  0.00  0.00    +0.019 C 
ATOM     15  C   UNL     1      36.371 -24.394 -15.037  0.00  0.00    +0.019 C 
ENDBRANCH  11  13
ENDBRANCH   2  11
TORSDOF 3
ENDMDL
