MODEL 1
REMARK VINA RESULT:      -4.9      0.000      0.000
REMARK  Name = 222285
REMARK  7 active torsions:
REMARK  status: ('A' for Active; 'I' for Inactive)
REMARK    1  A    between atoms: C_1  and  O_2
REMARK    2  A    between atoms: C_1  and  C_4
REMARK    3  A    between atoms: C_1  and  C_10
REMARK    4  A    between atoms: C_4  and  O_5
REMARK    5  A    between atoms: C_4  and  C_7
REMARK    6  A    between atoms: C_7  and  O_8
REMARK    7  A    between atoms: C_10  and  O_11
REMARK                            x       y       z     vdW  Elec       q    Type
REMARK                         _______ _______ _______ _____ _____    ______ ____
ROOT
ATOM      1  C   UNL     1      37.582 -26.643 -14.198  0.00  0.00    +0.169 C 
ENDROOT
BRANCH   1   2
ATOM      2  O   UNL     1      36.946 -26.625 -12.919  0.00  0.00    -0.379 OA
ATOM      3  H   UNL     1      37.356 -27.290 -12.345  0.00  0.00    +0.211 HD
ENDBRANCH   1   2
BRANCH   1   4
ATOM      4  C   UNL     1      38.566 -25.470 -14.322  0.00  0.00    +0.169 C 
BRANCH   4   5
ATOM      5  O   UNL     1      38.172 -24.646 -15.420  0.00  0.00    -0.379 OA
ATOM      6  H   UNL     1      38.943 -24.461 -15.980  0.00  0.00    +0.211 HD
ENDBRANCH   4   5
BRANCH   4   7
ATOM      7  C   UNL     1      40.006 -25.921 -14.545  0.00  0.00    +0.169 C 
BRANCH   7   8
ATOM      8  O   UNL     1      40.290 -25.872 -15.940  0.00  0.00    -0.379 OA
ATOM      9  H   UNL     1      40.767 -25.052 -16.144  0.00  0.00    +0.211 HD
ENDBRANCH   7   8
ENDBRANCH   4   7
ENDBRANCH   1   4
BRANCH   1  10
ATOM     10  C   UNL     1      36.483 -26.584 -15.257  0.00  0.00    +0.169 C 
BRANCH  10  11
ATOM     11  O   UNL     1      36.898 -27.336 -16.394  0.00  0.00    -0.379 OA
ATOM     12  H   UNL     1      37.216 -26.732 -17.083  0.00  0.00    +0.211 HD
ENDBRANCH  10  11
ENDBRANCH   1  10
TORSDOF 7
ENDMDL
MODEL 2
REMARK VINA RESULT:      -4.9      0.911      2.007
REMARK  Name = 222285
REMARK  7 active torsions:
REMARK  status: ('A' for Active; 'I' for Inactive)
REMARK    1  A    between atoms: C_1  and  O_2
REMARK    2  A    between atoms: C_1  and  C_4
REMARK    3  A    between atoms: C_1  and  C_10
REMARK    4  A    between atoms: C_4  and  O_5
REMARK    5  A    between atoms: C_4  and  C_7
REMARK    6  A    between atoms: C_7  and  O_8
REMARK    7  A    between atoms: C_10  and  O_11
REMARK                            x       y       z     vdW  Elec       q    Type
REMARK                         _______ _______ _______ _____ _____    ______ ____
ROOT
ATOM      1  C   UNL     1      37.512 -25.703 -14.708  0.00  0.00    +0.169 C 
ENDROOT
BRANCH   1   2
ATOM      2  O   UNL     1      37.557 -26.569 -15.842  0.00  0.00    -0.379 OA
ATOM      3  H   UNL     1      37.429 -27.486 -15.554  0.00  0.00    +0.211 HD
ENDBRANCH   1   2
BRANCH   1   4
ATOM      4  C   UNL     1      38.824 -24.913 -14.588  0.00  0.00    +0.169 C 
BRANCH   4   5
ATOM      5  O   UNL     1      38.886 -23.951 -15.642  0.00  0.00    -0.379 OA
ATOM      6  H   UNL     1      39.702 -24.080 -16.152  0.00  0.00    +0.211 HD
ENDBRANCH   4   5
BRANCH   4   7
ATOM      7  C   UNL     1      40.063 -25.800 -14.667  0.00  0.00    +0.169 C 
BRANCH   7   8
ATOM      8  O   UNL     1      40.429 -25.956 -16.034  0.00  0.00    -0.379 OA
ATOM      9  H   UNL     1      41.279 -25.516 -16.193  0.00  0.00    +0.211 HD
ENDBRANCH   7   8
ENDBRANCH   4   7
ENDBRANCH   1   4
BRANCH   1  10
ATOM     10  C   UNL     1      37.252 -26.571 -13.479  0.00  0.00    +0.169 C 
BRANCH  10  11
ATOM     11  O   UNL     1      36.378 -25.872 -12.597  0.00  0.00    -0.379 OA
ATOM     12  H   UNL     1      35.639 -25.499 -13.102  0.00  0.00    +0.211 HD
ENDBRANCH  10  11
ENDBRANCH   1  10
TORSDOF 7
ENDMDL
MODEL 3
REMARK VINA RESULT:      -4.6      1.324      2.274
REMARK  Name = 222285
REMARK  7 active torsions:
REMARK  status: ('A' for Active; 'I' for Inactive)
REMARK    1  A    between atoms: C_1  and  O_2
REMARK    2  A    between atoms: C_1  and  C_4
REMARK    3  A    between atoms: C_1  and  C_10
REMARK    4  A    between atoms: C_4  and  O_5
REMARK    5  A    between atoms: C_4  and  C_7
REMARK    6  A    between atoms: C_7  and  O_8
REMARK    7  A    between atoms: C_10  and  O_11
REMARK                            x       y       z     vdW  Elec       q    Type
REMARK                         _______ _______ _______ _____ _____    ______ ____
ROOT
ATOM      1  C   UNL     1      38.024 -24.380 -14.747  0.00  0.00    +0.169 C 
ENDROOT
BRANCH   1   2
ATOM      2  O   UNL     1      38.675 -23.653 -15.790  0.00  0.00    -0.379 OA
ATOM      3  H   UNL     1      39.567 -23.402 -15.501  0.00  0.00    +0.211 HD
ENDBRANCH   1   2
BRANCH   1   4
ATOM      4  C   UNL     1      38.655 -25.773 -14.594  0.00  0.00    +0.169 C 
BRANCH   4   5
ATOM      5  O   UNL     1      38.304 -26.305 -13.315  0.00  0.00    -0.379 OA
ATOM      6  H   UNL     1      38.993 -26.921 -13.020  0.00  0.00    +0.211 HD
ENDBRANCH   4   5
BRANCH   4   7
ATOM      7  C   UNL     1      40.176 -25.753 -14.711  0.00  0.00    +0.169 C 
BRANCH   7   8
ATOM      8  O   UNL     1      40.535 -25.992 -16.069  0.00  0.00    -0.379 OA
ATOM      9  H   UNL     1      39.790 -25.761 -16.645  0.00  0.00    +0.211 HD
ENDBRANCH   7   8
ENDBRANCH   4   7
ENDBRANCH   1   4
BRANCH   1  10
ATOM     10  C   UNL     1      36.541 -24.459 -15.101  0.00  0.00    +0.169 C 
BRANCH  10  11
ATOM     11  O   UNL     1      36.241 -25.782 -15.538  0.00  0.00    -0.379 OA
ATOM     12  H   UNL     1      36.601 -26.421 -14.904  0.00  0.00    +0.211 HD
ENDBRANCH  10  11
ENDBRANCH   1  10
TORSDOF 7
ENDMDL
MODEL 4
REMARK VINA RESULT:      -4.6      1.645      3.076
REMARK  Name = 222285
REMARK  7 active torsions:
REMARK  status: ('A' for Active; 'I' for Inactive)
REMARK    1  A    between atoms: C_1  and  O_2
REMARK    2  A    between atoms: C_1  and  C_4
REMARK    3  A    between atoms: C_1  and  C_10
REMARK    4  A    between atoms: C_4  and  O_5
REMARK    5  A    between atoms: C_4  and  C_7
REMARK    6  A    between atoms: C_7  and  O_8
REMARK    7  A    between atoms: C_10  and  O_11
REMARK                            x       y       z     vdW  Elec       q    Type
REMARK                         _______ _______ _______ _____ _____    ______ ____
ROOT
ATOM      1  C   UNL     1      38.855 -25.658 -14.280  0.00  0.00    +0.169 C 
ENDROOT
BRANCH   1   2
ATOM      2  O   UNL     1      38.437 -26.975 -14.640  0.00  0.00    -0.379 OA
ATOM      3  H   UNL     1      38.043 -27.411 -13.869  0.00  0.00    +0.211 HD
ENDBRANCH   1   2
BRANCH   1   4
ATOM      4  C   UNL     1      37.939 -24.610 -14.932  0.00  0.00    +0.169 C 
BRANCH   4   5
ATOM      5  O   UNL     1      38.742 -23.676 -15.656  0.00  0.00    -0.379 OA
ATOM      6  H   UNL     1      38.168 -23.028 -16.095  0.00  0.00    +0.211 HD
ENDBRANCH   4   5
BRANCH   4   7
ATOM      7  C   UNL     1      37.096 -23.843 -13.918  0.00  0.00    +0.169 C 
BRANCH   7   8
ATOM      8  O   UNL     1      37.961 -23.265 -12.945  0.00  0.00    -0.379 OA
ATOM      9  H   UNL     1      38.231 -22.381 -13.238  0.00  0.00    +0.211 HD
ENDBRANCH   7   8
ENDBRANCH   4   7
ENDBRANCH   1   4
BRANCH   1  10
ATOM     10  C   UNL     1      40.309 -25.502 -14.722  0.00  0.00    +0.169 C 
BRANCH  10  11
ATOM     11  O   UNL     1      40.434 -25.962 -16.064  0.00  0.00    -0.379 OA
ATOM     12  H   UNL     1      39.657 -26.492 -16.299  0.00  0.00    +0.211 HD
ENDBRANCH  10  11
ENDBRANCH   1  10
TORSDOF 7
ENDMDL
MODEL 5
REMARK VINA RESULT:      -4.6      1.213      2.788
REMARK  Name = 222285
REMARK  7 active torsions:
REMARK  status: ('A' for Active; 'I' for Inactive)
REMARK    1  A    between atoms: C_1  and  O_2
REMARK    2  A    between atoms: C_1  and  C_4
REMARK    3  A    between atoms: C_1  and  C_10
REMARK    4  A    between atoms: C_4  and  O_5
REMARK    5  A    between atoms: C_4  and  C_7
REMARK    6  A    between atoms: C_7  and  O_8
REMARK    7  A    between atoms: C_10  and  O_11
REMARK                            x       y       z     vdW  Elec       q    Type
REMARK                         _______ _______ _______ _____ _____    ______ ____
ROOT
ATOM      1  C   UNL     1      39.231 -25.218 -13.883  0.00  0.00    +0.169 C 
ENDROOT
BRANCH   1   2
ATOM      2  O   UNL     1      38.622 -26.305 -13.183  0.00  0.00    -0.379 OA
ATOM      3  H   UNL     1      39.262 -26.692 -12.566  0.00  0.00    +0.211 HD
ENDBRANCH   1   2
BRANCH   1   4
ATOM      4  C   UNL     1      38.252 -24.627 -14.908  0.00  0.00    +0.169 C 
BRANCH   4   5
ATOM      5  O   UNL     1      37.902 -23.301 -14.507  0.00  0.00    -0.379 OA
ATOM      6  H   UNL     1      37.978 -22.702 -15.266  0.00  0.00    +0.211 HD
ENDBRANCH   4   5
BRANCH   4   7
ATOM      7  C   UNL     1      36.972 -25.445 -15.050  0.00  0.00    +0.169 C 
BRANCH   7   8
ATOM      8  O   UNL     1      37.263 -26.627 -15.790  0.00  0.00    -0.379 OA
ATOM      9  H   UNL     1      37.630 -26.385 -16.655  0.00  0.00    +0.211 HD
ENDBRANCH   7   8
ENDBRANCH   4   7
ENDBRANCH   1   4
BRANCH   1  10
ATOM     10  C   UNL     1      40.500 -25.754 -14.544  0.00  0.00    +0.169 C 
BRANCH  10  11
ATOM     11  O   UNL     1      40.274 -25.873 -15.945  0.00  0.00    -0.379 OA
ATOM     12  H   UNL     1      41.083 -25.638 -16.425  0.00  0.00    +0.211 HD
ENDBRANCH  10  11
ENDBRANCH   1  10
TORSDOF 7
ENDMDL
MODEL 6
REMARK VINA RESULT:      -4.6      1.666      2.456
REMARK  Name = 222285
REMARK  7 active torsions:
REMARK  status: ('A' for Active; 'I' for Inactive)
REMARK    1  A    between atoms: C_1  and  O_2
REMARK    2  A    between atoms: C_1  and  C_4
REMARK    3  A    between atoms: C_1  and  C_10
REMARK    4  A    between atoms: C_4  and  O_5
REMARK    5  A    between atoms: C_4  and  C_7
REMARK    6  A    between atoms: C_7  and  O_8
REMARK    7  A    between atoms: C_10  and  O_11
REMARK                            x       y       z     vdW  Elec       q    Type
REMARK                         _______ _______ _______ _____ _____    ______ ____
ROOT
ATOM      1  C   UNL     1      38.209 -25.057 -13.206  0.00  0.00    +0.169 C 
ENDROOT
BRANCH   1   2
ATOM      2  O   UNL     1      38.233 -23.629 -13.170  0.00  0.00    -0.379 OA
ATOM      3  H   UNL     1      38.306 -23.284 -14.073  0.00  0.00    +0.211 HD
ENDBRANCH   1   2
BRANCH   1   4
ATOM      4  C   UNL     1      38.632 -25.562 -14.594  0.00  0.00    +0.169 C 
BRANCH   4   5
ATOM      5  O   UNL     1      38.524 -26.987 -14.623  0.00  0.00    -0.379 OA
ATOM      6  H   UNL     1      39.234 -27.377 -14.089  0.00  0.00    +0.211 HD
ENDBRANCH   4   5
BRANCH   4   7
ATOM      7  C   UNL     1      40.063 -25.176 -14.958  0.00  0.00    +0.169 C 
BRANCH   7   8
ATOM      8  O   UNL     1      40.507 -26.014 -16.021  0.00  0.00    -0.379 OA
ATOM      9  H   UNL     1      41.070 -25.502 -16.622  0.00  0.00    +0.211 HD
ENDBRANCH   7   8
ENDBRANCH   4   7
ENDBRANCH   1   4
BRANCH   1  10
ATOM     10  C   UNL     1      36.795 -25.501 -12.841  0.00  0.00    +0.169 C 
BRANCH  10  11
ATOM     11  O   UNL     1      36.873 -26.674 -12.037  0.00  0.00    -0.379 OA
ATOM     12  H   UNL     1      36.133 -27.263 -12.251  0.00  0.00    +0.211 HD
ENDBRANCH  10  11
ENDBRANCH   1  10
TORSDOF 7
ENDMDL
MODEL 7
REMARK VINA RESULT:      -4.5      2.904      4.213
REMARK  Name = 222285
REMARK  7 active torsions:
REMARK  status: ('A' for Active; 'I' for Inactive)
REMARK    1  A    between atoms: C_1  and  O_2
REMARK    2  A    between atoms: C_1  and  C_4
REMARK    3  A    between atoms: C_1  and  C_10
REMARK    4  A    between atoms: C_4  and  O_5
REMARK    5  A    between atoms: C_4  and  C_7
REMARK    6  A    between atoms: C_7  and  O_8
REMARK    7  A    between atoms: C_10  and  O_11
REMARK                            x       y       z     vdW  Elec       q    Type
REMARK                         _______ _______ _______ _____ _____    ______ ____
ROOT
ATOM      1  C   UNL     1      37.975 -25.294 -12.243  0.00  0.00    +0.169 C 
ENDROOT
BRANCH   1   2
ATOM      2  O   UNL     1      36.997 -26.274 -11.892  0.00  0.00    -0.379 OA
ATOM      3  H   UNL     1      36.707 -26.742 -12.691  0.00  0.00    +0.211 HD
ENDBRANCH   1   2
BRANCH   1   4
ATOM      4  C   UNL     1      37.371 -23.884 -12.165  0.00  0.00    +0.169 C 
BRANCH   4   5
ATOM      5  O   UNL     1      38.330 -22.997 -11.587  0.00  0.00    -0.379 OA
ATOM      6  H   UNL     1      37.924 -22.517 -10.848  0.00  0.00    +0.211 HD
ENDBRANCH   4   5
BRANCH   4   7
ATOM      7  C   UNL     1      36.094 -23.829 -11.330  0.00  0.00    +0.169 C 
BRANCH   7   8
ATOM      8  O   UNL     1      36.432 -24.037  -9.962  0.00  0.00    -0.379 OA
ATOM      9  H   UNL     1      36.411 -23.189  -9.492  0.00  0.00    +0.211 HD
ENDBRANCH   7   8
ENDBRANCH   4   7
ENDBRANCH   1   4
BRANCH   1  10
ATOM     10  C   UNL     1      38.473 -25.627 -13.648  0.00  0.00    +0.169 C 
BRANCH  10  11
ATOM     11  O   UNL     1      39.023 -24.450 -14.233  0.00  0.00    -0.379 OA
ATOM     12  H   UNL     1      39.142 -23.774 -13.548  0.00  0.00    +0.211 HD
ENDBRANCH  10  11
ENDBRANCH   1  10
TORSDOF 7
ENDMDL
MODEL 8
REMARK VINA RESULT:      -4.5      1.902      3.096
REMARK  Name = 222285
REMARK  7 active torsions:
REMARK  status: ('A' for Active; 'I' for Inactive)
REMARK    1  A    between atoms: C_1  and  O_2
REMARK    2  A    between atoms: C_1  and  C_4
REMARK    3  A    between atoms: C_1  and  C_10
REMARK    4  A    between atoms: C_4  and  O_5
REMARK    5  A    between atoms: C_4  and  C_7
REMARK    6  A    between atoms: C_7  and  O_8
REMARK    7  A    between atoms: C_10  and  O_11
REMARK                            x       y       z     vdW  Elec       q    Type
REMARK                         _______ _______ _______ _____ _____    ______ ____
ROOT
ATOM      1  C   UNL     1      37.993 -25.878 -14.219  0.00  0.00    +0.169 C 
ENDROOT
BRANCH   1   2
ATOM      2  O   UNL     1      38.484 -27.140 -14.671  0.00  0.00    -0.379 OA
ATOM      3  H   UNL     1      37.825 -27.555 -15.249  0.00  0.00    +0.211 HD
ENDBRANCH   1   2
BRANCH   1   4
ATOM      4  C   UNL     1      38.024 -25.812 -12.684  0.00  0.00    +0.169 C 
BRANCH   4   5
ATOM      5  O   UNL     1      36.845 -26.431 -12.167  0.00  0.00    -0.379 OA
ATOM      6  H   UNL     1      36.089 -26.212 -12.734  0.00  0.00    +0.211 HD
ENDBRANCH   4   5
BRANCH   4   7
ATOM      7  C   UNL     1      38.096 -24.384 -12.151  0.00  0.00    +0.169 C 
BRANCH   7   8
ATOM      8  O   UNL     1      37.295 -24.292 -10.977  0.00  0.00    -0.379 OA
ATOM      9  H   UNL     1      37.249 -23.367 -10.689  0.00  0.00    +0.211 HD
ENDBRANCH   7   8
ENDBRANCH   4   7
ENDBRANCH   1   4
BRANCH   1  10
ATOM     10  C   UNL     1      36.579 -25.712 -14.771  0.00  0.00    +0.169 C 
BRANCH  10  11
ATOM     11  O   UNL     1      36.028 -27.002 -15.021  0.00  0.00    -0.379 OA
ATOM     12  H   UNL     1      35.359 -26.938 -15.720  0.00  0.00    +0.211 HD
ENDBRANCH  10  11
ENDBRANCH   1  10
TORSDOF 7
ENDMDL
MODEL 9
REMARK VINA RESULT:      -4.5     11.169     12.276
REMARK  Name = 222285
REMARK  7 active torsions:
REMARK  status: ('A' for Active; 'I' for Inactive)
REMARK    1  A    between atoms: C_1  and  O_2
REMARK    2  A    between atoms: C_1  and  C_4
REMARK    3  A    between atoms: C_1  and  C_10
REMARK    4  A    between atoms: C_4  and  O_5
REMARK    5  A    between atoms: C_4  and  C_7
REMARK    6  A    between atoms: C_7  and  O_8
REMARK    7  A    between atoms: C_10  and  O_11
REMARK                            x       y       z     vdW  Elec       q    Type
REMARK                         _______ _______ _______ _____ _____    ______ ____
ROOT
ATOM      1  C   UNL     1      41.398 -14.636 -16.647  0.00  0.00    +0.169 C 
ENDROOT
BRANCH   1   2
ATOM      2  O   UNL     1      41.929 -13.327 -16.861  0.00  0.00    -0.379 OA
ATOM      3  H   UNL     1      42.351 -13.013 -16.047  0.00  0.00    +0.211 HD
ENDBRANCH   1   2
BRANCH   1   4
ATOM      4  C   UNL     1      41.085 -14.848 -15.158  0.00  0.00    +0.169 C 
BRANCH   4   5
ATOM      5  O   UNL     1      40.106 -15.881 -15.030  0.00  0.00    -0.379 OA
ATOM      6  H   UNL     1      39.319 -15.646 -15.546  0.00  0.00    +0.211 HD
ENDBRANCH   4   5
BRANCH   4   7
ATOM      7  C   UNL     1      40.556 -13.590 -14.476  0.00  0.00    +0.169 C 
BRANCH   7   8
ATOM      8  O   UNL     1      40.933 -13.620 -13.103  0.00  0.00    -0.379 OA
ATOM      9  H   UNL     1      41.809 -14.027 -13.017  0.00  0.00    +0.211 HD
ENDBRANCH   7   8
ENDBRANCH   4   7
ENDBRANCH   1   4
BRANCH   1  10
ATOM     10  C   UNL     1      42.427 -15.638 -17.165  0.00  0.00    +0.169 C 
BRANCH  10  11
ATOM     11  O   UNL     1      42.836 -16.477 -16.088  0.00  0.00    -0.379 OA
ATOM     12  H   UNL     1      42.212 -17.213 -15.996  0.00  0.00    +0.211 HD
ENDBRANCH  10  11
ENDBRANCH   1  10
TORSDOF 7
ENDMDL
