MODEL 1
REMARK VINA RESULT:     -11.1      0.000      0.000
REMARK  Name = 5330197
REMARK  7 active torsions:
REMARK  status: ('A' for Active; 'I' for Inactive)
REMARK    1  A    between atoms: N_1  and  C_16
REMARK    2  A    between atoms: C_4  and  O_25
REMARK    3  A    between atoms: C_5  and  O_23
REMARK    4  A    between atoms: O_25  and  C_26
REMARK    5  A    between atoms: C_26  and  C_27
REMARK    6  A    between atoms: C_27  and  C_28
REMARK    7  A    between atoms: C_28  and  N_29
REMARK                            x       y       z     vdW  Elec       q    Type
REMARK                         _______ _______ _______ _____ _____    ______ ____
ROOT
ATOM      1  N   UNL     1      32.949 -13.868 -23.697  0.00  0.00    -0.295 N 
ATOM      2  N   UNL     1      34.149 -10.007 -24.582  0.00  0.00    -0.248 NA
ATOM      3  N   UNL     1      34.176 -12.373 -25.038  0.00  0.00    -0.230 NA
ATOM      4  C   UNL     1      32.022  -9.330 -21.678  0.00  0.00    +0.156 C 
ATOM      5  C   UNL     1      31.593 -10.610 -21.344  0.00  0.00    +0.169 C 
ATOM      6  C   UNL     1      32.879  -9.140 -22.766  0.00  0.00    +0.112 C 
ATOM      7  C   UNL     1      32.884 -11.497 -23.192  0.00  0.00    +0.048 C 
ATOM      8  C   UNL     1      33.324 -10.209 -23.538  0.00  0.00    +0.066 C 
ATOM      9  C   UNL     1      32.023 -11.697 -22.099  0.00  0.00    +0.044 C 
ATOM     10  C   UNL     1      33.350 -12.540 -23.987  0.00  0.00    +0.131 C 
ATOM     11  C   UNL     1      34.531 -11.100 -25.274  0.00  0.00    +0.252 C 
ATOM     12  H   UNL     1      32.056 -13.933 -23.288  0.00  0.00    +0.154 HD
ENDROOT
BRANCH   1  16
ATOM     13 CL   UNL     1      32.932 -14.998 -26.530  0.00  0.00    -0.081 Cl
ATOM     14  O   UNL     1      34.206 -15.310 -21.531  0.00  0.00    -0.433 OA
ATOM     15  O   UNL     1      35.295 -17.444 -21.790  0.00  0.00    -0.435 OA
ATOM     16  C   UNL     1      33.578 -15.110 -23.882  0.00  0.00    +0.098 C 
ATOM     17  C   UNL     1      34.163 -15.760 -22.815  0.00  0.00    +0.190 C 
ATOM     18  C   UNL     1      34.785 -16.979 -22.963  0.00  0.00    +0.178 C 
ATOM     19  C   UNL     1      33.636 -15.732 -25.131  0.00  0.00    +0.074 C 
ATOM     20  C   UNL     1      34.857 -17.614 -24.186  0.00  0.00    +0.041 C 
ATOM     21  C   UNL     1      34.923 -16.383 -20.888  0.00  0.00    +0.429 C 
ATOM     22  C   UNL     1      34.272 -16.977 -25.283  0.00  0.00    +0.016 C 
ENDBRANCH   1  16
BRANCH   5  23
ATOM     23  O   UNL     1      30.757 -10.810 -20.288  0.00  0.00    -0.469 OA
ATOM     24  C   UNL     1      31.356 -10.921 -18.997  0.00  0.00    +0.253 C 
ENDBRANCH   5  23
BRANCH   4  25
ATOM     25  O   UNL     1      31.611  -8.245 -20.949  0.00  0.00    -0.476 OA
BRANCH  25  26
ATOM     26  C   UNL     1      32.412  -7.074 -21.033  0.00  0.00    +0.203 C 
BRANCH  26  27
ATOM     27  C   UNL     1      31.512  -5.882 -21.326  0.00  0.00    +0.025 C 
BRANCH  27  28
ATOM     28  C   UNL     1      30.922  -5.958 -22.730  0.00  0.00    -0.074 C 
BRANCH  28  29
ATOM     29  N   UNL     1      31.776  -5.245 -23.680  0.00  0.00    +0.387 N 
ATOM     30  C   UNL     1      31.030  -4.159 -24.329  0.00  0.00    -0.077 C 
ATOM     31  C   UNL     1      32.329  -6.177 -24.673  0.00  0.00    -0.077 C 
ATOM     32  C   UNL     1      31.922  -3.371 -25.288  0.00  0.00    -0.023 C 
ATOM     33  C   UNL     1      33.265  -5.455 -25.644  0.00  0.00    -0.023 C 
ATOM     34  C   UNL     1      32.563  -4.287 -26.327  0.00  0.00    -0.004 C 
ATOM     35  H   UNL     1      32.555  -4.829 -23.170  0.00  0.00    -0.080 HD
ENDBRANCH  28  29
ENDBRANCH  27  28
ENDBRANCH  26  27
ENDBRANCH  25  26
ENDBRANCH   4  25
TORSDOF 7
ENDMDL
MODEL 2
REMARK VINA RESULT:     -10.7      3.185     10.260
REMARK  Name = 5330197
REMARK  7 active torsions:
REMARK  status: ('A' for Active; 'I' for Inactive)
REMARK    1  A    between atoms: N_1  and  C_16
REMARK    2  A    between atoms: C_4  and  O_25
REMARK    3  A    between atoms: C_5  and  O_23
REMARK    4  A    between atoms: O_25  and  C_26
REMARK    5  A    between atoms: C_26  and  C_27
REMARK    6  A    between atoms: C_27  and  C_28
REMARK    7  A    between atoms: C_28  and  N_29
REMARK                            x       y       z     vdW  Elec       q    Type
REMARK                         _______ _______ _______ _____ _____    ______ ____
ROOT
ATOM      1  N   UNL     1      33.640 -11.425 -23.502  0.00  0.00    -0.295 N 
ATOM      2  N   UNL     1      33.573 -14.007 -26.737  0.00  0.00    -0.248 NA
ATOM      3  N   UNL     1      33.446 -11.781 -25.820  0.00  0.00    -0.230 NA
ATOM      4  C   UNL     1      34.076 -16.430 -24.037  0.00  0.00    +0.156 C 
ATOM      5  C   UNL     1      34.106 -15.601 -22.922  0.00  0.00    +0.169 C 
ATOM      6  C   UNL     1      33.897 -15.884 -25.312  0.00  0.00    +0.112 C 
ATOM      7  C   UNL     1      33.776 -13.686 -24.368  0.00  0.00    +0.048 C 
ATOM      8  C   UNL     1      33.744 -14.514 -25.503  0.00  0.00    +0.066 C 
ATOM      9  C   UNL     1      33.955 -14.227 -23.084  0.00  0.00    +0.044 C 
ATOM     10  C   UNL     1      33.620 -12.322 -24.599  0.00  0.00    +0.131 C 
ATOM     11  C   UNL     1      33.432 -12.668 -26.828  0.00  0.00    +0.252 C 
ATOM     12  H   UNL     1      34.200 -11.728 -22.752  0.00  0.00    +0.154 HD
ENDROOT
BRANCH   1  16
ATOM     13 CL   UNL     1      30.972 -11.481 -22.025  0.00  0.00    -0.081 Cl
ATOM     14  O   UNL     1      34.796  -8.928 -24.384  0.00  0.00    -0.433 OA
ATOM     15  O   UNL     1      33.773  -6.775 -24.034  0.00  0.00    -0.435 OA
ATOM     16  C   UNL     1      33.019 -10.186 -23.280  0.00  0.00    +0.098 C 
ATOM     17  C   UNL     1      33.610  -9.020 -23.723  0.00  0.00    +0.190 C 
ATOM     18  C   UNL     1      33.026  -7.790 -23.522  0.00  0.00    +0.178 C 
ATOM     19  C   UNL     1      31.795 -10.079 -22.616  0.00  0.00    +0.074 C 
ATOM     20  C   UNL     1      31.818  -7.658 -22.869  0.00  0.00    +0.041 C 
ATOM     21  C   UNL     1      34.892  -7.502 -24.579  0.00  0.00    +0.429 C 
ATOM     22  C   UNL     1      31.197  -8.823 -22.412  0.00  0.00    +0.016 C 
ENDBRANCH   1  16
BRANCH   5  23
ATOM     23  O   UNL     1      34.281 -16.118 -21.675  0.00  0.00    -0.469 OA
ATOM     24  C   UNL     1      34.534 -15.193 -20.618  0.00  0.00    +0.253 C 
ENDBRANCH   5  23
BRANCH   4  25
ATOM     25  O   UNL     1      34.223 -17.786 -23.902  0.00  0.00    -0.476 OA
BRANCH  25  26
ATOM     26  C   UNL     1      35.529 -18.264 -23.605  0.00  0.00    +0.203 C 
BRANCH  26  27
ATOM     27  C   UNL     1      35.416 -19.446 -22.653  0.00  0.00    +0.025 C 
BRANCH  27  28
ATOM     28  C   UNL     1      35.920 -19.090 -21.258  0.00  0.00    -0.074 C 
BRANCH  28  29
ATOM     29  N   UNL     1      35.226 -19.889 -20.248  0.00  0.00    +0.387 N 
ATOM     30  C   UNL     1      35.975 -21.121 -19.963  0.00  0.00    -0.077 C 
ATOM     31  C   UNL     1      33.855 -20.189 -20.681  0.00  0.00    -0.077 C 
ATOM     32  C   UNL     1      35.289 -21.945 -18.872  0.00  0.00    -0.023 C 
ATOM     33  C   UNL     1      33.100 -20.981 -19.613  0.00  0.00    -0.023 C 
ATOM     34  C   UNL     1      33.844 -22.259 -19.241  0.00  0.00    -0.004 C 
ATOM     35  H   UNL     1      35.173 -19.348 -19.384  0.00  0.00    -0.080 HD
ENDBRANCH  28  29
ENDBRANCH  27  28
ENDBRANCH  26  27
ENDBRANCH  25  26
ENDBRANCH   4  25
TORSDOF 7
ENDMDL
MODEL 3
REMARK VINA RESULT:     -10.7      3.131     10.258
REMARK  Name = 5330197
REMARK  7 active torsions:
REMARK  status: ('A' for Active; 'I' for Inactive)
REMARK    1  A    between atoms: N_1  and  C_16
REMARK    2  A    between atoms: C_4  and  O_25
REMARK    3  A    between atoms: C_5  and  O_23
REMARK    4  A    between atoms: O_25  and  C_26
REMARK    5  A    between atoms: C_26  and  C_27
REMARK    6  A    between atoms: C_27  and  C_28
REMARK    7  A    between atoms: C_28  and  N_29
REMARK                            x       y       z     vdW  Elec       q    Type
REMARK                         _______ _______ _______ _____ _____    ______ ____
ROOT
ATOM      1  N   UNL     1      32.482 -10.064 -23.462  0.00  0.00    -0.295 N 
ATOM      2  N   UNL     1      31.723 -11.879 -19.821  0.00  0.00    -0.248 NA
ATOM      3  N   UNL     1      31.801  -9.915 -21.215  0.00  0.00    -0.230 NA
ATOM      4  C   UNL     1      32.778 -14.809 -21.750  0.00  0.00    +0.156 C 
ATOM      5  C   UNL     1      33.045 -14.242 -22.991  0.00  0.00    +0.169 C 
ATOM      6  C   UNL     1      32.334 -14.006 -20.694  0.00  0.00    +0.112 C 
ATOM      7  C   UNL     1      32.423 -12.074 -22.107  0.00  0.00    +0.048 C 
ATOM      8  C   UNL     1      32.150 -12.635 -20.848  0.00  0.00    +0.066 C 
ATOM      9  C   UNL     1      32.869 -12.873 -23.173  0.00  0.00    +0.044 C 
ATOM     10  C   UNL     1      32.226 -10.701 -22.222  0.00  0.00    +0.131 C 
ATOM     11  C   UNL     1      31.573 -10.560 -20.060  0.00  0.00    +0.252 C 
ATOM     12  H   UNL     1      32.331 -10.643 -24.244  0.00  0.00    +0.154 HD
ENDROOT
BRANCH   1  16
ATOM     13 CL   UNL     1      35.337  -9.785 -24.500  0.00  0.00    -0.081 Cl
ATOM     14  O   UNL     1      30.771  -7.752 -23.184  0.00  0.00    -0.433 OA
ATOM     15  O   UNL     1      31.448  -5.505 -23.729  0.00  0.00    -0.435 OA
ATOM     16  C   UNL     1      32.907  -8.767 -23.791  0.00  0.00    +0.098 C 
ATOM     17  C   UNL     1      32.053  -7.694 -23.639  0.00  0.00    +0.190 C 
ATOM     18  C   UNL     1      32.439  -6.410 -23.951  0.00  0.00    +0.178 C 
ATOM     19  C   UNL     1      34.191  -8.508 -24.276  0.00  0.00    +0.074 C 
ATOM     20  C   UNL     1      33.702  -6.129 -24.431  0.00  0.00    +0.041 C 
ATOM     21  C   UNL     1      30.395  -6.361 -23.243  0.00  0.00    +0.429 C 
ATOM     22  C   UNL     1      34.587  -7.198 -24.594  0.00  0.00    +0.016 C 
ENDBRANCH   1  16
BRANCH   5  23
ATOM     23  O   UNL     1      33.475 -15.011 -24.029  0.00  0.00    -0.469 OA
ATOM     24  C   UNL     1      33.088 -14.606 -25.341  0.00  0.00    +0.253 C 
ENDBRANCH   5  23
BRANCH   4  25
ATOM     25  O   UNL     1      32.943 -16.154 -21.548  0.00  0.00    -0.476 OA
BRANCH  25  26
ATOM     26  C   UNL     1      34.241 -16.591 -21.167  0.00  0.00    +0.203 C 
BRANCH  26  27
ATOM     27  C   UNL     1      34.678 -17.709 -22.102  0.00  0.00    +0.025 C 
BRANCH  27  28
ATOM     28  C   UNL     1      35.796 -18.547 -21.489  0.00  0.00    -0.074 C 
BRANCH  28  29
ATOM     29  N   UNL     1      35.255 -19.456 -20.479  0.00  0.00    +0.387 N 
ATOM     30  C   UNL     1      36.218 -20.524 -20.180  0.00  0.00    -0.077 C 
ATOM     31  C   UNL     1      33.968 -20.009 -20.922  0.00  0.00    -0.077 C 
ATOM     32  C   UNL     1      35.689 -21.456 -19.089  0.00  0.00    -0.023 C 
ATOM     33  C   UNL     1      33.365 -20.924 -19.855  0.00  0.00    -0.023 C 
ATOM     34  C   UNL     1      34.331 -22.038 -19.467  0.00  0.00    -0.004 C 
ATOM     35  H   UNL     1      35.093 -18.930 -19.620  0.00  0.00    -0.080 HD
ENDBRANCH  28  29
ENDBRANCH  27  28
ENDBRANCH  26  27
ENDBRANCH  25  26
ENDBRANCH   4  25
TORSDOF 7
ENDMDL
MODEL 4
REMARK VINA RESULT:     -10.7      3.360      5.543
REMARK  Name = 5330197
REMARK  7 active torsions:
REMARK  status: ('A' for Active; 'I' for Inactive)
REMARK    1  A    between atoms: N_1  and  C_16
REMARK    2  A    between atoms: C_4  and  O_25
REMARK    3  A    between atoms: C_5  and  O_23
REMARK    4  A    between atoms: O_25  and  C_26
REMARK    5  A    between atoms: C_26  and  C_27
REMARK    6  A    between atoms: C_27  and  C_28
REMARK    7  A    between atoms: C_28  and  N_29
REMARK                            x       y       z     vdW  Elec       q    Type
REMARK                         _______ _______ _______ _____ _____    ______ ____
ROOT
ATOM      1  N   UNL     1      34.178 -18.380 -21.629  0.00  0.00    -0.295 N 
ATOM      2  N   UNL     1      34.389 -17.023 -25.534  0.00  0.00    -0.248 NA
ATOM      3  N   UNL     1      34.611 -18.786 -23.906  0.00  0.00    -0.230 NA
ATOM      4  C   UNL     1      33.347 -13.929 -23.872  0.00  0.00    +0.156 C 
ATOM      5  C   UNL     1      33.263 -14.341 -22.548  0.00  0.00    +0.169 C 
ATOM      6  C   UNL     1      33.725 -14.838 -24.865  0.00  0.00    +0.112 C 
ATOM      7  C   UNL     1      33.937 -16.568 -23.223  0.00  0.00    +0.048 C 
ATOM      8  C   UNL     1      34.026 -16.163 -24.565  0.00  0.00    +0.066 C 
ATOM      9  C   UNL     1      33.558 -15.661 -22.218  0.00  0.00    +0.044 C 
ATOM     10  C   UNL     1      34.245 -17.900 -22.961  0.00  0.00    +0.131 C 
ATOM     11  C   UNL     1      34.662 -18.287 -25.152  0.00  0.00    +0.252 C 
ATOM     12  H   UNL     1      33.507 -17.920 -21.075  0.00  0.00    +0.154 HD
ENDROOT
BRANCH   1  16
ATOM     13 CL   UNL     1      37.215 -18.353 -21.910  0.00  0.00    -0.081 Cl
ATOM     14  O   UNL     1      32.852 -20.393 -20.035  0.00  0.00    -0.433 OA
ATOM     15  O   UNL     1      34.006 -22.144 -18.850  0.00  0.00    -0.435 OA
ATOM     16  C   UNL     1      34.881 -19.387 -20.949  0.00  0.00    +0.098 C 
ATOM     17  C   UNL     1      34.201 -20.327 -20.201  0.00  0.00    +0.190 C 
ATOM     18  C   UNL     1      34.861 -21.328 -19.524  0.00  0.00    +0.178 C 
ATOM     19  C   UNL     1      36.273 -19.482 -20.999  0.00  0.00    +0.074 C 
ATOM     20  C   UNL     1      36.235 -21.443 -19.557  0.00  0.00    +0.041 C 
ATOM     21  C   UNL     1      32.736 -21.548 -19.179  0.00  0.00    +0.429 C 
ATOM     22  C   UNL     1      36.946 -20.504 -20.308  0.00  0.00    +0.016 C 
ENDBRANCH   1  16
BRANCH   5  23
ATOM     23  O   UNL     1      32.894 -13.468 -21.570  0.00  0.00    -0.469 OA
ATOM     24  C   UNL     1      32.574 -14.020 -20.293  0.00  0.00    +0.253 C 
ENDBRANCH   5  23
BRANCH   4  25
ATOM     25  O   UNL     1      33.061 -12.635 -24.220  0.00  0.00    -0.476 OA
BRANCH  25  26
ATOM     26  C   UNL     1      34.115 -11.877 -24.799  0.00  0.00    +0.203 C 
BRANCH  26  27
ATOM     27  C   UNL     1      34.122 -10.488 -24.178  0.00  0.00    +0.025 C 
BRANCH  27  28
ATOM     28  C   UNL     1      32.856 -10.232 -23.367  0.00  0.00    -0.074 C 
BRANCH  28  29
ATOM     29  N   UNL     1      32.950  -8.949 -22.669  0.00  0.00    +0.387 N 
ATOM     30  C   UNL     1      32.300  -9.030 -21.354  0.00  0.00    -0.077 C 
ATOM     31  C   UNL     1      32.367  -7.876 -23.486  0.00  0.00    -0.077 C 
ATOM     32  C   UNL     1      32.433  -7.712 -20.590  0.00  0.00    -0.023 C 
ATOM     33  C   UNL     1      32.503  -6.520 -22.792  0.00  0.00    -0.023 C 
ATOM     34  C   UNL     1      31.880  -6.544 -21.400  0.00  0.00    -0.004 C 
ATOM     35  H   UNL     1      33.935  -8.731 -22.519  0.00  0.00    -0.080 HD
ENDBRANCH  28  29
ENDBRANCH  27  28
ENDBRANCH  26  27
ENDBRANCH  25  26
ENDBRANCH   4  25
TORSDOF 7
ENDMDL
MODEL 5
REMARK VINA RESULT:     -10.6      3.404     10.545
REMARK  Name = 5330197
REMARK  7 active torsions:
REMARK  status: ('A' for Active; 'I' for Inactive)
REMARK    1  A    between atoms: N_1  and  C_16
REMARK    2  A    between atoms: C_4  and  O_25
REMARK    3  A    between atoms: C_5  and  O_23
REMARK    4  A    between atoms: O_25  and  C_26
REMARK    5  A    between atoms: C_26  and  C_27
REMARK    6  A    between atoms: C_27  and  C_28
REMARK    7  A    between atoms: C_28  and  N_29
REMARK                            x       y       z     vdW  Elec       q    Type
REMARK                         _______ _______ _______ _____ _____    ______ ____
ROOT
ATOM      1  N   UNL     1      34.092 -12.413 -23.725  0.00  0.00    -0.295 N 
ATOM      2  N   UNL     1      33.445 -15.517 -26.386  0.00  0.00    -0.248 NA
ATOM      3  N   UNL     1      33.400 -13.169 -25.844  0.00  0.00    -0.230 NA
ATOM      4  C   UNL     1      34.686 -17.427 -23.518  0.00  0.00    +0.156 C 
ATOM      5  C   UNL     1      34.918 -16.417 -22.592  0.00  0.00    +0.169 C 
ATOM      6  C   UNL     1      34.192 -17.113 -24.787  0.00  0.00    +0.112 C 
ATOM      7  C   UNL     1      34.160 -14.787 -24.216  0.00  0.00    +0.048 C 
ATOM      8  C   UNL     1      33.920 -15.799 -25.160  0.00  0.00    +0.066 C 
ATOM      9  C   UNL     1      34.656 -15.094 -22.937  0.00  0.00    +0.044 C 
ATOM     10  C   UNL     1      33.876 -13.487 -24.625  0.00  0.00    +0.131 C 
ATOM     11  C   UNL     1      33.210 -14.217 -26.661  0.00  0.00    +0.252 C 
ATOM     12  H   UNL     1      34.824 -12.572 -23.086  0.00  0.00    +0.154 HD
ENDROOT
BRANCH   1  16
ATOM     13 CL   UNL     1      35.300 -10.077 -25.271  0.00  0.00    -0.081 Cl
ATOM     14  O   UNL     1      31.776 -12.038 -22.039  0.00  0.00    -0.433 OA
ATOM     15  O   UNL     1      30.663  -9.923 -21.734  0.00  0.00    -0.435 OA
ATOM     16  C   UNL     1      33.466 -11.167 -23.571  0.00  0.00    +0.098 C 
ATOM     17  C   UNL     1      32.362 -11.038 -22.752  0.00  0.00    +0.190 C 
ATOM     18  C   UNL     1      31.727  -9.829 -22.578  0.00  0.00    +0.178 C 
ATOM     19  C   UNL     1      33.924 -10.021 -24.225  0.00  0.00    +0.074 C 
ATOM     20  C   UNL     1      32.159  -8.683 -23.213  0.00  0.00    +0.041 C 
ATOM     21  C   UNL     1      30.701 -11.323 -21.395  0.00  0.00    +0.429 C 
ATOM     22  C   UNL     1      33.275  -8.786 -24.047  0.00  0.00    +0.016 C 
ENDBRANCH   1  16
BRANCH   5  23
ATOM     23  O   UNL     1      35.400 -16.706 -21.352  0.00  0.00    -0.469 OA
ATOM     24  C   UNL     1      34.802 -16.030 -20.247  0.00  0.00    +0.253 C 
ENDBRANCH   5  23
BRANCH   4  25
ATOM     25  O   UNL     1      34.938 -18.736 -23.199  0.00  0.00    -0.476 OA
BRANCH  25  26
ATOM     26  C   UNL     1      33.878 -19.465 -22.595  0.00  0.00    +0.203 C 
BRANCH  26  27
ATOM     27  C   UNL     1      34.211 -19.694 -21.128  0.00  0.00    +0.025 C 
BRANCH  27  28
ATOM     28  C   UNL     1      35.619 -20.256 -20.955  0.00  0.00    -0.074 C 
BRANCH  28  29
ATOM     29  N   UNL     1      35.626 -21.304 -19.936  0.00  0.00    +0.387 N 
ATOM     30  C   UNL     1      34.270 -21.528 -19.418  0.00  0.00    -0.077 C 
ATOM     31  C   UNL     1      36.558 -20.962 -18.853  0.00  0.00    -0.077 C 
ATOM     32  C   UNL     1      34.251 -22.657 -18.386  0.00  0.00    -0.023 C 
ATOM     33  C   UNL     1      36.615 -22.073 -17.803  0.00  0.00    -0.023 C 
ATOM     34  C   UNL     1      35.229 -22.384 -17.249  0.00  0.00    -0.004 C 
ATOM     35  H   UNL     1      35.946 -22.173 -20.364  0.00  0.00    -0.080 HD
ENDBRANCH  28  29
ENDBRANCH  27  28
ENDBRANCH  26  27
ENDBRANCH  25  26
ENDBRANCH   4  25
TORSDOF 7
ENDMDL
MODEL 6
REMARK VINA RESULT:     -10.4      3.262     10.131
REMARK  Name = 5330197
REMARK  7 active torsions:
REMARK  status: ('A' for Active; 'I' for Inactive)
REMARK    1  A    between atoms: N_1  and  C_16
REMARK    2  A    between atoms: C_4  and  O_25
REMARK    3  A    between atoms: C_5  and  O_23
REMARK    4  A    between atoms: O_25  and  C_26
REMARK    5  A    between atoms: C_26  and  C_27
REMARK    6  A    between atoms: C_27  and  C_28
REMARK    7  A    between atoms: C_28  and  N_29
REMARK                            x       y       z     vdW  Elec       q    Type
REMARK                         _______ _______ _______ _____ _____    ______ ____
ROOT
ATOM      1  N   UNL     1      32.338 -11.744 -23.016  0.00  0.00    -0.295 N 
ATOM      2  N   UNL     1      33.411 -15.320 -21.227  0.00  0.00    -0.248 NA
ATOM      3  N   UNL     1      32.646 -13.039 -21.075  0.00  0.00    -0.230 NA
ATOM      4  C   UNL     1      33.927 -16.220 -24.740  0.00  0.00    +0.156 C 
ATOM      5  C   UNL     1      33.576 -15.039 -25.383  0.00  0.00    +0.169 C 
ATOM      6  C   UNL     1      33.867 -16.303 -23.346  0.00  0.00    +0.112 C 
ATOM      7  C   UNL     1      33.109 -14.034 -23.229  0.00  0.00    +0.048 C 
ATOM      8  C   UNL     1      33.461 -15.221 -22.568  0.00  0.00    +0.066 C 
ATOM      9  C   UNL     1      33.166 -13.942 -24.631  0.00  0.00    +0.044 C 
ATOM     10  C   UNL     1      32.708 -12.975 -22.419  0.00  0.00    +0.131 C 
ATOM     11  C   UNL     1      33.007 -14.223 -20.554  0.00  0.00    +0.252 C 
ATOM     12  H   UNL     1      31.949 -11.840 -23.915  0.00  0.00    +0.154 HD
ENDROOT
BRANCH   1  16
ATOM     13 CL   UNL     1      30.442 -10.941 -20.765  0.00  0.00    -0.081 Cl
ATOM     14  O   UNL     1      34.188  -9.836 -24.150  0.00  0.00    -0.433 OA
ATOM     15  O   UNL     1      34.364  -7.543 -23.431  0.00  0.00    -0.435 OA
ATOM     16  C   UNL     1      32.417 -10.415 -22.572  0.00  0.00    +0.098 C 
ATOM     17  C   UNL     1      33.317  -9.540 -23.147  0.00  0.00    +0.190 C 
ATOM     18  C   UNL     1      33.418  -8.230 -22.736  0.00  0.00    +0.178 C 
ATOM     19  C   UNL     1      31.602  -9.925 -21.549  0.00  0.00    +0.074 C 
ATOM     20  C   UNL     1      32.625  -7.723 -21.728  0.00  0.00    +0.041 C 
ATOM     21  C   UNL     1      34.847  -8.565 -24.326  0.00  0.00    +0.429 C 
ATOM     22  C   UNL     1      31.705  -8.587 -21.129  0.00  0.00    +0.016 C 
ENDBRANCH   1  16
BRANCH   5  23
ATOM     23  O   UNL     1      33.627 -14.944 -26.740  0.00  0.00    -0.469 OA
ATOM     24  C   UNL     1      33.465 -13.645 -27.308  0.00  0.00    +0.253 C 
ENDBRANCH   5  23
BRANCH   4  25
ATOM     25  O   UNL     1      34.332 -17.313 -25.461  0.00  0.00    -0.476 OA
BRANCH  25  26
ATOM     26  C   UNL     1      34.050 -18.590 -24.904  0.00  0.00    +0.203 C 
BRANCH  26  27
ATOM     27  C   UNL     1      35.312 -19.130 -24.247  0.00  0.00    +0.025 C 
BRANCH  27  28
ATOM     28  C   UNL     1      35.382 -18.748 -22.772  0.00  0.00    -0.074 C 
BRANCH  28  29
ATOM     29  N   UNL     1      34.846 -19.826 -21.941  0.00  0.00    +0.387 N 
ATOM     30  C   UNL     1      33.547 -19.442 -21.374  0.00  0.00    -0.077 C 
ATOM     31  C   UNL     1      35.802 -20.186 -20.885  0.00  0.00    -0.077 C 
ATOM     32  C   UNL     1      32.949 -20.579 -20.543  0.00  0.00    -0.023 C 
ATOM     33  C   UNL     1      35.278 -21.347 -20.039  0.00  0.00    -0.023 C 
ATOM     34  C   UNL     1      33.909 -21.029 -19.448  0.00  0.00    -0.004 C 
ATOM     35  H   UNL     1      34.701 -20.649 -22.528  0.00  0.00    -0.080 HD
ENDBRANCH  28  29
ENDBRANCH  27  28
ENDBRANCH  26  27
ENDBRANCH  25  26
ENDBRANCH   4  25
TORSDOF 7
ENDMDL
MODEL 7
REMARK VINA RESULT:     -10.4      1.825      2.927
REMARK  Name = 5330197
REMARK  7 active torsions:
REMARK  status: ('A' for Active; 'I' for Inactive)
REMARK    1  A    between atoms: N_1  and  C_16
REMARK    2  A    between atoms: C_4  and  O_25
REMARK    3  A    between atoms: C_5  and  O_23
REMARK    4  A    between atoms: O_25  and  C_26
REMARK    5  A    between atoms: C_26  and  C_27
REMARK    6  A    between atoms: C_27  and  C_28
REMARK    7  A    between atoms: C_28  and  N_29
REMARK                            x       y       z     vdW  Elec       q    Type
REMARK                         _______ _______ _______ _____ _____    ______ ____
ROOT
ATOM      1  N   UNL     1      34.425 -14.501 -23.486  0.00  0.00    -0.295 N 
ATOM      2  N   UNL     1      31.614 -12.230 -21.469  0.00  0.00    -0.248 NA
ATOM      3  N   UNL     1      32.691 -14.341 -21.903  0.00  0.00    -0.230 NA
ATOM      4  C   UNL     1      33.100  -9.626 -23.573  0.00  0.00    +0.156 C 
ATOM      5  C   UNL     1      34.058 -10.349 -24.274  0.00  0.00    +0.169 C 
ATOM      6  C   UNL     1      32.286 -10.267 -22.634  0.00  0.00    +0.112 C 
ATOM      7  C   UNL     1      33.378 -12.350 -23.090  0.00  0.00    +0.048 C 
ATOM      8  C   UNL     1      32.406 -11.630 -22.376  0.00  0.00    +0.066 C 
ATOM      9  C   UNL     1      34.200 -11.713 -24.035  0.00  0.00    +0.044 C 
ATOM     10  C   UNL     1      33.468 -13.709 -22.804  0.00  0.00    +0.131 C 
ATOM     11  C   UNL     1      31.799 -13.553 -21.283  0.00  0.00    +0.252 C 
ATOM     12  H   UNL     1      35.235 -14.006 -23.749  0.00  0.00    +0.154 HD
ENDROOT
BRANCH   1  16
ATOM     13 CL   UNL     1      33.475 -15.155 -26.310  0.00  0.00    -0.081 Cl
ATOM     14  O   UNL     1      35.310 -16.590 -21.697  0.00  0.00    -0.433 OA
ATOM     15  O   UNL     1      35.359 -18.928 -22.279  0.00  0.00    -0.435 OA
ATOM     16  C   UNL     1      34.443 -15.855 -23.858  0.00  0.00    +0.098 C 
ATOM     17  C   UNL     1      34.873 -16.816 -22.966  0.00  0.00    +0.190 C 
ATOM     18  C   UNL     1      34.901 -18.152 -23.299  0.00  0.00    +0.178 C 
ATOM     19  C   UNL     1      34.032 -16.282 -25.122  0.00  0.00    +0.074 C 
ATOM     20  C   UNL     1      34.501 -18.599 -24.541  0.00  0.00    +0.041 C 
ATOM     21  C   UNL     1      35.614 -17.933 -21.268  0.00  0.00    +0.429 C 
ATOM     22  C   UNL     1      34.060 -17.645 -25.462  0.00  0.00    +0.016 C 
ENDBRANCH   1  16
BRANCH   5  23
ATOM     23  O   UNL     1      34.859  -9.738 -25.189  0.00  0.00    -0.469 OA
ATOM     24  C   UNL     1      35.498 -10.573 -26.154  0.00  0.00    +0.253 C 
ENDBRANCH   5  23
BRANCH   4  25
ATOM     25  O   UNL     1      32.943  -8.282 -23.791  0.00  0.00    -0.476 OA
BRANCH  25  26
ATOM     26  C   UNL     1      33.440  -7.406 -22.787  0.00  0.00    +0.203 C 
BRANCH  26  27
ATOM     27  C   UNL     1      32.334  -6.441 -22.386  0.00  0.00    +0.025 C 
BRANCH  27  28
ATOM     28  C   UNL     1      31.184  -6.460 -23.388  0.00  0.00    -0.074 C 
BRANCH  28  29
ATOM     29  N   UNL     1      31.046  -5.153 -24.029  0.00  0.00    +0.387 N 
ATOM     30  C   UNL     1      31.968  -5.038 -25.167  0.00  0.00    -0.077 C 
ATOM     31  C   UNL     1      31.267  -4.076 -23.055  0.00  0.00    -0.077 C 
ATOM     32  C   UNL     1      31.801  -3.696 -25.881  0.00  0.00    -0.023 C 
ATOM     33  C   UNL     1      31.077  -2.702 -23.699  0.00  0.00    -0.023 C 
ATOM     34  C   UNL     1      31.980  -2.529 -24.915  0.00  0.00    -0.004 C 
ATOM     35  H   UNL     1      30.094  -5.064 -24.386  0.00  0.00    -0.080 HD
ENDBRANCH  28  29
ENDBRANCH  27  28
ENDBRANCH  26  27
ENDBRANCH  25  26
ENDBRANCH   4  25
TORSDOF 7
ENDMDL
MODEL 8
REMARK VINA RESULT:     -10.2      8.909     13.539
REMARK  Name = 5330197
REMARK  7 active torsions:
REMARK  status: ('A' for Active; 'I' for Inactive)
REMARK    1  A    between atoms: N_1  and  C_16
REMARK    2  A    between atoms: C_4  and  O_25
REMARK    3  A    between atoms: C_5  and  O_23
REMARK    4  A    between atoms: O_25  and  C_26
REMARK    5  A    between atoms: C_26  and  C_27
REMARK    6  A    between atoms: C_27  and  C_28
REMARK    7  A    between atoms: C_28  and  N_29
REMARK                            x       y       z     vdW  Elec       q    Type
REMARK                         _______ _______ _______ _____ _____    ______ ____
ROOT
ATOM      1  N   UNL     1      35.792 -23.572 -15.115  0.00  0.00    -0.295 N 
ATOM      2  N   UNL     1      31.917 -23.139 -16.505  0.00  0.00    -0.248 NA
ATOM      3  N   UNL     1      33.472 -23.794 -14.784  0.00  0.00    -0.230 NA
ATOM      4  C   UNL     1      33.749 -21.868 -19.410  0.00  0.00    +0.156 C 
ATOM      5  C   UNL     1      35.066 -21.996 -18.986  0.00  0.00    +0.169 C 
ATOM      6  C   UNL     1      32.701 -22.255 -18.570  0.00  0.00    +0.112 C 
ATOM      7  C   UNL     1      34.273 -22.896 -16.881  0.00  0.00    +0.048 C 
ATOM      8  C   UNL     1      32.938 -22.773 -17.299  0.00  0.00    +0.066 C 
ATOM      9  C   UNL     1      35.333 -22.510 -17.720  0.00  0.00    +0.044 C 
ATOM     10  C   UNL     1      34.471 -23.417 -15.605  0.00  0.00    +0.131 C 
ATOM     11  C   UNL     1      32.240 -23.631 -15.291  0.00  0.00    +0.252 C 
ATOM     12  H   UNL     1      36.428 -22.912 -15.472  0.00  0.00    +0.154 HD
ENDROOT
BRANCH   1  16
ATOM     13 CL   UNL     1      36.171 -26.427 -16.121  0.00  0.00    -0.081 Cl
ATOM     14  O   UNL     1      36.589 -22.822 -12.441  0.00  0.00    -0.433 OA
ATOM     15  O   UNL     1      37.578 -24.345 -10.856  0.00  0.00    -0.435 OA
ATOM     16  C   UNL     1      36.368 -24.484 -14.216  0.00  0.00    +0.098 C 
ATOM     17  C   UNL     1      36.730 -24.078 -12.948  0.00  0.00    +0.190 C 
ATOM     18  C   UNL     1      37.295 -24.947 -12.043  0.00  0.00    +0.178 C 
ATOM     19  C   UNL     1      36.592 -25.820 -14.557  0.00  0.00    +0.074 C 
ATOM     20  C   UNL     1      37.528 -26.271 -12.355  0.00  0.00    +0.041 C 
ATOM     21  C   UNL     1      37.127 -23.000 -11.114  0.00  0.00    +0.429 C 
ATOM     22  C   UNL     1      37.169 -26.708 -13.633  0.00  0.00    +0.016 C 
ENDBRANCH   1  16
BRANCH   5  23
ATOM     23  O   UNL     1      36.097 -21.622 -19.792  0.00  0.00    -0.469 OA
ATOM     24  C   UNL     1      36.908 -20.534 -19.349  0.00  0.00    +0.253 C 
ENDBRANCH   5  23
BRANCH   4  25
ATOM     25  O   UNL     1      33.463 -21.364 -20.652  0.00  0.00    -0.476 OA
BRANCH  25  26
ATOM     26  C   UNL     1      32.839 -20.087 -20.698  0.00  0.00    +0.203 C 
BRANCH  26  27
ATOM     27  C   UNL     1      33.891 -19.037 -21.027  0.00  0.00    +0.025 C 
BRANCH  27  28
ATOM     28  C   UNL     1      34.792 -19.488 -22.173  0.00  0.00    -0.074 C 
BRANCH  28  29
ATOM     29  N   UNL     1      35.034 -18.379 -23.095  0.00  0.00    +0.387 N 
ATOM     30  C   UNL     1      34.636 -17.104 -22.484  0.00  0.00    -0.077 C 
ATOM     31  C   UNL     1      34.328 -18.603 -24.365  0.00  0.00    -0.077 C 
ATOM     32  C   UNL     1      34.930 -15.928 -23.416  0.00  0.00    -0.023 C 
ATOM     33  C   UNL     1      34.611 -17.476 -25.359  0.00  0.00    -0.023 C 
ATOM     34  C   UNL     1      34.256 -16.114 -24.772  0.00  0.00    -0.004 C 
ATOM     35  H   UNL     1      36.033 -18.333 -23.295  0.00  0.00    -0.080 HD
ENDBRANCH  28  29
ENDBRANCH  27  28
ENDBRANCH  26  27
ENDBRANCH  25  26
ENDBRANCH   4  25
TORSDOF 7
ENDMDL
MODEL 9
REMARK VINA RESULT:      -9.9      1.761      2.238
REMARK  Name = 5330197
REMARK  7 active torsions:
REMARK  status: ('A' for Active; 'I' for Inactive)
REMARK    1  A    between atoms: N_1  and  C_16
REMARK    2  A    between atoms: C_4  and  O_25
REMARK    3  A    between atoms: C_5  and  O_23
REMARK    4  A    between atoms: O_25  and  C_26
REMARK    5  A    between atoms: C_26  and  C_27
REMARK    6  A    between atoms: C_27  and  C_28
REMARK    7  A    between atoms: C_28  and  N_29
REMARK                            x       y       z     vdW  Elec       q    Type
REMARK                         _______ _______ _______ _____ _____    ______ ____
ROOT
ATOM      1  N   UNL     1      32.962 -12.968 -23.206  0.00  0.00    -0.295 N 
ATOM      2  N   UNL     1      34.241  -9.171 -24.244  0.00  0.00    -0.248 NA
ATOM      3  N   UNL     1      34.168 -11.547 -24.643  0.00  0.00    -0.230 NA
ATOM      4  C   UNL     1      32.287  -8.356 -21.256  0.00  0.00    +0.156 C 
ATOM      5  C   UNL     1      31.834  -9.612 -20.870  0.00  0.00    +0.169 C 
ATOM      6  C   UNL     1      33.093  -8.220 -22.390  0.00  0.00    +0.112 C 
ATOM      7  C   UNL     1      33.000 -10.585 -22.757  0.00  0.00    +0.048 C 
ATOM      8  C   UNL     1      33.464  -9.321 -23.157  0.00  0.00    +0.066 C 
ATOM      9  C   UNL     1      32.189 -10.731 -21.619  0.00  0.00    +0.044 C 
ATOM     10  C   UNL     1      33.391 -11.661 -23.549  0.00  0.00    +0.131 C 
ATOM     11  C   UNL     1      34.552 -10.292 -24.928  0.00  0.00    +0.252 C 
ATOM     12  H   UNL     1      32.089 -12.993 -22.752  0.00  0.00    +0.154 HD
ENDROOT
BRANCH   1  16
ATOM     13 CL   UNL     1      34.463 -14.147 -20.826  0.00  0.00    -0.081 Cl
ATOM     14  O   UNL     1      32.762 -14.415 -25.700  0.00  0.00    -0.433 OA
ATOM     15  O   UNL     1      33.736 -16.587 -26.075  0.00  0.00    -0.435 OA
ATOM     16  C   UNL     1      33.540 -14.234 -23.392  0.00  0.00    +0.098 C 
ATOM     17  C   UNL     1      33.418 -14.884 -24.603  0.00  0.00    +0.190 C 
ATOM     18  C   UNL     1      33.974 -16.125 -24.818  0.00  0.00    +0.178 C 
ATOM     19  C   UNL     1      34.253 -14.879 -22.379  0.00  0.00    +0.074 C 
ATOM     20  C   UNL     1      34.683 -16.784 -23.834  0.00  0.00    +0.041 C 
ATOM     21  C   UNL     1      32.970 -15.499 -26.629  0.00  0.00    +0.429 C 
ATOM     22  C   UNL     1      34.821 -16.146 -22.598  0.00  0.00    +0.016 C 
ENDBRANCH   1  16
BRANCH   5  23
ATOM     23  O   UNL     1      31.046  -9.760 -19.770  0.00  0.00    -0.469 OA
ATOM     24  C   UNL     1      31.341 -10.853 -18.901  0.00  0.00    +0.253 C 
ENDBRANCH   5  23
BRANCH   4  25
ATOM     25  O   UNL     1      31.948  -7.241 -20.535  0.00  0.00    -0.476 OA
BRANCH  25  26
ATOM     26  C   UNL     1      32.028  -5.992 -21.208  0.00  0.00    +0.203 C 
BRANCH  26  27
ATOM     27  C   UNL     1      30.817  -5.845 -22.117  0.00  0.00    +0.025 C 
BRANCH  27  28
ATOM     28  C   UNL     1      30.726  -4.441 -22.706  0.00  0.00    -0.074 C 
BRANCH  28  29
ATOM     29  N   UNL     1      31.693  -4.281 -23.792  0.00  0.00    +0.387 N 
ATOM     30  C   UNL     1      31.304  -3.168 -24.668  0.00  0.00    -0.077 C 
ATOM     31  C   UNL     1      31.825  -5.533 -24.550  0.00  0.00    -0.077 C 
ATOM     32  C   UNL     1      32.331  -2.955 -25.781  0.00  0.00    -0.023 C 
ATOM     33  C   UNL     1      32.870  -5.398 -25.659  0.00  0.00    -0.023 C 
ATOM     34  C   UNL     1      32.547  -4.232 -26.587  0.00  0.00    -0.004 C 
ATOM     35  H   UNL     1      32.603  -4.060 -23.389  0.00  0.00    -0.080 HD
ENDBRANCH  28  29
ENDBRANCH  27  28
ENDBRANCH  26  27
ENDBRANCH  25  26
ENDBRANCH   4  25
TORSDOF 7
ENDMDL
