MODEL 1
REMARK VINA RESULT:      -9.6      0.000      0.000
REMARK  Name = 10601417
REMARK  13 active torsions:
REMARK  status: ('A' for Active; 'I' for Inactive)
REMARK    1  A    between atoms: C_1  and  C_4
REMARK    2  A    between atoms: C_1  and  C_18
REMARK    3  A    between atoms: C_1  and  C_29
REMARK    4  A    between atoms: N_3  and  CA_6
REMARK    5  A    between atoms: CA_6  and  C_8
REMARK    6  A    between atoms: CA_6  and  CB_11
REMARK    7  A    between atoms: C_8  and  O_9
REMARK    8  A    between atoms: CB_11  and  CG_12
REMARK    9  A    between atoms: C_18  and  P_19
REMARK   10  A    between atoms: P_19  and  O_21
REMARK   11  A    between atoms: P_19  and  C_23
REMARK   12  A    between atoms: C_23  and  N_25
REMARK   13  A    between atoms: C_29  and  C_30
REMARK                            x       y       z     vdW  Elec       q    Type
REMARK                         _______ _______ _______ _____ _____    ______ ____
ROOT
ATOM      1  C   UNL     1      33.399 -14.383 -21.427  0.00  0.00    +0.090 C 
ENDROOT
BRANCH   1   4
ATOM      2  O   UNL     1      34.952 -15.516 -19.941  0.00  0.00    -0.275 OA
ATOM      3  N   UNL     1      34.082 -16.691 -21.738  0.00  0.00    -0.297 N 
ATOM      4  C   ACE A   0      34.225 -15.572 -20.931  0.00  0.00    +0.223 C 
ATOM      5  H   UNL     1      33.476 -16.646 -22.513  0.00  0.00    +0.150 HD
BRANCH   3   6
ATOM      6  CA  UNL     1      34.791 -17.922 -21.477  0.00  0.00    +0.176 C 
BRANCH   6   8
ATOM      7  OXT UNL     1      37.094 -18.408 -22.035  0.00  0.00    -0.248 OA
ATOM      8  C   UNL     1      35.976 -18.082 -22.419  0.00  0.00    +0.332 C 
BRANCH   8   9
ATOM      9  O   UNL     1      35.702 -17.841 -23.724  0.00  0.00    -0.479 OA
ATOM     10  H   UNL     1      35.625 -18.555 -24.326  0.00  0.00    +0.295 HD
ENDBRANCH   8   9
ENDBRANCH   6   8
BRANCH   6  11
ATOM     11  CB  UNL     1      33.858 -19.134 -21.600  0.00  0.00    +0.057 C 
BRANCH  11  12
ATOM     12  CG  UNL     1      34.154 -20.209 -20.581  0.00  0.00    -0.020 C 
ATOM     13  CD1 UNL     1      33.106 -20.878 -19.949  0.00  0.00    -0.004 C 
ATOM     14  CD2 UNL     1      35.475 -20.534 -20.274  0.00  0.00    -0.004 C 
ATOM     15  CE1 UNL     1      33.379 -21.871 -19.008  0.00  0.00    -0.000 C 
ATOM     16  CE2 UNL     1      35.749 -21.528 -19.334  0.00  0.00    -0.000 C 
ATOM     17  CZ  UNL     1      34.701 -22.196 -18.701  0.00  0.00    -0.000 C 
ENDBRANCH  11  12
ENDBRANCH   6  11
ENDBRANCH   3   6
ENDBRANCH   1   4
BRANCH   1  18
ATOM     18  C   UNL     1      32.797 -14.725 -22.794  0.00  0.00    +0.094 C 
BRANCH  18  19
ATOM     19  P   UNL     1      33.727 -14.076 -24.203  0.00  0.00    +0.200 P 
ATOM     20  O   UNL     1      34.112 -12.646 -24.040  0.00  0.00    -0.292 OA
BRANCH  19  21
ATOM     21  O   UNL     1      34.978 -15.095 -24.251  0.00  0.00    -0.344 OA
ATOM     22  H   UNL     1      35.255 -15.224 -25.172  0.00  0.00    +0.218 HD
ENDBRANCH  19  21
BRANCH  19  23
ATOM     23  C   UNL     1      32.816 -14.478 -25.673  0.00  0.00    +0.015 C 
ATOM     24  C   UNL     1      33.141 -15.856 -26.223  0.00  0.00    -0.014 C 
BRANCH  23  25
ATOM     25  N   UNL     1      33.259 -13.449 -26.604  0.00  0.00    +0.388 N 
ATOM     26  H   UNL     1      33.757 -13.885 -27.379  0.00  0.00    -0.089 HD
ATOM     27  H   UNL     1      33.880 -12.800 -26.123  0.00  0.00    -0.089 HD
ATOM     28  H   UNL     1      32.449 -12.943 -26.962  0.00  0.00    -0.089 HD
ENDBRANCH  23  25
ENDBRANCH  19  23
ENDBRANCH  18  19
ENDBRANCH   1  18
BRANCH   1  29
ATOM     29  C   UNL     1      32.297 -13.980 -20.428  0.00  0.00    +0.036 C 
BRANCH  29  30
ATOM     30  C   UNL     1      31.973 -12.504 -20.470  0.00  0.00    -0.022 C 
ATOM     31  C   UNL     1      31.862 -11.779 -19.284  0.00  0.00    -0.004 C 
ATOM     32  C   UNL     1      31.783 -11.867 -21.697  0.00  0.00    -0.004 C 
ATOM     33  C   UNL     1      31.562 -10.418 -19.324  0.00  0.00    -0.000 C 
ATOM     34  C   UNL     1      31.484 -10.506 -21.737  0.00  0.00    -0.000 C 
ATOM     35  C   UNL     1      31.373  -9.781 -20.550  0.00  0.00    -0.000 C 
ENDBRANCH  29  30
ENDBRANCH   1  29
TORSDOF 13
ENDMDL
MODEL 2
REMARK VINA RESULT:      -9.5      7.596     10.982
REMARK  Name = 10601417
REMARK  13 active torsions:
REMARK  status: ('A' for Active; 'I' for Inactive)
REMARK    1  A    between atoms: C_1  and  C_4
REMARK    2  A    between atoms: C_1  and  C_18
REMARK    3  A    between atoms: C_1  and  C_29
REMARK    4  A    between atoms: N_3  and  CA_6
REMARK    5  A    between atoms: CA_6  and  C_8
REMARK    6  A    between atoms: CA_6  and  CB_11
REMARK    7  A    between atoms: C_8  and  O_9
REMARK    8  A    between atoms: CB_11  and  CG_12
REMARK    9  A    between atoms: C_18  and  P_19
REMARK   10  A    between atoms: P_19  and  O_21
REMARK   11  A    between atoms: P_19  and  C_23
REMARK   12  A    between atoms: C_23  and  N_25
REMARK   13  A    between atoms: C_29  and  C_30
REMARK                            x       y       z     vdW  Elec       q    Type
REMARK                         _______ _______ _______ _____ _____    ______ ____
ROOT
ATOM      1  C   UNL     1      33.761 -22.967 -17.230  0.00  0.00    +0.090 C 
ENDROOT
BRANCH   1   4
ATOM      2  O   UNL     1      31.408 -22.363 -17.260  0.00  0.00    -0.275 OA
ATOM      3  N   UNL     1      32.190 -23.678 -15.522  0.00  0.00    -0.297 N 
ATOM      4  C   ACE A   0      32.325 -22.962 -16.702  0.00  0.00    +0.223 C 
ATOM      5  H   UNL     1      32.980 -24.129 -15.145  0.00  0.00    +0.150 HD
BRANCH   3   6
ATOM      6  CA  UNL     1      30.928 -23.786 -14.828  0.00  0.00    +0.176 C 
BRANCH   6   8
ATOM      7  OXT UNL     1      30.403 -24.271 -12.518  0.00  0.00    -0.248 OA
ATOM      8  C   UNL     1      31.091 -24.515 -13.502  0.00  0.00    +0.332 C 
BRANCH   8   9
ATOM      9  O   UNL     1      32.057 -25.465 -13.491  0.00  0.00    -0.479 OA
ATOM     10  H   UNL     1      31.887 -26.301 -13.104  0.00  0.00    +0.295 HD
ENDBRANCH   8   9
ENDBRANCH   6   8
BRANCH   6  11
ATOM     11  CB  UNL     1      29.882 -24.501 -15.693  0.00  0.00    +0.057 C 
BRANCH  11  12
ATOM     12  CG  UNL     1      28.718 -23.613 -16.064  0.00  0.00    -0.020 C 
ATOM     13  CD1 UNL     1      28.088 -22.843 -15.087  0.00  0.00    -0.004 C 
ATOM     14  CD2 UNL     1      28.276 -23.561 -17.386  0.00  0.00    -0.004 C 
ATOM     15  CE1 UNL     1      27.013 -22.023 -15.431  0.00  0.00    -0.000 C 
ATOM     16  CE2 UNL     1      27.202 -22.740 -17.731  0.00  0.00    -0.000 C 
ATOM     17  CZ  UNL     1      26.571 -21.971 -16.753  0.00  0.00    -0.000 C 
ENDBRANCH  11  12
ENDBRANCH   6  11
ENDBRANCH   3   6
ENDBRANCH   1   4
BRANCH   1  18
ATOM     18  C   UNL     1      34.553 -24.069 -16.517  0.00  0.00    +0.094 C 
BRANCH  18  19
ATOM     19  P   UNL     1      35.847 -23.462 -15.409  0.00  0.00    +0.200 P 
ATOM     20  O   UNL     1      36.976 -22.809 -16.129  0.00  0.00    -0.292 OA
BRANCH  19  21
ATOM     21  O   UNL     1      35.004 -22.464 -14.460  0.00  0.00    -0.344 OA
ATOM     22  H   UNL     1      35.615 -21.894 -13.967  0.00  0.00    +0.218 HD
ENDBRANCH  19  21
BRANCH  19  23
ATOM     23  C   UNL     1      36.280 -24.793 -14.317  0.00  0.00    +0.015 C 
ATOM     24  C   UNL     1      36.697 -26.058 -15.049  0.00  0.00    -0.014 C 
BRANCH  23  25
ATOM     25  N   UNL     1      35.036 -25.020 -13.594  0.00  0.00    +0.388 N 
ATOM     26  H   UNL     1      34.779 -26.005 -13.663  0.00  0.00    -0.089 HD
ATOM     27  H   UNL     1      34.298 -24.446 -14.000  0.00  0.00    -0.089 HD
ATOM     28  H   UNL     1      35.162 -24.769 -12.614  0.00  0.00    -0.089 HD
ENDBRANCH  23  25
ENDBRANCH  19  23
ENDBRANCH  18  19
ENDBRANCH   1  18
BRANCH   1  29
ATOM     29  C   UNL     1      33.822 -23.148 -18.758  0.00  0.00    +0.036 C 
BRANCH  29  30
ATOM     30  C   UNL     1      34.237 -21.890 -19.486  0.00  0.00    -0.022 C 
ATOM     31  C   UNL     1      35.589 -21.590 -19.646  0.00  0.00    -0.004 C 
ATOM     32  C   UNL     1      33.266 -21.028 -19.996  0.00  0.00    -0.004 C 
ATOM     33  C   UNL     1      35.971 -20.429 -20.318  0.00  0.00    -0.000 C 
ATOM     34  C   UNL     1      33.647 -19.867 -20.668  0.00  0.00    -0.000 C 
ATOM     35  C   UNL     1      35.000 -19.567 -20.829  0.00  0.00    -0.000 C 
ENDBRANCH  29  30
ENDBRANCH   1  29
TORSDOF 13
ENDMDL
MODEL 3
REMARK VINA RESULT:      -9.4      4.655      7.429
REMARK  Name = 10601417
REMARK  13 active torsions:
REMARK  status: ('A' for Active; 'I' for Inactive)
REMARK    1  A    between atoms: C_1  and  C_4
REMARK    2  A    between atoms: C_1  and  C_18
REMARK    3  A    between atoms: C_1  and  C_29
REMARK    4  A    between atoms: N_3  and  CA_6
REMARK    5  A    between atoms: CA_6  and  C_8
REMARK    6  A    between atoms: CA_6  and  CB_11
REMARK    7  A    between atoms: C_8  and  O_9
REMARK    8  A    between atoms: CB_11  and  CG_12
REMARK    9  A    between atoms: C_18  and  P_19
REMARK   10  A    between atoms: P_19  and  O_21
REMARK   11  A    between atoms: P_19  and  C_23
REMARK   12  A    between atoms: C_23  and  N_25
REMARK   13  A    between atoms: C_29  and  C_30
REMARK                            x       y       z     vdW  Elec       q    Type
REMARK                         _______ _______ _______ _____ _____    ______ ____
ROOT
ATOM      1  C   UNL     1      33.791  -8.091 -23.733  0.00  0.00    +0.090 C 
ENDROOT
BRANCH   1   4
ATOM      2  O   UNL     1      35.555  -9.719 -24.108  0.00  0.00    -0.275 OA
ATOM      3  N   UNL     1      33.371 -10.472 -23.944  0.00  0.00    -0.297 N 
ATOM      4  C   ACE A   0      34.358  -9.498 -23.939  0.00  0.00    +0.223 C 
ATOM      5  H   UNL     1      32.434 -10.204 -23.800  0.00  0.00    +0.150 HD
BRANCH   3   6
ATOM      6  CA  UNL     1      33.672 -11.869 -24.151  0.00  0.00    +0.176 C 
BRANCH   6   8
ATOM      7  OXT UNL     1      33.198 -13.093 -26.182  0.00  0.00    -0.248 OA
ATOM      8  C   UNL     1      33.813 -12.186 -25.633  0.00  0.00    +0.332 C 
BRANCH   8   9
ATOM      9  O   UNL     1      34.669 -11.382 -26.308  0.00  0.00    -0.479 OA
ATOM     10  H   UNL     1      34.512 -10.460 -26.349  0.00  0.00    +0.295 HD
ENDBRANCH   8   9
ENDBRANCH   6   8
BRANCH   6  11
ATOM     11  CB  UNL     1      32.596 -12.766 -23.524  0.00  0.00    +0.057 C 
BRANCH  11  12
ATOM     12  CG  UNL     1      33.168 -13.806 -22.590  0.00  0.00    -0.020 C 
ATOM     13  CD1 UNL     1      32.651 -13.946 -21.302  0.00  0.00    -0.004 C 
ATOM     14  CD2 UNL     1      34.211 -14.628 -23.016  0.00  0.00    -0.004 C 
ATOM     15  CE1 UNL     1      33.179 -14.906 -20.440  0.00  0.00    -0.000 C 
ATOM     16  CE2 UNL     1      34.738 -15.589 -22.154  0.00  0.00    -0.000 C 
ATOM     17  CZ  UNL     1      34.223 -15.728 -20.866  0.00  0.00    -0.000 C 
ENDBRANCH  11  12
ENDBRANCH   6  11
ENDBRANCH   3   6
ENDBRANCH   1   4
BRANCH   1  18
ATOM     18  C   UNL     1      33.786  -7.767 -22.235  0.00  0.00    +0.094 C 
BRANCH  18  19
ATOM     19  P   UNL     1      32.205  -8.067 -21.411  0.00  0.00    +0.200 P 
ATOM     20  O   UNL     1      31.757  -6.922 -20.570  0.00  0.00    -0.292 OA
BRANCH  19  21
ATOM     21  O   UNL     1      31.246  -8.374 -22.673  0.00  0.00    -0.344 OA
ATOM     22  H   UNL     1      31.431  -7.738 -23.381  0.00  0.00    +0.218 HD
ENDBRANCH  19  21
BRANCH  19  23
ATOM     23  C   UNL     1      32.320  -9.639 -20.593  0.00  0.00    +0.015 C 
ATOM     24  C   UNL     1      31.112 -10.529 -20.829  0.00  0.00    -0.014 C 
BRANCH  23  25
ATOM     25  N   UNL     1      32.392  -9.255 -19.190  0.00  0.00    +0.388 N 
ATOM     26  H   UNL     1      32.926  -8.391 -19.102  0.00  0.00    -0.089 HD
ATOM     27  H   UNL     1      32.850  -9.994 -18.659  0.00  0.00    -0.089 HD
ATOM     28  H   UNL     1      31.449  -9.110 -18.829  0.00  0.00    -0.089 HD
ENDBRANCH  23  25
ENDBRANCH  19  23
ENDBRANCH  18  19
ENDBRANCH   1  18
BRANCH   1  29
ATOM     29  C   UNL     1      34.572  -7.024 -24.523  0.00  0.00    +0.036 C 
BRANCH  29  30
ATOM     30  C   UNL     1      33.676  -5.985 -25.157  0.00  0.00    -0.022 C 
ATOM     31  C   UNL     1      34.061  -5.362 -26.344  0.00  0.00    -0.004 C 
ATOM     32  C   UNL     1      32.464  -5.648 -24.554  0.00  0.00    -0.004 C 
ATOM     33  C   UNL     1      33.234  -4.403 -26.928  0.00  0.00    -0.000 C 
ATOM     34  C   UNL     1      31.637  -4.689 -25.138  0.00  0.00    -0.000 C 
ATOM     35  C   UNL     1      32.022  -4.066 -26.325  0.00  0.00    -0.000 C 
ENDBRANCH  29  30
ENDBRANCH   1  29
TORSDOF 13
ENDMDL
MODEL 4
REMARK VINA RESULT:      -9.1      0.848      1.741
REMARK  Name = 10601417
REMARK  13 active torsions:
REMARK  status: ('A' for Active; 'I' for Inactive)
REMARK    1  A    between atoms: C_1  and  C_4
REMARK    2  A    between atoms: C_1  and  C_18
REMARK    3  A    between atoms: C_1  and  C_29
REMARK    4  A    between atoms: N_3  and  CA_6
REMARK    5  A    between atoms: CA_6  and  C_8
REMARK    6  A    between atoms: CA_6  and  CB_11
REMARK    7  A    between atoms: C_8  and  O_9
REMARK    8  A    between atoms: CB_11  and  CG_12
REMARK    9  A    between atoms: C_18  and  P_19
REMARK   10  A    between atoms: P_19  and  O_21
REMARK   11  A    between atoms: P_19  and  C_23
REMARK   12  A    between atoms: C_23  and  N_25
REMARK   13  A    between atoms: C_29  and  C_30
REMARK                            x       y       z     vdW  Elec       q    Type
REMARK                         _______ _______ _______ _____ _____    ______ ____
ROOT
ATOM      1  C   UNL     1      33.422 -14.523 -21.618  0.00  0.00    +0.090 C 
ENDROOT
BRANCH   1   4
ATOM      2  O   UNL     1      34.974 -15.679 -20.148  0.00  0.00    -0.275 OA
ATOM      3  N   UNL     1      33.982 -16.872 -21.868  0.00  0.00    -0.297 N 
ATOM      4  C   ACE A   0      34.209 -15.733 -21.109  0.00  0.00    +0.223 C 
ATOM      5  H   UNL     1      33.350 -16.824 -22.622  0.00  0.00    +0.150 HD
BRANCH   3   6
ATOM      6  CA  UNL     1      34.641 -18.126 -21.588  0.00  0.00    +0.176 C 
BRANCH   6   8
ATOM      7  OXT UNL     1      35.207 -19.006 -23.769  0.00  0.00    -0.248 OA
ATOM      8  C   UNL     1      35.589 -18.511 -22.714  0.00  0.00    +0.332 C 
BRANCH   8   9
ATOM      9  O   UNL     1      36.897 -18.259 -22.468  0.00  0.00    -0.479 OA
ATOM     10  H   UNL     1      37.472 -18.036 -23.172  0.00  0.00    +0.295 HD
ENDBRANCH   8   9
ENDBRANCH   6   8
BRANCH   6  11
ATOM     11  CB  UNL     1      33.619 -19.247 -21.358  0.00  0.00    +0.057 C 
BRANCH  11  12
ATOM     12  CG  UNL     1      34.117 -20.311 -20.408  0.00  0.00    -0.020 C 
ATOM     13  CD1 UNL     1      35.487 -20.493 -20.220  0.00  0.00    -0.004 C 
ATOM     14  CD2 UNL     1      33.205 -21.110 -19.718  0.00  0.00    -0.004 C 
ATOM     15  CE1 UNL     1      35.946 -21.475 -19.343  0.00  0.00    -0.000 C 
ATOM     16  CE2 UNL     1      33.665 -22.092 -18.839  0.00  0.00    -0.000 C 
ATOM     17  CZ  UNL     1      35.034 -22.275 -18.653  0.00  0.00    -0.000 C 
ENDBRANCH  11  12
ENDBRANCH   6  11
ENDBRANCH   3   6
ENDBRANCH   1   4
BRANCH   1  18
ATOM     18  C   UNL     1      32.819 -14.857 -22.986  0.00  0.00    +0.094 C 
BRANCH  18  19
ATOM     19  P   UNL     1      34.038 -15.132 -24.294  0.00  0.00    +0.200 P 
ATOM     20  O   UNL     1      35.441 -15.145 -23.792  0.00  0.00    -0.292 OA
BRANCH  19  21
ATOM     21  O   UNL     1      33.540 -16.545 -24.895  0.00  0.00    -0.344 OA
ATOM     22  H   UNL     1      33.004 -17.008 -24.232  0.00  0.00    +0.218 HD
ENDBRANCH  19  21
BRANCH  19  23
ATOM     23  C   UNL     1      33.685 -13.984 -25.601  0.00  0.00    +0.015 C 
ATOM     24  C   UNL     1      33.606 -12.542 -25.129  0.00  0.00    -0.014 C 
BRANCH  23  25
ATOM     25  N   UNL     1      32.378 -14.432 -26.063  0.00  0.00    +0.388 N 
ATOM     26  H   UNL     1      32.095 -15.255 -25.532  0.00  0.00    -0.089 HD
ATOM     27  H   UNL     1      32.430 -14.666 -27.053  0.00  0.00    -0.089 HD
ATOM     28  H   UNL     1      31.695 -13.687 -25.925  0.00  0.00    -0.089 HD
ENDBRANCH  23  25
ENDBRANCH  19  23
ENDBRANCH  18  19
ENDBRANCH   1  18
BRANCH   1  29
ATOM     29  C   UNL     1      32.328 -14.079 -20.629  0.00  0.00    +0.036 C 
BRANCH  29  30
ATOM     30  C   UNL     1      32.014 -12.603 -20.718  0.00  0.00    -0.022 C 
ATOM     31  C   UNL     1      31.878 -11.992 -21.964  0.00  0.00    -0.004 C 
ATOM     32  C   UNL     1      31.863 -11.851 -19.552  0.00  0.00    -0.004 C 
ATOM     33  C   UNL     1      31.589 -10.630 -22.045  0.00  0.00    -0.000 C 
ATOM     34  C   UNL     1      31.574 -10.490 -19.633  0.00  0.00    -0.000 C 
ATOM     35  C   UNL     1      31.438  -9.879 -20.880  0.00  0.00    -0.000 C 
ENDBRANCH  29  30
ENDBRANCH   1  29
TORSDOF 13
ENDMDL
MODEL 5
REMARK VINA RESULT:      -9.1      8.993     12.206
REMARK  Name = 10601417
REMARK  13 active torsions:
REMARK  status: ('A' for Active; 'I' for Inactive)
REMARK    1  A    between atoms: C_1  and  C_4
REMARK    2  A    between atoms: C_1  and  C_18
REMARK    3  A    between atoms: C_1  and  C_29
REMARK    4  A    between atoms: N_3  and  CA_6
REMARK    5  A    between atoms: CA_6  and  C_8
REMARK    6  A    between atoms: CA_6  and  CB_11
REMARK    7  A    between atoms: C_8  and  O_9
REMARK    8  A    between atoms: CB_11  and  CG_12
REMARK    9  A    between atoms: C_18  and  P_19
REMARK   10  A    between atoms: P_19  and  O_21
REMARK   11  A    between atoms: P_19  and  C_23
REMARK   12  A    between atoms: C_23  and  N_25
REMARK   13  A    between atoms: C_29  and  C_30
REMARK                            x       y       z     vdW  Elec       q    Type
REMARK                         _______ _______ _______ _____ _____    ______ ____
ROOT
ATOM      1  C   UNL     1      33.834 -24.015 -13.364  0.00  0.00    +0.090 C 
ENDROOT
BRANCH   1   4
ATOM      2  O   UNL     1      34.423 -25.275 -15.357  0.00  0.00    -0.275 OA
ATOM      3  N   UNL     1      35.698 -23.422 -14.802  0.00  0.00    -0.297 N 
ATOM      4  C   ACE A   0      34.656 -24.320 -14.618  0.00  0.00    +0.223 C 
ATOM      5  H   UNL     1      35.810 -22.684 -14.159  0.00  0.00    +0.150 HD
BRANCH   3   6
ATOM      6  CA  UNL     1      36.622 -23.532 -15.906  0.00  0.00    +0.176 C 
BRANCH   6   8
ATOM      7  OXT UNL     1      37.965 -25.245 -14.852  0.00  0.00    -0.248 OA
ATOM      8  C   UNL     1      37.924 -24.186 -15.467  0.00  0.00    +0.332 C 
BRANCH   8   9
ATOM      9  O   UNL     1      39.045 -23.509 -15.815  0.00  0.00    -0.479 OA
ATOM     10  H   UNL     1      39.066 -23.013 -16.609  0.00  0.00    +0.295 HD
ENDBRANCH   8   9
ENDBRANCH   6   8
BRANCH   6  11
ATOM     11  CB  UNL     1      36.908 -22.159 -16.526  0.00  0.00    +0.057 C 
BRANCH  11  12
ATOM     12  CG  UNL     1      36.091 -21.891 -17.768  0.00  0.00    -0.020 C 
ATOM     13  CD1 UNL     1      36.639 -21.157 -18.819  0.00  0.00    -0.004 C 
ATOM     14  CD2 UNL     1      34.788 -22.381 -17.863  0.00  0.00    -0.004 C 
ATOM     15  CE1 UNL     1      35.884 -20.910 -19.965  0.00  0.00    -0.000 C 
ATOM     16  CE2 UNL     1      34.033 -22.135 -19.010  0.00  0.00    -0.000 C 
ATOM     17  CZ  UNL     1      34.581 -21.400 -20.061  0.00  0.00    -0.000 C 
ENDBRANCH  11  12
ENDBRANCH   6  11
ENDBRANCH   3   6
ENDBRANCH   1   4
BRANCH   1  18
ATOM     18  C   UNL     1      34.766 -23.482 -12.271  0.00  0.00    +0.094 C 
BRANCH  18  19
ATOM     19  P   UNL     1      35.825 -24.738 -11.514  0.00  0.00    +0.200 P 
ATOM     20  O   UNL     1      35.240 -25.328 -10.276  0.00  0.00    -0.292 OA
BRANCH  19  21
ATOM     21  O   UNL     1      35.988 -25.787 -12.731  0.00  0.00    -0.344 OA
ATOM     22  H   UNL     1      36.730 -25.515 -13.293  0.00  0.00    +0.218 HD
ENDBRANCH  19  21
BRANCH  19  23
ATOM     23  C   UNL     1      37.449 -24.040 -11.355  0.00  0.00    +0.015 C 
ATOM     24  C   UNL     1      37.577 -22.665 -11.988  0.00  0.00    -0.014 C 
BRANCH  23  25
ATOM     25  N   UNL     1      38.272 -25.002 -12.076  0.00  0.00    +0.388 N 
ATOM     26  H   UNL     1      38.877 -24.507 -12.731  0.00  0.00    -0.089 HD
ATOM     27  H   UNL     1      37.671 -25.647 -12.588  0.00  0.00    -0.089 HD
ATOM     28  H   UNL     1      38.844 -25.524 -11.412  0.00  0.00    -0.089 HD
ENDBRANCH  23  25
ENDBRANCH  19  23
ENDBRANCH  18  19
ENDBRANCH   1  18
BRANCH   1  29
ATOM     29  C   UNL     1      32.690 -23.022 -13.642  0.00  0.00    +0.036 C 
BRANCH  29  30
ATOM     30  C   UNL     1      31.551 -23.636 -14.424  0.00  0.00    -0.022 C 
ATOM     31  C   UNL     1      31.008 -24.857 -14.024  0.00  0.00    -0.004 C 
ATOM     32  C   UNL     1      31.045 -22.982 -15.548  0.00  0.00    -0.004 C 
ATOM     33  C   UNL     1      29.957 -25.422 -14.745  0.00  0.00    -0.000 C 
ATOM     34  C   UNL     1      29.994 -23.548 -16.269  0.00  0.00    -0.000 C 
ATOM     35  C   UNL     1      29.450 -24.768 -15.869  0.00  0.00    -0.000 C 
ENDBRANCH  29  30
ENDBRANCH   1  29
TORSDOF 13
ENDMDL
MODEL 6
REMARK VINA RESULT:      -9.0      4.650      7.444
REMARK  Name = 10601417
REMARK  13 active torsions:
REMARK  status: ('A' for Active; 'I' for Inactive)
REMARK    1  A    between atoms: C_1  and  C_4
REMARK    2  A    between atoms: C_1  and  C_18
REMARK    3  A    between atoms: C_1  and  C_29
REMARK    4  A    between atoms: N_3  and  CA_6
REMARK    5  A    between atoms: CA_6  and  C_8
REMARK    6  A    between atoms: CA_6  and  CB_11
REMARK    7  A    between atoms: C_8  and  O_9
REMARK    8  A    between atoms: CB_11  and  CG_12
REMARK    9  A    between atoms: C_18  and  P_19
REMARK   10  A    between atoms: P_19  and  O_21
REMARK   11  A    between atoms: P_19  and  C_23
REMARK   12  A    between atoms: C_23  and  N_25
REMARK   13  A    between atoms: C_29  and  C_30
REMARK                            x       y       z     vdW  Elec       q    Type
REMARK                         _______ _______ _______ _____ _____    ______ ____
ROOT
ATOM      1  C   UNL     1      33.892  -8.445 -23.777  0.00  0.00    +0.090 C 
ENDROOT
BRANCH   1   4
ATOM      2  O   UNL     1      35.620 -10.051 -24.360  0.00  0.00    -0.275 OA
ATOM      3  N   UNL     1      33.461 -10.822 -24.020  0.00  0.00    -0.297 N 
ATOM      4  C   ACE A   0      34.442  -9.842 -24.076  0.00  0.00    +0.223 C 
ATOM      5  H   UNL     1      32.541 -10.563 -23.784  0.00  0.00    +0.150 HD
BRANCH   3   6
ATOM      6  CA  UNL     1      33.747 -12.210 -24.295  0.00  0.00    +0.176 C 
BRANCH   6   8
ATOM      7  OXT UNL     1      33.057 -13.409 -26.279  0.00  0.00    -0.248 OA
ATOM      8  C   UNL     1      33.707 -12.492 -25.790  0.00  0.00    +0.332 C 
BRANCH   8   9
ATOM      9  O   UNL     1      34.443 -11.645 -26.549  0.00  0.00    -0.479 OA
ATOM     10  H   UNL     1      34.100 -10.805 -26.781  0.00  0.00    +0.295 HD
ENDBRANCH   8   9
ENDBRANCH   6   8
BRANCH   6  11
ATOM     11  CB  UNL     1      32.764 -13.132 -23.562  0.00  0.00    +0.057 C 
BRANCH  11  12
ATOM     12  CG  UNL     1      33.455 -14.185 -22.728  0.00  0.00    -0.020 C 
ATOM     13  CD1 UNL     1      34.278 -15.131 -23.339  0.00  0.00    -0.004 C 
ATOM     14  CD2 UNL     1      33.271 -14.210 -21.346  0.00  0.00    -0.004 C 
ATOM     15  CE1 UNL     1      34.915 -16.103 -22.569  0.00  0.00    -0.000 C 
ATOM     16  CE2 UNL     1      33.909 -15.181 -20.574  0.00  0.00    -0.000 C 
ATOM     17  CZ  UNL     1      34.731 -16.128 -21.186  0.00  0.00    -0.000 C 
ENDBRANCH  11  12
ENDBRANCH   6  11
ENDBRANCH   3   6
ENDBRANCH   1   4
BRANCH   1  18
ATOM     18  C   UNL     1      33.685  -8.301 -22.266  0.00  0.00    +0.094 C 
BRANCH  18  19
ATOM     19  P   UNL     1      31.956  -8.376 -21.738  0.00  0.00    +0.200 P 
ATOM     20  O   UNL     1      30.996  -8.364 -22.877  0.00  0.00    -0.292 OA
BRANCH  19  21
ATOM     21  O   UNL     1      31.949  -9.745 -20.882  0.00  0.00    -0.344 OA
ATOM     22  H   UNL     1      31.960  -9.535 -19.936  0.00  0.00    +0.218 HD
ENDBRANCH  19  21
BRANCH  19  23
ATOM     23  C   UNL     1      31.722  -7.122 -20.503  0.00  0.00    +0.015 C 
ATOM     24  C   UNL     1      31.740  -5.712 -21.069  0.00  0.00    -0.014 C 
BRANCH  23  25
ATOM     25  N   UNL     1      32.871  -7.326 -19.631  0.00  0.00    +0.388 N 
ATOM     26  H   UNL     1      33.664  -7.648 -20.185  0.00  0.00    -0.089 HD
ATOM     27  H   UNL     1      32.642  -8.025 -18.926  0.00  0.00    -0.089 HD
ATOM     28  H   UNL     1      33.110  -6.446 -19.173  0.00  0.00    -0.089 HD
ENDBRANCH  23  25
ENDBRANCH  19  23
ENDBRANCH  18  19
ENDBRANCH   1  18
BRANCH   1  29
ATOM     29  C   UNL     1      34.807  -7.329 -24.315  0.00  0.00    +0.036 C 
BRANCH  29  30
ATOM     30  C   UNL     1      34.056  -6.275 -25.098  0.00  0.00    -0.022 C 
ATOM     31  C   UNL     1      32.777  -5.889 -24.699  0.00  0.00    -0.004 C 
ATOM     32  C   UNL     1      34.644  -5.691 -26.220  0.00  0.00    -0.004 C 
ATOM     33  C   UNL     1      32.086  -4.917 -25.422  0.00  0.00    -0.000 C 
ATOM     34  C   UNL     1      33.953  -4.719 -26.943  0.00  0.00    -0.000 C 
ATOM     35  C   UNL     1      32.673  -4.332 -26.544  0.00  0.00    -0.000 C 
ENDBRANCH  29  30
ENDBRANCH   1  29
TORSDOF 13
ENDMDL
MODEL 7
REMARK VINA RESULT:      -8.9      5.671     10.622
REMARK  Name = 10601417
REMARK  13 active torsions:
REMARK  status: ('A' for Active; 'I' for Inactive)
REMARK    1  A    between atoms: C_1  and  C_4
REMARK    2  A    between atoms: C_1  and  C_18
REMARK    3  A    between atoms: C_1  and  C_29
REMARK    4  A    between atoms: N_3  and  CA_6
REMARK    5  A    between atoms: CA_6  and  C_8
REMARK    6  A    between atoms: CA_6  and  CB_11
REMARK    7  A    between atoms: C_8  and  O_9
REMARK    8  A    between atoms: CB_11  and  CG_12
REMARK    9  A    between atoms: C_18  and  P_19
REMARK   10  A    between atoms: P_19  and  O_21
REMARK   11  A    between atoms: P_19  and  C_23
REMARK   12  A    between atoms: C_23  and  N_25
REMARK   13  A    between atoms: C_29  and  C_30
REMARK                            x       y       z     vdW  Elec       q    Type
REMARK                         _______ _______ _______ _____ _____    ______ ____
ROOT
ATOM      1  C   UNL     1      33.536 -23.364 -17.293  0.00  0.00    +0.090 C 
ENDROOT
BRANCH   1   4
ATOM      2  O   UNL     1      34.055 -23.804 -19.626  0.00  0.00    -0.275 OA
ATOM      3  N   UNL     1      34.213 -21.628 -18.848  0.00  0.00    -0.297 N 
ATOM      4  C   ACE A   0      33.948 -22.983 -18.717  0.00  0.00    +0.223 C 
ATOM      5  H   UNL     1      34.100 -21.041 -18.065  0.00  0.00    +0.150 HD
BRANCH   3   6
ATOM      6  CA  UNL     1      34.646 -21.047 -20.098  0.00  0.00    +0.176 C 
BRANCH   6   8
ATOM      7  OXT UNL     1      36.657 -19.799 -19.603  0.00  0.00    -0.248 OA
ATOM      8  C   UNL     1      36.147 -20.799 -20.096  0.00  0.00    +0.332 C 
BRANCH   8   9
ATOM      9  O   UNL     1      36.886 -21.774 -20.677  0.00  0.00    -0.479 OA
ATOM     10  H   UNL     1      37.796 -21.633 -20.850  0.00  0.00    +0.295 HD
ENDBRANCH   8   9
ENDBRANCH   6   8
BRANCH   6  11
ATOM     11  CB  UNL     1      33.899 -19.739 -20.387  0.00  0.00    +0.057 C 
BRANCH  11  12
ATOM     12  CG  UNL     1      34.406 -19.032 -21.622  0.00  0.00    -0.020 C 
ATOM     13  CD1 UNL     1      34.795 -17.695 -21.552  0.00  0.00    -0.004 C 
ATOM     14  CD2 UNL     1      34.488 -19.720 -22.834  0.00  0.00    -0.004 C 
ATOM     15  CE1 UNL     1      35.263 -17.043 -22.692  0.00  0.00    -0.000 C 
ATOM     16  CE2 UNL     1      34.957 -19.068 -23.975  0.00  0.00    -0.000 C 
ATOM     17  CZ  UNL     1      35.344 -17.730 -23.904  0.00  0.00    -0.000 C 
ENDBRANCH  11  12
ENDBRANCH   6  11
ENDBRANCH   3   6
ENDBRANCH   1   4
BRANCH   1  18
ATOM     18  C   UNL     1      34.567 -22.806 -16.306  0.00  0.00    +0.094 C 
BRANCH  18  19
ATOM     19  P   UNL     1      35.503 -24.068 -15.410  0.00  0.00    +0.200 P 
ATOM     20  O   UNL     1      35.079 -25.457 -15.743  0.00  0.00    -0.292 OA
BRANCH  19  21
ATOM     21  O   UNL     1      37.014 -23.714 -15.856  0.00  0.00    -0.344 OA
ATOM     22  H   UNL     1      37.528 -23.453 -15.076  0.00  0.00    +0.218 HD
ENDBRANCH  19  21
BRANCH  19  23
ATOM     23  C   UNL     1      35.471 -23.631 -13.689  0.00  0.00    +0.015 C 
ATOM     24  C   UNL     1      36.854 -23.538 -13.068  0.00  0.00    -0.014 C 
BRANCH  23  25
ATOM     25  N   UNL     1      34.732 -24.740 -13.101  0.00  0.00    +0.388 N 
ATOM     26  H   UNL     1      35.389 -25.436 -12.748  0.00  0.00    -0.089 HD
ATOM     27  H   UNL     1      34.135 -25.165 -13.810  0.00  0.00    -0.089 HD
ATOM     28  H   UNL     1      34.156 -24.395 -12.333  0.00  0.00    -0.089 HD
ENDBRANCH  23  25
ENDBRANCH  19  23
ENDBRANCH  18  19
ENDBRANCH   1  18
BRANCH   1  29
ATOM     29  C   UNL     1      32.119 -22.872 -16.943  0.00  0.00    +0.036 C 
BRANCH  29  30
ATOM     30  C   UNL     1      31.579 -23.482 -15.670  0.00  0.00    -0.022 C 
ATOM     31  C   UNL     1      30.850 -24.670 -15.719  0.00  0.00    -0.004 C 
ATOM     32  C   UNL     1      31.810 -22.855 -14.445  0.00  0.00    -0.004 C 
ATOM     33  C   UNL     1      30.353 -25.231 -14.544  0.00  0.00    -0.000 C 
ATOM     34  C   UNL     1      31.312 -23.417 -13.270  0.00  0.00    -0.000 C 
ATOM     35  C   UNL     1      30.583 -24.605 -13.319  0.00  0.00    -0.000 C 
ENDBRANCH  29  30
ENDBRANCH   1  29
TORSDOF 13
ENDMDL
MODEL 8
REMARK VINA RESULT:      -8.9      6.909     11.301
REMARK  Name = 10601417
REMARK  13 active torsions:
REMARK  status: ('A' for Active; 'I' for Inactive)
REMARK    1  A    between atoms: C_1  and  C_4
REMARK    2  A    between atoms: C_1  and  C_18
REMARK    3  A    between atoms: C_1  and  C_29
REMARK    4  A    between atoms: N_3  and  CA_6
REMARK    5  A    between atoms: CA_6  and  C_8
REMARK    6  A    between atoms: CA_6  and  CB_11
REMARK    7  A    between atoms: C_8  and  O_9
REMARK    8  A    between atoms: CB_11  and  CG_12
REMARK    9  A    between atoms: C_18  and  P_19
REMARK   10  A    between atoms: P_19  and  O_21
REMARK   11  A    between atoms: P_19  and  C_23
REMARK   12  A    between atoms: C_23  and  N_25
REMARK   13  A    between atoms: C_29  and  C_30
REMARK                            x       y       z     vdW  Elec       q    Type
REMARK                         _______ _______ _______ _____ _____    ______ ____
ROOT
ATOM      1  C   UNL     1      34.028 -23.977 -15.328  0.00  0.00    +0.090 C 
ENDROOT
BRANCH   1   4
ATOM      2  O   UNL     1      32.529 -23.260 -17.100  0.00  0.00    -0.275 OA
ATOM      3  N   UNL     1      34.768 -22.682 -17.243  0.00  0.00    -0.297 N 
ATOM      4  C   ACE A   0      33.668 -23.271 -16.637  0.00  0.00    +0.223 C 
ATOM      5  H   UNL     1      35.645 -22.740 -16.799  0.00  0.00    +0.150 HD
BRANCH   3   6
ATOM      6  CA  UNL     1      34.668 -21.985 -18.503  0.00  0.00    +0.176 C 
BRANCH   6   8
ATOM      7  OXT UNL     1      34.254 -23.906 -19.913  0.00  0.00    -0.248 OA
ATOM      8  C   UNL     1      33.889 -22.803 -19.523  0.00  0.00    +0.332 C 
BRANCH   8   9
ATOM      9  O   UNL     1      32.748 -22.221 -19.966  0.00  0.00    -0.479 OA
ATOM     10  H   UNL     1      32.585 -22.149 -20.885  0.00  0.00    +0.295 HD
ENDBRANCH   8   9
ENDBRANCH   6   8
BRANCH   6  11
ATOM     11  CB  UNL     1      36.058 -21.644 -19.058  0.00  0.00    +0.057 C 
BRANCH  11  12
ATOM     12  CG  UNL     1      36.031 -20.518 -20.063  0.00  0.00    -0.020 C 
ATOM     13  CD1 UNL     1      34.812 -20.051 -20.556  0.00  0.00    -0.004 C 
ATOM     14  CD2 UNL     1      37.225 -19.942 -20.497  0.00  0.00    -0.004 C 
ATOM     15  CE1 UNL     1      34.788 -19.011 -21.484  0.00  0.00    -0.000 C 
ATOM     16  CE2 UNL     1      37.201 -18.900 -21.424  0.00  0.00    -0.000 C 
ATOM     17  CZ  UNL     1      35.982 -18.435 -21.918  0.00  0.00    -0.000 C 
ENDBRANCH  11  12
ENDBRANCH   6  11
ENDBRANCH   3   6
ENDBRANCH   1   4
BRANCH   1  18
ATOM     18  C   UNL     1      35.494 -23.686 -14.988  0.00  0.00    +0.094 C 
BRANCH  18  19
ATOM     19  P   UNL     1      36.544 -25.155 -14.888  0.00  0.00    +0.200 P 
ATOM     20  O   UNL     1      36.030 -26.298 -15.693  0.00  0.00    -0.292 OA
BRANCH  19  21
ATOM     21  O   UNL     1      37.957 -24.567 -15.402  0.00  0.00    -0.344 OA
ATOM     22  H   UNL     1      38.339 -25.173 -16.056  0.00  0.00    +0.218 HD
ENDBRANCH  19  21
BRANCH  19  23
ATOM     23  C   UNL     1      36.840 -25.481 -13.168  0.00  0.00    +0.015 C 
ATOM     24  C   UNL     1      38.010 -24.697 -12.600  0.00  0.00    -0.014 C 
BRANCH  23  25
ATOM     25  N   UNL     1      37.145 -26.906 -13.170  0.00  0.00    +0.388 N 
ATOM     26  H   UNL     1      36.931 -27.300 -12.254  0.00  0.00    -0.089 HD
ATOM     27  H   UNL     1      38.134 -27.041 -13.376  0.00  0.00    -0.089 HD
ATOM     28  H   UNL     1      36.582 -27.373 -13.881  0.00  0.00    -0.089 HD
ENDBRANCH  23  25
ENDBRANCH  19  23
ENDBRANCH  18  19
ENDBRANCH   1  18
BRANCH   1  29
ATOM     29  C   UNL     1      33.104 -23.564 -14.167  0.00  0.00    +0.036 C 
BRANCH  29  30
ATOM     30  C   UNL     1      31.644 -23.844 -14.445  0.00  0.00    -0.022 C 
ATOM     31  C   UNL     1      31.179 -25.159 -14.473  0.00  0.00    -0.004 C 
ATOM     32  C   UNL     1      30.764 -22.787 -14.676  0.00  0.00    -0.004 C 
ATOM     33  C   UNL     1      29.833 -25.416 -14.729  0.00  0.00    -0.000 C 
ATOM     34  C   UNL     1      29.418 -23.045 -14.932  0.00  0.00    -0.000 C 
ATOM     35  C   UNL     1      28.952 -24.359 -14.960  0.00  0.00    -0.000 C 
ENDBRANCH  29  30
ENDBRANCH   1  29
TORSDOF 13
ENDMDL
MODEL 9
REMARK VINA RESULT:      -8.7      3.324      5.469
REMARK  Name = 10601417
REMARK  13 active torsions:
REMARK  status: ('A' for Active; 'I' for Inactive)
REMARK    1  A    between atoms: C_1  and  C_4
REMARK    2  A    between atoms: C_1  and  C_18
REMARK    3  A    between atoms: C_1  and  C_29
REMARK    4  A    between atoms: N_3  and  CA_6
REMARK    5  A    between atoms: CA_6  and  C_8
REMARK    6  A    between atoms: CA_6  and  CB_11
REMARK    7  A    between atoms: C_8  and  O_9
REMARK    8  A    between atoms: CB_11  and  CG_12
REMARK    9  A    between atoms: C_18  and  P_19
REMARK   10  A    between atoms: P_19  and  O_21
REMARK   11  A    between atoms: P_19  and  C_23
REMARK   12  A    between atoms: C_23  and  N_25
REMARK   13  A    between atoms: C_29  and  C_30
REMARK                            x       y       z     vdW  Elec       q    Type
REMARK                         _______ _______ _______ _____ _____    ______ ____
ROOT
ATOM      1  C   UNL     1      32.582 -11.617 -23.228  0.00  0.00    +0.090 C 
ENDROOT
BRANCH   1   4
ATOM      2  O   UNL     1      32.677 -13.752 -24.386  0.00  0.00    -0.275 OA
ATOM      3  N   UNL     1      32.808 -13.740 -22.073  0.00  0.00    -0.297 N 
ATOM      4  C   ACE A   0      32.702 -13.140 -23.319  0.00  0.00    +0.223 C 
ATOM      5  H   UNL     1      32.820 -13.171 -21.269  0.00  0.00    +0.150 HD
BRANCH   3   6
ATOM      6  CA  UNL     1      32.904 -15.172 -21.915  0.00  0.00    +0.176 C 
BRANCH   6   8
ATOM      7  OXT UNL     1      32.450 -15.021 -19.544  0.00  0.00    -0.248 OA
ATOM      8  C   UNL     1      32.285 -15.622 -20.600  0.00  0.00    +0.332 C 
BRANCH   8   9
ATOM      9  O   UNL     1      31.525 -16.741 -20.682  0.00  0.00    -0.479 OA
ATOM     10  H   UNL     1      31.881 -17.569 -20.428  0.00  0.00    +0.295 HD
ENDBRANCH   8   9
ENDBRANCH   6   8
BRANCH   6  11
ATOM     11  CB  UNL     1      34.363 -15.640 -21.993  0.00  0.00    +0.057 C 
BRANCH  11  12
ATOM     12  CG  UNL     1      34.535 -16.899 -22.810  0.00  0.00    -0.020 C 
ATOM     13  CD1 UNL     1      34.540 -16.832 -24.203  0.00  0.00    -0.004 C 
ATOM     14  CD2 UNL     1      34.690 -18.129 -22.170  0.00  0.00    -0.004 C 
ATOM     15  CE1 UNL     1      34.698 -17.995 -24.956  0.00  0.00    -0.000 C 
ATOM     16  CE2 UNL     1      34.850 -19.292 -22.923  0.00  0.00    -0.000 C 
ATOM     17  CZ  UNL     1      34.853 -19.225 -24.316  0.00  0.00    -0.000 C 
ENDBRANCH  11  12
ENDBRANCH   6  11
ENDBRANCH   3   6
ENDBRANCH   1   4
BRANCH   1  18
ATOM     18  C   UNL     1      32.909 -11.173 -21.799  0.00  0.00    +0.094 C 
BRANCH  18  19
ATOM     19  P   UNL     1      31.466 -10.989 -20.724  0.00  0.00    +0.200 P 
ATOM     20  O   UNL     1      30.173 -11.120 -21.453  0.00  0.00    -0.292 OA
BRANCH  19  21
ATOM     21  O   UNL     1      31.732 -12.153 -19.638  0.00  0.00    -0.344 OA
ATOM     22  H   UNL     1      32.123 -12.923 -20.079  0.00  0.00    +0.218 HD
ENDBRANCH  19  21
BRANCH  19  23
ATOM     23  C   UNL     1      31.687  -9.497 -19.787  0.00  0.00    +0.015 C 
ATOM     24  C   UNL     1      32.443  -8.418 -20.545  0.00  0.00    -0.014 C 
BRANCH  23  25
ATOM     25  N   UNL     1      32.475  -9.957 -18.652  0.00  0.00    +0.388 N 
ATOM     26  H   UNL     1      32.699 -10.945 -18.773  0.00  0.00    -0.089 HD
ATOM     27  H   UNL     1      31.940  -9.832 -17.794  0.00  0.00    -0.089 HD
ATOM     28  H   UNL     1      33.339  -9.417 -18.597  0.00  0.00    -0.089 HD
ENDBRANCH  23  25
ENDBRANCH  19  23
ENDBRANCH  18  19
ENDBRANCH   1  18
BRANCH   1  29
ATOM     29  C   UNL     1      33.485 -10.898 -24.247  0.00  0.00    +0.036 C 
BRANCH  29  30
ATOM     30  C   UNL     1      33.472  -9.394 -24.090  0.00  0.00    -0.022 C 
ATOM     31  C   UNL     1      34.672  -8.696 -23.953  0.00  0.00    -0.004 C 
ATOM     32  C   UNL     1      32.259  -8.705 -24.081  0.00  0.00    -0.004 C 
ATOM     33  C   UNL     1      34.659  -7.309 -23.808  0.00  0.00    -0.000 C 
ATOM     34  C   UNL     1      32.246  -7.318 -23.936  0.00  0.00    -0.000 C 
ATOM     35  C   UNL     1      33.446  -6.620 -23.800  0.00  0.00    -0.000 C 
ENDBRANCH  29  30
ENDBRANCH   1  29
TORSDOF 13
ENDMDL
