MODEL 1
REMARK VINA RESULT:     -11.7      0.000      0.000
REMARK  Name = 24178119
REMARK  2 active torsions:
REMARK  status: ('A' for Active; 'I' for Inactive)
REMARK    1  A    between atoms: N_2  and  C_16
REMARK    2  A    between atoms: C_4  and  O_22
REMARK                            x       y       z     vdW  Elec       q    Type
REMARK                         _______ _______ _______ _____ _____    ______ ____
ROOT
ATOM      1  O   UNL     1      33.624 -15.434 -25.086  0.00  0.00    -0.292 OA
ATOM      2  N   UNL     1      34.559 -18.895 -22.241  0.00  0.00    -0.264 N 
ATOM      3  N   UNL     1      33.636 -16.858 -21.268  0.00  0.00    -0.392 NA
ATOM      4  C   UNL     1      34.663 -16.896 -23.499  0.00  0.00    +0.201 C 
ATOM      5  C   UNL     1      34.665 -18.091 -24.445  0.00  0.00    +0.064 C 
ATOM      6  C   UNL     1      35.102 -19.261 -23.554  0.00  0.00    +0.101 C 
ATOM      7  C   UNL     1      34.219 -17.546 -22.197  0.00  0.00    +0.194 C 
ATOM      8  C   UNL     1      33.819 -15.724 -23.913  0.00  0.00    +0.192 C 
ATOM      9  C   UNL     1      33.291 -14.929 -22.787  0.00  0.00    +0.131 C 
ATOM     10  C   UNL     1      33.279 -15.516 -21.510  0.00  0.00    +0.121 C 
ATOM     11  C   UNL     1      32.848 -13.621 -22.993  0.00  0.00    -0.031 C 
ATOM     12  C   UNL     1      32.814 -14.749 -20.436  0.00  0.00    +0.028 C 
ATOM     13  C   UNL     1      32.392 -12.875 -21.908  0.00  0.00    -0.008 C 
ATOM     14  C   UNL     1      32.378 -13.436 -20.631  0.00  0.00    +0.002 C 
ATOM     15  C   UNL     1      32.858 -12.947 -24.326  0.00  0.00    +0.027 C 
ENDROOT
BRANCH   2  16
ATOM     16  C   UNL     1      34.456 -19.806 -21.219  0.00  0.00    +0.053 C 
ATOM     17  C   UNL     1      33.200 -20.174 -20.736  0.00  0.00    +0.015 C 
ATOM     18  C   UNL     1      35.608 -20.364 -20.664  0.00  0.00    +0.015 C 
ATOM     19  C   UNL     1      33.095 -21.099 -19.698  0.00  0.00    +0.001 C 
ATOM     20  C   UNL     1      35.503 -21.291 -19.625  0.00  0.00    +0.001 C 
ATOM     21  C   UNL     1      34.247 -21.657 -19.142  0.00  0.00    +0.000 C 
ENDBRANCH   2  16
BRANCH   4  22
ATOM     22  O   UNL     1      35.966 -16.373 -23.306  0.00  0.00    -0.373 OA
ATOM     23  H   UNL     1      36.025 -15.494 -23.713  0.00  0.00    +0.211 HD
ENDBRANCH   4  22
TORSDOF 2
ENDMDL
MODEL 2
REMARK VINA RESULT:     -10.3      2.853      7.373
REMARK  Name = 24178119
REMARK  2 active torsions:
REMARK  status: ('A' for Active; 'I' for Inactive)
REMARK    1  A    between atoms: N_2  and  C_16
REMARK    2  A    between atoms: C_4  and  O_22
REMARK                            x       y       z     vdW  Elec       q    Type
REMARK                         _______ _______ _______ _____ _____    ______ ____
ROOT
ATOM      1  O   UNL     1      34.524 -16.322 -25.899  0.00  0.00    -0.292 OA
ATOM      2  N   UNL     1      33.705 -11.936 -24.882  0.00  0.00    -0.264 N 
ATOM      3  N   UNL     1      34.152 -13.455 -23.027  0.00  0.00    -0.392 NA
ATOM      4  C   UNL     1      33.491 -14.260 -25.251  0.00  0.00    +0.201 C 
ATOM      5  C   UNL     1      33.812 -13.566 -26.569  0.00  0.00    +0.064 C 
ATOM      6  C   UNL     1      33.427 -12.103 -26.313  0.00  0.00    +0.101 C 
ATOM      7  C   UNL     1      33.827 -13.169 -24.246  0.00  0.00    +0.194 C 
ATOM      8  C   UNL     1      34.200 -15.561 -24.998  0.00  0.00    +0.192 C 
ATOM      9  C   UNL     1      34.426 -15.859 -23.570  0.00  0.00    +0.131 C 
ATOM     10  C   UNL     1      34.335 -14.801 -22.649  0.00  0.00    +0.121 C 
ATOM     11  C   UNL     1      34.692 -17.166 -23.155  0.00  0.00    -0.031 C 
ATOM     12  C   UNL     1      34.511 -15.090 -21.292  0.00  0.00    +0.028 C 
ATOM     13  C   UNL     1      34.862 -17.431 -21.798  0.00  0.00    -0.008 C 
ATOM     14  C   UNL     1      34.768 -16.396 -20.867  0.00  0.00    +0.002 C 
ATOM     15  C   UNL     1      34.781 -18.326 -24.091  0.00  0.00    +0.027 C 
ENDROOT
BRANCH   2  16
ATOM     16  C   UNL     1      33.789 -10.696 -24.299  0.00  0.00    +0.053 C 
ATOM     17  C   UNL     1      34.856  -9.850 -24.606  0.00  0.00    +0.015 C 
ATOM     18  C   UNL     1      32.808 -10.279 -23.399  0.00  0.00    +0.015 C 
ATOM     19  C   UNL     1      34.942  -8.591 -24.014  0.00  0.00    +0.001 C 
ATOM     20  C   UNL     1      32.894  -9.019 -22.807  0.00  0.00    +0.001 C 
ATOM     21  C   UNL     1      33.960  -8.175 -23.114  0.00  0.00    +0.000 C 
ENDBRANCH   2  16
BRANCH   4  22
ATOM     22  O   UNL     1      32.109 -14.556 -25.133  0.00  0.00    -0.373 OA
ATOM     23  H   UNL     1      31.591 -13.754 -25.312  0.00  0.00    +0.211 HD
ENDBRANCH   4  22
TORSDOF 2
ENDMDL
MODEL 3
REMARK VINA RESULT:     -10.1      5.296      8.147
REMARK  Name = 24178119
REMARK  2 active torsions:
REMARK  status: ('A' for Active; 'I' for Inactive)
REMARK    1  A    between atoms: N_2  and  C_16
REMARK    2  A    between atoms: C_4  and  O_22
REMARK                            x       y       z     vdW  Elec       q    Type
REMARK                         _______ _______ _______ _____ _____    ______ ____
ROOT
ATOM      1  O   UNL     1      32.119 -21.548 -18.637  0.00  0.00    -0.292 OA
ATOM      2  N   UNL     1      34.861 -23.760 -15.715  0.00  0.00    -0.264 N 
ATOM      3  N   UNL     1      35.921 -22.425 -17.460  0.00  0.00    -0.392 NA
ATOM      4  C   UNL     1      33.575 -23.142 -17.600  0.00  0.00    +0.201 C 
ATOM      5  C   UNL     1      32.652 -23.366 -16.409  0.00  0.00    +0.064 C 
ATOM      6  C   UNL     1      33.493 -24.221 -15.451  0.00  0.00    +0.101 C 
ATOM      7  C   UNL     1      34.932 -23.061 -16.917  0.00  0.00    +0.194 C 
ATOM      8  C   UNL     1      33.259 -21.959 -18.470  0.00  0.00    +0.192 C 
ATOM      9  C   UNL     1      34.435 -21.369 -19.141  0.00  0.00    +0.131 C 
ATOM     10  C   UNL     1      35.710 -21.678 -18.636  0.00  0.00    +0.121 C 
ATOM     11  C   UNL     1      34.272 -20.553 -20.263  0.00  0.00    -0.031 C 
ATOM     12  C   UNL     1      36.825 -21.150 -19.295  0.00  0.00    +0.028 C 
ATOM     13  C   UNL     1      35.398 -20.040 -20.904  0.00  0.00    -0.008 C 
ATOM     14  C   UNL     1      36.672 -20.341 -20.424  0.00  0.00    +0.002 C 
ATOM     15  C   UNL     1      32.941 -20.211 -20.847  0.00  0.00    +0.027 C 
ENDROOT
BRANCH   2  16
ATOM     16  C   UNL     1      35.899 -24.043 -14.862  0.00  0.00    +0.053 C 
ATOM     17  C   UNL     1      36.208 -23.164 -13.823  0.00  0.00    +0.015 C 
ATOM     18  C   UNL     1      36.645 -25.210 -15.034  0.00  0.00    +0.015 C 
ATOM     19  C   UNL     1      37.263 -23.452 -12.958  0.00  0.00    +0.001 C 
ATOM     20  C   UNL     1      37.699 -25.497 -14.167  0.00  0.00    +0.001 C 
ATOM     21  C   UNL     1      38.008 -24.618 -13.129  0.00  0.00    +0.000 C 
ENDBRANCH   2  16
BRANCH   4  22
ATOM     22  O   UNL     1      33.590 -24.259 -18.474  0.00  0.00    -0.373 OA
ATOM     23  H   UNL     1      33.604 -25.077 -17.952  0.00  0.00    +0.211 HD
ENDBRANCH   4  22
TORSDOF 2
ENDMDL
MODEL 4
REMARK VINA RESULT:      -9.4      4.360      6.877
REMARK  Name = 24178119
REMARK  2 active torsions:
REMARK  status: ('A' for Active; 'I' for Inactive)
REMARK    1  A    between atoms: N_2  and  C_16
REMARK    2  A    between atoms: C_4  and  O_22
REMARK                            x       y       z     vdW  Elec       q    Type
REMARK                         _______ _______ _______ _____ _____    ______ ____
ROOT
ATOM      1  O   UNL     1      31.894  -9.487 -19.836  0.00  0.00    -0.292 OA
ATOM      2  N   UNL     1      32.647 -13.201 -22.404  0.00  0.00    -0.264 N 
ATOM      3  N   UNL     1      33.197 -11.032 -23.375  0.00  0.00    -0.392 NA
ATOM      4  C   UNL     1      31.706 -11.260 -21.436  0.00  0.00    +0.201 C 
ATOM      5  C   UNL     1      31.795 -12.359 -20.384  0.00  0.00    +0.064 C 
ATOM      6  C   UNL     1      31.919 -13.645 -21.210  0.00  0.00    +0.101 C 
ATOM      7  C   UNL     1      32.612 -11.814 -22.525  0.00  0.00    +0.194 C 
ATOM      8  C   UNL     1      32.076  -9.876 -20.982  0.00  0.00    +0.192 C 
ATOM      9  C   UNL     1      32.629  -9.017 -22.047  0.00  0.00    +0.131 C 
ATOM     10  C   UNL     1      33.110  -9.634 -23.214  0.00  0.00    +0.121 C 
ATOM     11  C   UNL     1      32.640  -7.628 -21.899  0.00  0.00    -0.031 C 
ATOM     12  C   UNL     1      33.599  -8.817 -24.240  0.00  0.00    +0.028 C 
ATOM     13  C   UNL     1      33.129  -6.834 -22.934  0.00  0.00    -0.008 C 
ATOM     14  C   UNL     1      33.604  -7.426 -24.104  0.00  0.00    +0.002 C 
ATOM     15  C   UNL     1      32.124  -6.924 -20.687  0.00  0.00    +0.027 C 
ENDROOT
BRANCH   2  16
ATOM     16  C   UNL     1      33.237 -14.090 -23.267  0.00  0.00    +0.053 C 
ATOM     17  C   UNL     1      32.809 -14.166 -24.593  0.00  0.00    +0.015 C 
ATOM     18  C   UNL     1      34.267 -14.918 -22.819  0.00  0.00    +0.015 C 
ATOM     19  C   UNL     1      33.409 -15.069 -25.469  0.00  0.00    +0.001 C 
ATOM     20  C   UNL     1      34.868 -15.821 -23.696  0.00  0.00    +0.001 C 
ATOM     21  C   UNL     1      34.439 -15.897 -25.021  0.00  0.00    +0.000 C 
ENDBRANCH   2  16
BRANCH   4  22
ATOM     22  O   UNL     1      30.398 -11.145 -21.970  0.00  0.00    -0.373 OA
ATOM     23  H   UNL     1      30.179 -10.206 -22.087  0.00  0.00    +0.211 HD
ENDBRANCH   4  22
TORSDOF 2
ENDMDL
MODEL 5
REMARK VINA RESULT:      -9.3      4.363      6.932
REMARK  Name = 24178119
REMARK  2 active torsions:
REMARK  status: ('A' for Active; 'I' for Inactive)
REMARK    1  A    between atoms: N_2  and  C_16
REMARK    2  A    between atoms: C_4  and  O_22
REMARK                            x       y       z     vdW  Elec       q    Type
REMARK                         _______ _______ _______ _____ _____    ______ ____
ROOT
ATOM      1  O   UNL     1      31.865  -9.479 -19.775  0.00  0.00    -0.292 OA
ATOM      2  N   UNL     1      32.665 -13.188 -22.335  0.00  0.00    -0.264 N 
ATOM      3  N   UNL     1      33.187 -11.014 -23.311  0.00  0.00    -0.392 NA
ATOM      4  C   UNL     1      31.700 -11.258 -21.371  0.00  0.00    +0.201 C 
ATOM      5  C   UNL     1      31.803 -12.353 -20.316  0.00  0.00    +0.064 C 
ATOM      6  C   UNL     1      31.944 -13.640 -21.139  0.00  0.00    +0.101 C 
ATOM      7  C   UNL     1      32.613 -11.802 -22.459  0.00  0.00    +0.194 C 
ATOM      8  C   UNL     1      32.052  -9.868 -20.920  0.00  0.00    +0.192 C 
ATOM      9  C   UNL     1      32.593  -9.004 -21.987  0.00  0.00    +0.131 C 
ATOM     10  C   UNL     1      33.081  -9.618 -23.153  0.00  0.00    +0.121 C 
ATOM     11  C   UNL     1      32.585  -7.615 -21.842  0.00  0.00    -0.031 C 
ATOM     12  C   UNL     1      33.559  -8.796 -24.180  0.00  0.00    +0.028 C 
ATOM     13  C   UNL     1      33.064  -6.816 -22.879  0.00  0.00    -0.008 C 
ATOM     14  C   UNL     1      33.547  -7.405 -24.048  0.00  0.00    +0.002 C 
ATOM     15  C   UNL     1      32.061  -6.915 -20.631  0.00  0.00    +0.027 C 
ENDROOT
BRANCH   2  16
ATOM     16  C   UNL     1      33.267 -14.071 -23.196  0.00  0.00    +0.053 C 
ATOM     17  C   UNL     1      34.313 -14.880 -22.750  0.00  0.00    +0.015 C 
ATOM     18  C   UNL     1      32.833 -14.161 -24.519  0.00  0.00    +0.015 C 
ATOM     19  C   UNL     1      34.924 -15.777 -23.625  0.00  0.00    +0.001 C 
ATOM     20  C   UNL     1      33.444 -15.059 -25.395  0.00  0.00    +0.001 C 
ATOM     21  C   UNL     1      34.489 -15.866 -24.948  0.00  0.00    +0.000 C 
ENDBRANCH   2  16
BRANCH   4  22
ATOM     22  O   UNL     1      30.390 -11.161 -21.905  0.00  0.00    -0.373 OA
ATOM     23  H   UNL     1      30.374 -10.483 -22.600  0.00  0.00    +0.211 HD
ENDBRANCH   4  22
TORSDOF 2
ENDMDL
