MODEL 1
REMARK VINA RESULT:      -8.6      0.000      0.000
REMARK  Name = 6918537
REMARK  5 active torsions:
REMARK  status: ('A' for Active; 'I' for Inactive)
REMARK    1  A    between atoms: N_1  and  C_4
REMARK    2  A    between atoms: N_1  and  C_16
REMARK    3  A    between atoms: C_5  and  O_14
REMARK    4  A    between atoms: C_16  and  C_19
REMARK    5  A    between atoms: C_20  and  C_25
REMARK                            x       y       z     vdW  Elec       q    Type
REMARK                         _______ _______ _______ _____ _____    ______ ____
ROOT
ATOM      1  N   UNL     1      34.963 -24.232 -15.566  0.00  0.00    +0.392 N 
ATOM      2  H   UNL     1      34.473 -25.108 -15.747  0.00  0.00    -0.084 HD
ATOM      3  H   UNL     1      35.498 -23.948 -16.387  0.00  0.00    -0.084 HD
ENDROOT
BRANCH   1   4
ATOM      4  C   UNL     1      35.884 -24.418 -14.446  0.00  0.00    -0.043 C 
ATOM      5  C   UNL     1      36.050 -24.832 -11.962  0.00  0.00    +0.086 C 
ATOM      6  C   UNL     1      37.765 -25.829 -13.515  0.00  0.00    +0.000 C 
ATOM      7  C   UNL     1      37.733 -23.341 -13.097  0.00  0.00    +0.000 C 
ATOM      8  C   UNL     1      35.084 -24.648 -13.147  0.00  0.00    +0.007 C 
ATOM      9  C   UNL     1      36.797 -25.640 -14.697  0.00  0.00    -0.019 C 
ATOM     10  C   UNL     1      36.763 -23.159 -14.280  0.00  0.00    -0.019 C 
ATOM     11  C   UNL     1      36.954 -26.048 -12.228  0.00  0.00    +0.027 C 
ATOM     12  C   UNL     1      36.923 -23.575 -11.812  0.00  0.00    +0.027 C 
ATOM     13  C   UNL     1      38.628 -24.565 -13.359  0.00  0.00    +0.000 C 
BRANCH   5  14
ATOM     14  O   UNL     1      35.314 -25.056 -10.767  0.00  0.00    -0.387 OA
ATOM     15  H   UNL     1      35.404 -24.286 -10.183  0.00  0.00    +0.210 HD
ENDBRANCH   5  14
ENDBRANCH   1   4
BRANCH   1  16
ATOM     16  C   UNL     1      33.987 -23.195 -15.265  0.00  0.00    +0.006 C 
BRANCH  16  19
ATOM     17  O   UNL     1      32.748 -23.169 -17.297  0.00  0.00    -0.277 OA
ATOM     18  N   UNL     1      31.641 -23.884 -15.395  0.00  0.00    -0.270 N 
ATOM     19  C   UNL     1      32.744 -23.413 -16.090  0.00  0.00    +0.205 C 
ATOM     20  C   UNL     1      30.388 -24.248 -16.059  0.00  0.00    +0.167 C 
ATOM     21  C   UNL     1      31.590 -24.186 -13.966  0.00  0.00    +0.094 C 
ATOM     22  C   UNL     1      29.655 -25.098 -15.019  0.00  0.00    +0.037 C 
ATOM     23  C   UNL     1      30.131 -24.518 -13.690  0.00  0.00    +0.024 C 
BRANCH  20  25
ATOM     24  N   UNL     1      29.011 -22.099 -16.699  0.00  0.00    -0.194 NA
ATOM     25  C   UNL     1      29.618 -23.046 -16.417  0.00  0.00    +0.093 C 
ENDBRANCH  20  25
ENDBRANCH  16  19
ENDBRANCH   1  16
TORSDOF 5
ENDMDL
MODEL 2
REMARK VINA RESULT:      -8.5      1.636      2.450
REMARK  Name = 6918537
REMARK  5 active torsions:
REMARK  status: ('A' for Active; 'I' for Inactive)
REMARK    1  A    between atoms: N_1  and  C_4
REMARK    2  A    between atoms: N_1  and  C_16
REMARK    3  A    between atoms: C_5  and  O_14
REMARK    4  A    between atoms: C_16  and  C_19
REMARK    5  A    between atoms: C_20  and  C_25
REMARK                            x       y       z     vdW  Elec       q    Type
REMARK                         _______ _______ _______ _____ _____    ______ ____
ROOT
ATOM      1  N   UNL     1      35.728 -23.447 -15.717  0.00  0.00    +0.392 N 
ATOM      2  H   UNL     1      35.483 -23.988 -16.545  0.00  0.00    -0.084 HD
ATOM      3  H   UNL     1      36.229 -22.600 -15.981  0.00  0.00    -0.084 HD
ENDROOT
BRANCH   1   4
ATOM      4  C   UNL     1      36.592 -24.253 -14.855  0.00  0.00    -0.043 C 
ATOM      5  C   UNL     1      38.982 -24.879 -14.338  0.00  0.00    +0.086 C 
ATOM      6  C   UNL     1      37.298 -24.718 -12.471  0.00  0.00    +0.000 C 
ATOM      7  C   UNL     1      37.164 -26.610 -14.135  0.00  0.00    +0.000 C 
ATOM      8  C   UNL     1      38.068 -24.023 -15.235  0.00  0.00    +0.007 C 
ATOM      9  C   UNL     1      36.387 -23.865 -13.372  0.00  0.00    -0.019 C 
ATOM     10  C   UNL     1      36.254 -25.750 -15.033  0.00  0.00    -0.019 C 
ATOM     11  C   UNL     1      38.764 -24.483 -12.868  0.00  0.00    +0.027 C 
ATOM     12  C   UNL     1      38.631 -26.365 -14.520  0.00  0.00    +0.027 C 
ATOM     13  C   UNL     1      36.954 -26.205 -12.665  0.00  0.00    +0.000 C 
BRANCH   5  14
ATOM     14  O   UNL     1      40.343 -24.657 -14.679  0.00  0.00    -0.387 OA
ATOM     15  H   UNL     1      40.900 -25.317 -14.236  0.00  0.00    +0.210 HD
ENDBRANCH   5  14
ENDBRANCH   1   4
BRANCH   1  16
ATOM     16  C   UNL     1      34.510 -23.069 -15.017  0.00  0.00    +0.006 C 
BRANCH  16  19
ATOM     17  O   UNL     1      33.367 -23.416 -17.076  0.00  0.00    -0.277 OA
ATOM     18  N   UNL     1      32.181 -23.817 -15.130  0.00  0.00    -0.270 N 
ATOM     19  C   UNL     1      33.309 -23.449 -15.846  0.00  0.00    +0.205 C 
ATOM     20  C   UNL     1      30.965 -24.314 -15.777  0.00  0.00    +0.167 C 
ATOM     21  C   UNL     1      32.066 -23.871 -13.674  0.00  0.00    +0.094 C 
ATOM     22  C   UNL     1      30.194 -24.988 -14.640  0.00  0.00    +0.037 C 
ATOM     23  C   UNL     1      30.600 -24.180 -13.410  0.00  0.00    +0.024 C 
BRANCH  20  25
ATOM     24  N   UNL     1      29.593 -22.334 -16.836  0.00  0.00    -0.194 NA
ATOM     25  C   UNL     1      30.198 -23.206 -16.369  0.00  0.00    +0.093 C 
ENDBRANCH  20  25
ENDBRANCH  16  19
ENDBRANCH   1  16
TORSDOF 5
ENDMDL
MODEL 3
REMARK VINA RESULT:      -8.4      1.924      2.893
REMARK  Name = 6918537
REMARK  5 active torsions:
REMARK  status: ('A' for Active; 'I' for Inactive)
REMARK    1  A    between atoms: N_1  and  C_4
REMARK    2  A    between atoms: N_1  and  C_16
REMARK    3  A    between atoms: C_5  and  O_14
REMARK    4  A    between atoms: C_16  and  C_19
REMARK    5  A    between atoms: C_20  and  C_25
REMARK                            x       y       z     vdW  Elec       q    Type
REMARK                         _______ _______ _______ _____ _____    ______ ____
ROOT
ATOM      1  N   UNL     1      34.715 -23.363 -13.883  0.00  0.00    +0.392 N 
ATOM      2  H   UNL     1      34.991 -22.409 -14.114  0.00  0.00    -0.084 HD
ATOM      3  H   UNL     1      34.258 -23.391 -12.972  0.00  0.00    -0.084 HD
ENDROOT
BRANCH   1   4
ATOM      4  C   UNL     1      35.907 -24.209 -13.836  0.00  0.00    -0.043 C 
ATOM      5  C   UNL     1      37.129 -26.113 -14.955  0.00  0.00    +0.086 C 
ATOM      6  C   UNL     1      38.436 -24.242 -13.889  0.00  0.00    +0.000 C 
ATOM      7  C   UNL     1      37.186 -25.893 -12.447  0.00  0.00    +0.000 C 
ATOM      8  C   UNL     1      35.881 -25.212 -15.008  0.00  0.00    +0.007 C 
ATOM      9  C   UNL     1      37.185 -23.345 -13.941  0.00  0.00    -0.019 C 
ATOM     10  C   UNL     1      35.937 -24.992 -12.505  0.00  0.00    -0.019 C 
ATOM     11  C   UNL     1      38.390 -25.240 -15.057  0.00  0.00    +0.027 C 
ATOM     12  C   UNL     1      37.150 -26.882 -13.623  0.00  0.00    +0.027 C 
ATOM     13  C   UNL     1      38.447 -25.019 -12.561  0.00  0.00    +0.000 C 
BRANCH   5  14
ATOM     14  O   UNL     1      37.111 -27.029 -16.042  0.00  0.00    -0.387 OA
ATOM     15  H   UNL     1      36.801 -26.575 -16.842  0.00  0.00    +0.210 HD
ENDBRANCH   5  14
ENDBRANCH   1   4
BRANCH   1  16
ATOM     16  C   UNL     1      33.781 -23.845 -14.889  0.00  0.00    +0.006 C 
BRANCH  16  19
ATOM     17  O   UNL     1      32.313 -24.615 -13.180  0.00  0.00    -0.277 OA
ATOM     18  N   UNL     1      31.352 -23.550 -14.997  0.00  0.00    -0.270 N 
ATOM     19  C   UNL     1      32.422 -24.043 -14.266  0.00  0.00    +0.205 C 
ATOM     20  C   UNL     1      29.979 -23.565 -14.491  0.00  0.00    +0.167 C 
ATOM     21  C   UNL     1      31.434 -22.867 -16.286  0.00  0.00    +0.094 C 
ATOM     22  C   UNL     1      29.247 -22.565 -15.388  0.00  0.00    +0.037 C 
ATOM     23  C   UNL     1      29.988 -22.674 -16.717  0.00  0.00    +0.024 C 
BRANCH  20  25
ATOM     24  N   UNL     1      28.939 -25.975 -14.677  0.00  0.00    -0.194 NA
ATOM     25  C   UNL     1      29.397 -24.913 -14.595  0.00  0.00    +0.093 C 
ENDBRANCH  20  25
ENDBRANCH  16  19
ENDBRANCH   1  16
TORSDOF 5
ENDMDL
MODEL 4
REMARK VINA RESULT:      -8.3     14.348     16.615
REMARK  Name = 6918537
REMARK  5 active torsions:
REMARK  status: ('A' for Active; 'I' for Inactive)
REMARK    1  A    between atoms: N_1  and  C_4
REMARK    2  A    between atoms: N_1  and  C_16
REMARK    3  A    between atoms: C_5  and  O_14
REMARK    4  A    between atoms: C_16  and  C_19
REMARK    5  A    between atoms: C_20  and  C_25
REMARK                            x       y       z     vdW  Elec       q    Type
REMARK                         _______ _______ _______ _____ _____    ______ ____
ROOT
ATOM      1  N   UNL     1      31.933 -10.658 -23.547  0.00  0.00    +0.392 N 
ATOM      2  H   UNL     1      32.419 -10.871 -24.417  0.00  0.00    -0.084 HD
ATOM      3  H   UNL     1      30.923 -10.699 -23.685  0.00  0.00    -0.084 HD
ENDROOT
BRANCH   1   4
ATOM      4  C   UNL     1      32.292  -9.309 -23.113  0.00  0.00    -0.043 C 
ATOM      5  C   UNL     1      32.755  -7.843 -21.111  0.00  0.00    +0.086 C 
ATOM      6  C   UNL     1      34.027  -7.473 -23.254  0.00  0.00    +0.000 C 
ATOM      7  C   UNL     1      31.577  -6.882 -23.120  0.00  0.00    +0.000 C 
ATOM      8  C   UNL     1      32.388  -9.265 -21.574  0.00  0.00    +0.007 C 
ATOM      9  C   UNL     1      33.655  -8.895 -23.714  0.00  0.00    -0.019 C 
ATOM     10  C   UNL     1      31.212  -8.307 -23.578  0.00  0.00    -0.019 C 
ATOM     11  C   UNL     1      34.110  -7.445 -21.720  0.00  0.00    +0.027 C 
ATOM     12  C   UNL     1      31.676  -6.855 -21.586  0.00  0.00    +0.027 C 
ATOM     13  C   UNL     1      32.939  -6.490 -23.720  0.00  0.00    +0.000 C 
BRANCH   5  14
ATOM     14  O   UNL     1      32.856  -7.805 -19.694  0.00  0.00    -0.387 OA
ATOM     15  H   UNL     1      33.323  -8.597 -19.382  0.00  0.00    +0.210 HD
ENDBRANCH   5  14
ENDBRANCH   1   4
BRANCH   1  16
ATOM     16  C   UNL     1      32.306 -11.640 -22.540  0.00  0.00    +0.006 C 
BRANCH  16  19
ATOM     17  O   UNL     1      33.990 -12.270 -24.101  0.00  0.00    -0.277 OA
ATOM     18  N   UNL     1      33.450 -13.803 -22.453  0.00  0.00    -0.270 N 
ATOM     19  C   UNL     1      33.329 -12.589 -23.111  0.00  0.00    +0.205 C 
ATOM     20  C   UNL     1      34.467 -14.794 -22.811  0.00  0.00    +0.167 C 
ATOM     21  C   UNL     1      32.690 -14.224 -21.278  0.00  0.00    +0.094 C 
ATOM     22  C   UNL     1      34.518 -15.721 -21.595  0.00  0.00    +0.037 C 
ATOM     23  C   UNL     1      33.092 -15.674 -21.054  0.00  0.00    +0.024 C 
BRANCH  20  25
ATOM     24  N   UNL     1      33.778 -16.095 -24.992  0.00  0.00    -0.194 NA
ATOM     25  C   UNL     1      34.081 -15.522 -24.031  0.00  0.00    +0.093 C 
ENDBRANCH  20  25
ENDBRANCH  16  19
ENDBRANCH   1  16
TORSDOF 5
ENDMDL
MODEL 5
REMARK VINA RESULT:      -8.2      1.837      6.982
REMARK  Name = 6918537
REMARK  5 active torsions:
REMARK  status: ('A' for Active; 'I' for Inactive)
REMARK    1  A    between atoms: N_1  and  C_4
REMARK    2  A    between atoms: N_1  and  C_16
REMARK    3  A    between atoms: C_5  and  O_14
REMARK    4  A    between atoms: C_16  and  C_19
REMARK    5  A    between atoms: C_20  and  C_25
REMARK                            x       y       z     vdW  Elec       q    Type
REMARK                         _______ _______ _______ _____ _____    ______ ____
ROOT
ATOM      1  N   UNL     1      33.847 -23.397 -15.064  0.00  0.00    +0.392 N 
ATOM      2  H   UNL     1      34.154 -22.738 -14.349  0.00  0.00    -0.084 HD
ATOM      3  H   UNL     1      34.062 -23.037 -15.994  0.00  0.00    -0.084 HD
ENDROOT
BRANCH   1   4
ATOM      4  C   UNL     1      32.401 -23.584 -14.957  0.00  0.00    -0.043 C 
ATOM      5  C   UNL     1      30.181 -23.179 -16.087  0.00  0.00    +0.086 C 
ATOM      6  C   UNL     1      30.534 -25.277 -14.738  0.00  0.00    +0.000 C 
ATOM      7  C   UNL     1      30.349 -23.044 -13.578  0.00  0.00    +0.000 C 
ATOM      8  C   UNL     1      31.706 -22.996 -16.201  0.00  0.00    +0.007 C 
ATOM      9  C   UNL     1      32.058 -25.088 -14.852  0.00  0.00    -0.019 C 
ATOM     10  C   UNL     1      31.874 -22.860 -13.698  0.00  0.00    -0.019 C 
ATOM     11  C   UNL     1      29.857 -24.679 -15.981  0.00  0.00    +0.027 C 
ATOM     12  C   UNL     1      29.671 -22.460 -14.827  0.00  0.00    +0.027 C 
ATOM     13  C   UNL     1      30.026 -24.545 -13.484  0.00  0.00    +0.000 C 
BRANCH   5  14
ATOM     14  O   UNL     1      29.541 -22.649 -17.240  0.00  0.00    -0.387 OA
ATOM     15  H   UNL     1      30.212 -22.326 -17.863  0.00  0.00    +0.210 HD
ENDBRANCH   5  14
ENDBRANCH   1   4
BRANCH   1  16
ATOM     16  C   UNL     1      34.545 -24.660 -14.879  0.00  0.00    +0.006 C 
BRANCH  16  19
ATOM     17  O   UNL     1      34.784 -24.357 -12.530  0.00  0.00    -0.277 OA
ATOM     18  N   UNL     1      36.694 -24.884 -13.727  0.00  0.00    -0.270 N 
ATOM     19  C   UNL     1      35.340 -24.618 -13.598  0.00  0.00    +0.205 C 
ATOM     20  C   UNL     1      37.589 -24.988 -12.573  0.00  0.00    +0.167 C 
ATOM     21  C   UNL     1      37.394 -25.198 -14.970  0.00  0.00    +0.094 C 
ATOM     22  C   UNL     1      38.822 -25.702 -13.129  0.00  0.00    +0.037 C 
ATOM     23  C   UNL     1      38.865 -25.250 -14.586  0.00  0.00    +0.024 C 
BRANCH  20  25
ATOM     24  N   UNL     1      38.190 -22.603 -11.638  0.00  0.00    -0.194 NA
ATOM     25  C   UNL     1      37.925 -23.654 -12.050  0.00  0.00    +0.093 C 
ENDBRANCH  20  25
ENDBRANCH  16  19
ENDBRANCH   1  16
TORSDOF 5
ENDMDL
MODEL 6
REMARK VINA RESULT:      -8.2     14.116     16.474
REMARK  Name = 6918537
REMARK  5 active torsions:
REMARK  status: ('A' for Active; 'I' for Inactive)
REMARK    1  A    between atoms: N_1  and  C_4
REMARK    2  A    between atoms: N_1  and  C_16
REMARK    3  A    between atoms: C_5  and  O_14
REMARK    4  A    between atoms: C_16  and  C_19
REMARK    5  A    between atoms: C_20  and  C_25
REMARK                            x       y       z     vdW  Elec       q    Type
REMARK                         _______ _______ _______ _____ _____    ______ ____
ROOT
ATOM      1  N   UNL     1      31.400 -10.811 -22.376  0.00  0.00    +0.392 N 
ATOM      2  H   UNL     1      30.521 -10.823 -22.892  0.00  0.00    -0.084 HD
ATOM      3  H   UNL     1      31.248 -11.096 -21.409  0.00  0.00    -0.084 HD
ENDROOT
BRANCH   1   4
ATOM      4  C   UNL     1      31.944  -9.454 -22.385  0.00  0.00    -0.043 C 
ATOM      5  C   UNL     1      32.809  -7.571 -20.943  0.00  0.00    +0.086 C 
ATOM      6  C   UNL     1      33.815  -7.970 -23.218  0.00  0.00    +0.000 C 
ATOM      7  C   UNL     1      31.475  -7.049 -23.015  0.00  0.00    +0.000 C 
ATOM      8  C   UNL     1      32.247  -9.005 -20.941  0.00  0.00    +0.007 C 
ATOM      9  C   UNL     1      33.249  -9.402 -23.212  0.00  0.00    -0.019 C 
ATOM     10  C   UNL     1      30.915  -8.484 -23.007  0.00  0.00    -0.019 C 
ATOM     11  C   UNL     1      34.104  -7.535 -21.773  0.00  0.00    +0.027 C 
ATOM     12  C   UNL     1      31.778  -6.617 -21.571  0.00  0.00    +0.027 C 
ATOM     13  C   UNL     1      32.776  -7.017 -23.835  0.00  0.00    +0.000 C 
BRANCH   5  14
ATOM     14  O   UNL     1      33.100  -7.162 -19.614  0.00  0.00    -0.387 OA
ATOM     15  H   UNL     1      33.691  -6.391 -19.635  0.00  0.00    +0.210 HD
ENDBRANCH   5  14
ENDBRANCH   1   4
BRANCH   1  16
ATOM     16  C   UNL     1      32.329 -11.743 -22.997  0.00  0.00    +0.006 C 
BRANCH  16  19
ATOM     17  O   UNL     1      31.852 -13.065 -21.075  0.00  0.00    -0.277 OA
ATOM     18  N   UNL     1      33.177 -14.022 -22.714  0.00  0.00    -0.270 N 
ATOM     19  C   UNL     1      32.421 -12.998 -22.166  0.00  0.00    +0.205 C 
ATOM     20  C   UNL     1      33.284 -15.342 -22.090  0.00  0.00    +0.167 C 
ATOM     21  C   UNL     1      33.868 -13.987 -24.000  0.00  0.00    +0.094 C 
ATOM     22  C   UNL     1      33.813 -16.237 -23.212  0.00  0.00    +0.037 C 
ATOM     23  C   UNL     1      34.661 -15.285 -24.052  0.00  0.00    +0.024 C 
BRANCH  20  25
ATOM     24  N   UNL     1      34.935 -15.278 -20.042  0.00  0.00    -0.194 NA
ATOM     25  C   UNL     1      34.207 -15.307 -20.944  0.00  0.00    +0.093 C 
ENDBRANCH  20  25
ENDBRANCH  16  19
ENDBRANCH   1  16
TORSDOF 5
ENDMDL
MODEL 7
REMARK VINA RESULT:      -8.2      2.083      7.130
REMARK  Name = 6918537
REMARK  5 active torsions:
REMARK  status: ('A' for Active; 'I' for Inactive)
REMARK    1  A    between atoms: N_1  and  C_4
REMARK    2  A    between atoms: N_1  and  C_16
REMARK    3  A    between atoms: C_5  and  O_14
REMARK    4  A    between atoms: C_16  and  C_19
REMARK    5  A    between atoms: C_20  and  C_25
REMARK                            x       y       z     vdW  Elec       q    Type
REMARK                         _______ _______ _______ _____ _____    ______ ____
ROOT
ATOM      1  N   UNL     1      32.954 -23.398 -13.494  0.00  0.00    +0.392 N 
ATOM      2  H   UNL     1      32.728 -23.659 -12.535  0.00  0.00    -0.084 HD
ATOM      3  H   UNL     1      33.257 -22.425 -13.535  0.00  0.00    -0.084 HD
ENDROOT
BRANCH   1   4
ATOM      4  C   UNL     1      31.764 -23.555 -14.329  0.00  0.00    -0.043 C 
ATOM      5  C   UNL     1      29.797 -25.047 -14.854  0.00  0.00    +0.086 C 
ATOM      6  C   UNL     1      29.542 -22.544 -14.991  0.00  0.00    +0.000 C 
ATOM      7  C   UNL     1      30.928 -23.770 -16.707  0.00  0.00    +0.000 C 
ATOM      8  C   UNL     1      31.045 -24.871 -13.969  0.00  0.00    +0.007 C 
ATOM      9  C   UNL     1      30.792 -22.373 -14.108  0.00  0.00    -0.019 C 
ATOM     10  C   UNL     1      32.174 -23.597 -15.818  0.00  0.00    -0.019 C 
ATOM     11  C   UNL     1      28.842 -23.863 -14.625  0.00  0.00    +0.027 C 
ATOM     12  C   UNL     1      30.218 -25.081 -16.333  0.00  0.00    +0.027 C 
ATOM     13  C   UNL     1      29.968 -22.591 -16.469  0.00  0.00    +0.000 C 
BRANCH   5  14
ATOM     14  O   UNL     1      29.127 -26.253 -14.513  0.00  0.00    -0.387 OA
ATOM     15  H   UNL     1      29.763 -26.880 -14.133  0.00  0.00    +0.210 HD
ENDBRANCH   5  14
ENDBRANCH   1   4
BRANCH   1  16
ATOM     16  C   UNL     1      34.036 -24.244 -13.975  0.00  0.00    +0.006 C 
BRANCH  16  19
ATOM     17  O   UNL     1      34.841 -24.085 -11.740  0.00  0.00    -0.277 OA
ATOM     18  N   UNL     1      36.343 -24.784 -13.356  0.00  0.00    -0.270 N 
ATOM     19  C   UNL     1      35.100 -24.361 -12.912  0.00  0.00    +0.205 C 
ATOM     20  C   UNL     1      37.455 -25.052 -12.443  0.00  0.00    +0.167 C 
ATOM     21  C   UNL     1      36.695 -25.122 -14.733  0.00  0.00    +0.094 C 
ATOM     22  C   UNL     1      38.426 -25.884 -13.283  0.00  0.00    +0.037 C 
ATOM     23  C   UNL     1      38.195 -25.372 -14.702  0.00  0.00    +0.024 C 
BRANCH  20  25
ATOM     24  N   UNL     1      38.558 -22.806 -11.628  0.00  0.00    -0.194 NA
ATOM     25  C   UNL     1      38.072 -23.796 -11.987  0.00  0.00    +0.093 C 
ENDBRANCH  20  25
ENDBRANCH  16  19
ENDBRANCH   1  16
TORSDOF 5
ENDMDL
MODEL 8
REMARK VINA RESULT:      -8.1      2.086      6.655
REMARK  Name = 6918537
REMARK  5 active torsions:
REMARK  status: ('A' for Active; 'I' for Inactive)
REMARK    1  A    between atoms: N_1  and  C_4
REMARK    2  A    between atoms: N_1  and  C_16
REMARK    3  A    between atoms: C_5  and  O_14
REMARK    4  A    between atoms: C_16  and  C_19
REMARK    5  A    between atoms: C_20  and  C_25
REMARK                            x       y       z     vdW  Elec       q    Type
REMARK                         _______ _______ _______ _____ _____    ______ ____
ROOT
ATOM      1  N   UNL     1      33.743 -23.562 -16.005  0.00  0.00    +0.392 N 
ATOM      2  H   UNL     1      33.745 -23.035 -16.878  0.00  0.00    -0.084 HD
ATOM      3  H   UNL     1      34.112 -24.500 -16.155  0.00  0.00    -0.084 HD
ENDROOT
BRANCH   1   4
ATOM      4  C   UNL     1      32.371 -23.671 -15.512  0.00  0.00    -0.043 C 
ATOM      5  C   UNL     1      29.937 -23.359 -16.105  0.00  0.00    +0.086 C 
ATOM      6  C   UNL     1      30.620 -25.232 -14.565  0.00  0.00    +0.000 C 
ATOM      7  C   UNL     1      30.733 -22.839 -13.773  0.00  0.00    +0.000 C 
ATOM      8  C   UNL     1      31.384 -23.257 -16.623  0.00  0.00    +0.007 C 
ATOM      9  C   UNL     1      32.066 -25.125 -15.084  0.00  0.00    -0.019 C 
ATOM     10  C   UNL     1      32.178 -22.737 -14.296  0.00  0.00    -0.019 C 
ATOM     11  C   UNL     1      29.651 -24.809 -15.680  0.00  0.00    +0.027 C 
ATOM     12  C   UNL     1      29.761 -22.431 -14.892  0.00  0.00    +0.027 C 
ATOM     13  C   UNL     1      30.444 -24.292 -13.359  0.00  0.00    +0.000 C 
BRANCH   5  14
ATOM     14  O   UNL     1      29.027 -22.990 -17.133  0.00  0.00    -0.387 OA
ATOM     15  H   UNL     1      28.317 -23.650 -17.188  0.00  0.00    +0.210 HD
ENDBRANCH   5  14
ENDBRANCH   1   4
BRANCH   1  16
ATOM     16  C   UNL     1      34.586 -22.878 -15.036  0.00  0.00    +0.006 C 
BRANCH  16  19
ATOM     17  O   UNL     1      36.611 -23.528 -16.105  0.00  0.00    -0.277 OA
ATOM     18  N   UNL     1      36.432 -23.951 -13.837  0.00  0.00    -0.270 N 
ATOM     19  C   UNL     1      35.970 -23.477 -15.055  0.00  0.00    +0.205 C 
ATOM     20  C   UNL     1      37.791 -24.465 -13.657  0.00  0.00    +0.167 C 
ATOM     21  C   UNL     1      35.709 -23.912 -12.568  0.00  0.00    +0.094 C 
ATOM     22  C   UNL     1      37.991 -24.448 -12.140  0.00  0.00    +0.037 C 
ATOM     23  C   UNL     1      36.586 -24.685 -11.595  0.00  0.00    +0.024 C 
BRANCH  20  25
ATOM     24  N   UNL     1      38.006 -26.899 -14.635  0.00  0.00    -0.194 NA
ATOM     25  C   UNL     1      37.911 -25.826 -14.204  0.00  0.00    +0.093 C 
ENDBRANCH  20  25
ENDBRANCH  16  19
ENDBRANCH   1  16
TORSDOF 5
ENDMDL
MODEL 9
REMARK VINA RESULT:      -8.1      2.031      7.171
REMARK  Name = 6918537
REMARK  5 active torsions:
REMARK  status: ('A' for Active; 'I' for Inactive)
REMARK    1  A    between atoms: N_1  and  C_4
REMARK    2  A    between atoms: N_1  and  C_16
REMARK    3  A    between atoms: C_5  and  O_14
REMARK    4  A    between atoms: C_16  and  C_19
REMARK    5  A    between atoms: C_20  and  C_25
REMARK                            x       y       z     vdW  Elec       q    Type
REMARK                         _______ _______ _______ _____ _____    ______ ____
ROOT
ATOM      1  N   UNL     1      32.802 -23.335 -13.417  0.00  0.00    +0.392 N 
ATOM      2  H   UNL     1      32.670 -23.819 -12.530  0.00  0.00    -0.084 HD
ATOM      3  H   UNL     1      32.870 -22.329 -13.266  0.00  0.00    -0.084 HD
ENDROOT
BRANCH   1   4
ATOM      4  C   UNL     1      31.657 -23.603 -14.286  0.00  0.00    -0.043 C 
ATOM      5  C   UNL     1      29.405 -22.755 -15.048  0.00  0.00    +0.086 C 
ATOM      6  C   UNL     1      30.899 -23.972 -16.671  0.00  0.00    +0.000 C 
ATOM      7  C   UNL     1      29.787 -25.230 -14.789  0.00  0.00    +0.000 C 
ATOM      8  C   UNL     1      30.619 -22.471 -14.144  0.00  0.00    +0.007 C 
ATOM      9  C   UNL     1      32.110 -23.688 -15.762  0.00  0.00    -0.019 C 
ATOM     10  C   UNL     1      31.000 -24.942 -13.884  0.00  0.00    -0.019 C 
ATOM     11  C   UNL     1      29.872 -22.840 -16.511  0.00  0.00    +0.027 C 
ATOM     12  C   UNL     1      28.765 -24.092 -14.642  0.00  0.00    +0.027 C 
ATOM     13  C   UNL     1      30.253 -25.304 -16.253  0.00  0.00    +0.000 C 
BRANCH   5  14
ATOM     14  O   UNL     1      28.455 -21.705 -14.927  0.00  0.00    -0.387 OA
ATOM     15  H   UNL     1      27.608 -21.991 -15.306  0.00  0.00    +0.210 HD
ENDBRANCH   5  14
ENDBRANCH   1   4
BRANCH   1  16
ATOM     16  C   UNL     1      34.036 -23.799 -14.033  0.00  0.00    +0.006 C 
BRANCH  16  19
ATOM     17  O   UNL     1      34.837 -23.781 -11.791  0.00  0.00    -0.277 OA
ATOM     18  N   UNL     1      36.234 -24.677 -13.404  0.00  0.00    -0.270 N 
ATOM     19  C   UNL     1      35.062 -24.081 -12.964  0.00  0.00    +0.205 C 
ATOM     20  C   UNL     1      37.288 -25.113 -12.486  0.00  0.00    +0.167 C 
ATOM     21  C   UNL     1      36.544 -25.050 -14.782  0.00  0.00    +0.094 C 
ATOM     22  C   UNL     1      38.134 -26.070 -13.328  0.00  0.00    +0.037 C 
ATOM     23  C   UNL     1      37.991 -25.517 -14.743  0.00  0.00    +0.024 C 
BRANCH  20  25
ATOM     24  N   UNL     1      38.700 -23.060 -11.641  0.00  0.00    -0.194 NA
ATOM     25  C   UNL     1      38.078 -23.965 -12.014  0.00  0.00    +0.093 C 
ENDBRANCH  20  25
ENDBRANCH  16  19
ENDBRANCH   1  16
TORSDOF 5
ENDMDL
