MODEL 1
REMARK VINA RESULT:      -5.8      0.000      0.000
REMARK  Name = 5289428
REMARK  4 active torsions:
REMARK  status: ('A' for Active; 'I' for Inactive)
REMARK    1  A    between atoms: N_2  and  N_5
REMARK    2  A    between atoms: C_3  and  O_9
REMARK    3  A    between atoms: N_5  and  C_8
REMARK    4  A    between atoms: O_9  and  C_10
REMARK                            x       y       z     vdW  Elec       q    Type
REMARK                         _______ _______ _______ _____ _____    ______ ____
ROOT
ATOM      1  O   UNL     1      33.119 -16.738 -21.064  0.00  0.00    -0.225 OA
ATOM      2  N   UNL     1      34.864 -16.577 -22.577  0.00  0.00    -0.190 N 
ATOM      3  C   UNL     1      34.240 -17.058 -21.448  0.00  0.00    +0.418 C 
ATOM      4  H   UNL     1      35.768 -16.887 -22.816  0.00  0.00    +0.177 HD
ENDROOT
BRANCH   2   5
ATOM      5  N   UNL     1      34.172 -15.604 -23.416  0.00  0.00    -0.172 N 
ATOM      6  C   UNL     1      34.310 -14.205 -22.955  0.00  0.00    +0.148 C 
BRANCH   5   8
ATOM      7  N   UNL     1      34.073 -16.265 -25.832  0.00  0.00    -0.173 NA
ATOM      8  C   UNL     1      34.120 -15.961 -24.713  0.00  0.00    +0.188 C 
ENDBRANCH   5   8
ENDBRANCH   2   5
BRANCH   3   9
ATOM      9  O   UNL     1      35.056 -17.949 -20.812  0.00  0.00    -0.441 OA
BRANCH   9  10
ATOM     10  C   UNL     1      34.880 -19.324 -21.174  0.00  0.00    +0.138 C 
ATOM     11  C   UNL     1      34.918 -19.434 -22.697  0.00  0.00    +0.044 C 
ATOM     12  C   UNL     1      36.027 -20.115 -20.548  0.00  0.00    +0.044 C 
ATOM     13  C   UNL     1      33.536 -19.803 -20.626  0.00  0.00    +0.044 C 
ENDBRANCH   9  10
ENDBRANCH   3   9
TORSDOF 4
ENDMDL
MODEL 2
REMARK VINA RESULT:      -5.8      0.020      1.256
REMARK  Name = 5289428
REMARK  4 active torsions:
REMARK  status: ('A' for Active; 'I' for Inactive)
REMARK    1  A    between atoms: N_2  and  N_5
REMARK    2  A    between atoms: C_3  and  O_9
REMARK    3  A    between atoms: N_5  and  C_8
REMARK    4  A    between atoms: O_9  and  C_10
REMARK                            x       y       z     vdW  Elec       q    Type
REMARK                         _______ _______ _______ _____ _____    ______ ____
ROOT
ATOM      1  O   UNL     1      33.117 -16.761 -21.076  0.00  0.00    -0.225 OA
ATOM      2  N   UNL     1      34.876 -16.583 -22.571  0.00  0.00    -0.190 N 
ATOM      3  C   UNL     1      34.245 -17.071 -21.450  0.00  0.00    +0.418 C 
ATOM      4  H   UNL     1      35.785 -16.885 -22.801  0.00  0.00    +0.177 HD
ENDROOT
BRANCH   2   5
ATOM      5  N   UNL     1      34.184 -15.615 -23.416  0.00  0.00    -0.172 N 
ATOM      6  C   UNL     1      34.318 -14.213 -22.961  0.00  0.00    +0.148 C 
BRANCH   5   8
ATOM      7  N   UNL     1      34.099 -16.290 -25.829  0.00  0.00    -0.173 NA
ATOM      8  C   UNL     1      34.136 -15.978 -24.712  0.00  0.00    +0.188 C 
ENDBRANCH   5   8
ENDBRANCH   2   5
BRANCH   3   9
ATOM      9  O   UNL     1      35.062 -17.955 -20.806  0.00  0.00    -0.441 OA
BRANCH   9  10
ATOM     10  C   UNL     1      34.900 -19.331 -21.169  0.00  0.00    +0.138 C 
ATOM     11  C   UNL     1      36.041 -20.136 -20.549  0.00  0.00    +0.044 C 
ATOM     12  C   UNL     1      33.553 -19.796 -20.619  0.00  0.00    +0.044 C 
ATOM     13  C   UNL     1      34.923 -19.438 -22.693  0.00  0.00    +0.044 C 
ENDBRANCH   9  10
ENDBRANCH   3   9
TORSDOF 4
ENDMDL
MODEL 3
REMARK VINA RESULT:      -5.7      1.483      1.609
REMARK  Name = 5289428
REMARK  4 active torsions:
REMARK  status: ('A' for Active; 'I' for Inactive)
REMARK    1  A    between atoms: N_2  and  N_5
REMARK    2  A    between atoms: C_3  and  O_9
REMARK    3  A    between atoms: N_5  and  C_8
REMARK    4  A    between atoms: O_9  and  C_10
REMARK                            x       y       z     vdW  Elec       q    Type
REMARK                         _______ _______ _______ _____ _____    ______ ____
ROOT
ATOM      1  O   UNL     1      35.640 -16.018 -23.298  0.00  0.00    -0.225 OA
ATOM      2  N   UNL     1      33.393 -15.580 -22.945  0.00  0.00    -0.190 N 
ATOM      3  C   UNL     1      34.596 -16.194 -22.677  0.00  0.00    +0.418 C 
ATOM      4  H   UNL     1      32.601 -15.778 -22.397  0.00  0.00    +0.177 HD
ENDROOT
BRANCH   2   5
ATOM      5  N   UNL     1      33.307 -14.633 -24.052  0.00  0.00    -0.172 N 
ATOM      6  C   UNL     1      33.817 -13.281 -23.730  0.00  0.00    +0.148 C 
BRANCH   5   8
ATOM      7  N   UNL     1      33.554 -15.708 -26.303  0.00  0.00    -0.173 NA
ATOM      8  C   UNL     1      33.439 -15.212 -25.260  0.00  0.00    +0.188 C 
ENDBRANCH   5   8
ENDBRANCH   2   5
BRANCH   3   9
ATOM      9  O   UNL     1      34.458 -17.037 -21.611  0.00  0.00    -0.441 OA
BRANCH   9  10
ATOM     10  C   UNL     1      34.777 -18.411 -21.857  0.00  0.00    +0.138 C 
ATOM     11  C   UNL     1      34.683 -18.670 -23.360  0.00  0.00    +0.044 C 
ATOM     12  C   UNL     1      36.201 -18.648 -21.358  0.00  0.00    +0.044 C 
ATOM     13  C   UNL     1      33.786 -19.286 -21.090  0.00  0.00    +0.044 C 
ENDBRANCH   9  10
ENDBRANCH   3   9
TORSDOF 4
ENDMDL
MODEL 4
REMARK VINA RESULT:      -5.5      2.594      4.912
REMARK  Name = 5289428
REMARK  4 active torsions:
REMARK  status: ('A' for Active; 'I' for Inactive)
REMARK    1  A    between atoms: N_2  and  N_5
REMARK    2  A    between atoms: C_3  and  O_9
REMARK    3  A    between atoms: N_5  and  C_8
REMARK    4  A    between atoms: O_9  and  C_10
REMARK                            x       y       z     vdW  Elec       q    Type
REMARK                         _______ _______ _______ _____ _____    ______ ____
ROOT
ATOM      1  O   UNL     1      34.628 -18.673 -22.908  0.00  0.00    -0.225 OA
ATOM      2  N   UNL     1      35.275 -18.742 -20.686  0.00  0.00    -0.190 N 
ATOM      3  C   UNL     1      35.040 -18.121 -21.892  0.00  0.00    +0.418 C 
ATOM      4  H   UNL     1      35.606 -18.224 -19.917  0.00  0.00    +0.177 HD
ENDROOT
BRANCH   2   5
ATOM      5  N   UNL     1      35.028 -20.174 -20.560  0.00  0.00    -0.172 N 
ATOM      6  C   UNL     1      36.206 -20.952 -20.114  0.00  0.00    +0.148 C 
BRANCH   5   8
ATOM      7  N   UNL     1      32.671 -20.716 -19.903  0.00  0.00    -0.173 NA
ATOM      8  C   UNL     1      33.762 -20.467 -20.206  0.00  0.00    +0.188 C 
ENDBRANCH   5   8
ENDBRANCH   2   5
BRANCH   3   9
ATOM      9  O   UNL     1      35.334 -16.791 -21.795  0.00  0.00    -0.441 OA
BRANCH   9  10
ATOM     10  C   UNL     1      34.210 -15.909 -21.709  0.00  0.00    +0.138 C 
ATOM     11  C   UNL     1      33.035 -16.675 -21.102  0.00  0.00    +0.044 C 
ATOM     12  C   UNL     1      34.611 -14.739 -20.813  0.00  0.00    +0.044 C 
ATOM     13  C   UNL     1      33.870 -15.416 -23.116  0.00  0.00    +0.044 C 
ENDBRANCH   9  10
ENDBRANCH   3   9
TORSDOF 4
ENDMDL
MODEL 5
REMARK VINA RESULT:      -5.5      1.730      2.584
REMARK  Name = 5289428
REMARK  4 active torsions:
REMARK  status: ('A' for Active; 'I' for Inactive)
REMARK    1  A    between atoms: N_2  and  N_5
REMARK    2  A    between atoms: C_3  and  O_9
REMARK    3  A    between atoms: N_5  and  C_8
REMARK    4  A    between atoms: O_9  and  C_10
REMARK                            x       y       z     vdW  Elec       q    Type
REMARK                         _______ _______ _______ _____ _____    ______ ____
ROOT
ATOM      1  O   UNL     1      35.756 -16.288 -23.244  0.00  0.00    -0.225 OA
ATOM      2  N   UNL     1      33.537 -15.626 -23.264  0.00  0.00    -0.190 N 
ATOM      3  C   UNL     1      34.612 -16.352 -22.803  0.00  0.00    +0.418 C 
ATOM      4  H   UNL     1      32.649 -15.737 -22.854  0.00  0.00    +0.177 HD
ENDROOT
BRANCH   2   5
ATOM      5  N   UNL     1      33.728 -14.690 -24.368  0.00  0.00    -0.172 N 
ATOM      6  C   UNL     1      33.273 -15.204 -25.679  0.00  0.00    +0.148 C 
BRANCH   5   8
ATOM      7  N   UNL     1      33.542 -12.288 -23.677  0.00  0.00    -0.173 NA
ATOM      8  C   UNL     1      33.627 -13.400 -23.995  0.00  0.00    +0.188 C 
ENDBRANCH   5   8
ENDBRANCH   2   5
BRANCH   3   9
ATOM      9  O   UNL     1      34.218 -17.162 -21.777  0.00  0.00    -0.441 OA
BRANCH   9  10
ATOM     10  C   UNL     1      34.656 -18.523 -21.854  0.00  0.00    +0.138 C 
ATOM     11  C   UNL     1      36.056 -18.618 -21.250  0.00  0.00    +0.044 C 
ATOM     12  C   UNL     1      33.667 -19.371 -21.056  0.00  0.00    +0.044 C 
ATOM     13  C   UNL     1      34.666 -18.949 -23.322  0.00  0.00    +0.044 C 
ENDBRANCH   9  10
ENDBRANCH   3   9
TORSDOF 4
ENDMDL
MODEL 6
REMARK VINA RESULT:      -5.3     10.523     11.635
REMARK  Name = 5289428
REMARK  4 active torsions:
REMARK  status: ('A' for Active; 'I' for Inactive)
REMARK    1  A    between atoms: N_2  and  N_5
REMARK    2  A    between atoms: C_3  and  O_9
REMARK    3  A    between atoms: N_5  and  C_8
REMARK    4  A    between atoms: O_9  and  C_10
REMARK                            x       y       z     vdW  Elec       q    Type
REMARK                         _______ _______ _______ _____ _____    ______ ____
ROOT
ATOM      1  O   UNL     1      35.547 -23.091 -14.247  0.00  0.00    -0.225 OA
ATOM      2  N   UNL     1      35.380 -25.261 -13.459  0.00  0.00    -0.190 N 
ATOM      3  C   UNL     1      34.923 -23.981 -13.678  0.00  0.00    +0.418 C 
ATOM      4  H   UNL     1      34.813 -25.918 -12.993  0.00  0.00    +0.177 HD
ENDROOT
BRANCH   2   5
ATOM      5  N   UNL     1      36.711 -25.634 -13.925  0.00  0.00    -0.172 N 
ATOM      6  C   UNL     1      37.717 -25.749 -12.845  0.00  0.00    +0.148 C 
BRANCH   5   8
ATOM      7  N   UNL     1      36.673 -27.102 -15.956  0.00  0.00    -0.173 NA
ATOM      8  C   UNL     1      36.693 -26.423 -15.015  0.00  0.00    +0.188 C 
ENDBRANCH   5   8
ENDBRANCH   2   5
BRANCH   3   9
ATOM      9  O   UNL     1      33.665 -23.844 -13.165  0.00  0.00    -0.441 OA
BRANCH   9  10
ATOM     10  C   UNL     1      32.598 -23.851 -14.121  0.00  0.00    +0.138 C 
ATOM     11  C   UNL     1      33.202 -23.784 -15.524  0.00  0.00    +0.044 C 
ATOM     12  C   UNL     1      31.820 -25.152 -13.932  0.00  0.00    +0.044 C 
ATOM     13  C   UNL     1      31.700 -22.644 -13.857  0.00  0.00    +0.044 C 
ENDBRANCH   9  10
ENDBRANCH   3   9
TORSDOF 4
ENDMDL
MODEL 7
REMARK VINA RESULT:      -5.3     11.783     12.977
REMARK  Name = 5289428
REMARK  4 active torsions:
REMARK  status: ('A' for Active; 'I' for Inactive)
REMARK    1  A    between atoms: N_2  and  N_5
REMARK    2  A    between atoms: C_3  and  O_9
REMARK    3  A    between atoms: N_5  and  C_8
REMARK    4  A    between atoms: O_9  and  C_10
REMARK                            x       y       z     vdW  Elec       q    Type
REMARK                         _______ _______ _______ _____ _____    ______ ____
ROOT
ATOM      1  O   UNL     1      37.083 -26.311 -12.006  0.00  0.00    -0.225 OA
ATOM      2  N   UNL     1      36.950 -24.059 -12.525  0.00  0.00    -0.190 N 
ATOM      3  C   UNL     1      37.574 -25.285 -12.466  0.00  0.00    +0.418 C 
ATOM      4  H   UNL     1      37.416 -23.282 -12.911  0.00  0.00    +0.177 HD
ENDROOT
BRANCH   2   5
ATOM      5  N   UNL     1      35.592 -23.923 -12.009  0.00  0.00    -0.172 N 
ATOM      6  C   UNL     1      34.537 -24.172 -13.016  0.00  0.00    +0.148 C 
BRANCH   5   8
ATOM      7  N   UNL     1      35.385 -24.547  -9.590  0.00  0.00    -0.173 NA
ATOM      8  C   UNL     1      35.480 -24.260 -10.710  0.00  0.00    +0.188 C 
ENDBRANCH   5   8
ENDBRANCH   2   5
BRANCH   3   9
ATOM      9  O   UNL     1      38.829 -25.192 -12.997  0.00  0.00    -0.441 OA
BRANCH   9  10
ATOM     10  C   UNL     1      38.939 -25.499 -14.391  0.00  0.00    +0.138 C 
ATOM     11  C   UNL     1      38.639 -24.234 -15.193  0.00  0.00    +0.044 C 
ATOM     12  C   UNL     1      40.370 -25.971 -14.646  0.00  0.00    +0.044 C 
ATOM     13  C   UNL     1      37.941 -26.606 -14.726  0.00  0.00    +0.044 C 
ENDBRANCH   9  10
ENDBRANCH   3   9
TORSDOF 4
ENDMDL
MODEL 8
REMARK VINA RESULT:      -5.3     10.033     11.469
REMARK  Name = 5289428
REMARK  4 active torsions:
REMARK  status: ('A' for Active; 'I' for Inactive)
REMARK    1  A    between atoms: N_2  and  N_5
REMARK    2  A    between atoms: C_3  and  O_9
REMARK    3  A    between atoms: N_5  and  C_8
REMARK    4  A    between atoms: O_9  and  C_10
REMARK                            x       y       z     vdW  Elec       q    Type
REMARK                         _______ _______ _______ _____ _____    ______ ____
ROOT
ATOM      1  O   UNL     1      31.873 -25.466 -13.926  0.00  0.00    -0.225 OA
ATOM      2  N   UNL     1      33.029 -23.461 -13.831  0.00  0.00    -0.190 N 
ATOM      3  C   UNL     1      31.896 -24.239 -13.916  0.00  0.00    +0.418 C 
ATOM      4  H   UNL     1      32.959 -22.480 -13.829  0.00  0.00    +0.177 HD
ENDROOT
BRANCH   2   5
ATOM      5  N   UNL     1      34.334 -24.109 -13.743  0.00  0.00    -0.172 N 
ATOM      6  C   UNL     1      35.175 -23.936 -14.949  0.00  0.00    +0.148 C 
BRANCH   5   8
ATOM      7  N   UNL     1      35.250 -24.181 -11.411  0.00  0.00    -0.173 NA
ATOM      8  C   UNL     1      34.825 -24.149 -12.490  0.00  0.00    +0.188 C 
ENDBRANCH   5   8
ENDBRANCH   2   5
BRANCH   3   9
ATOM      9  O   UNL     1      30.791 -23.440 -13.991  0.00  0.00    -0.441 OA
BRANCH   9  10
ATOM     10  C   UNL     1      30.139 -23.396 -15.265  0.00  0.00    +0.138 C 
ATOM     11  C   UNL     1      29.490 -24.754 -15.526  0.00  0.00    +0.044 C 
ATOM     12  C   UNL     1      29.079 -22.297 -15.202  0.00  0.00    +0.044 C 
ATOM     13  C   UNL     1      31.182 -23.076 -16.335  0.00  0.00    +0.044 C 
ENDBRANCH   9  10
ENDBRANCH   3   9
TORSDOF 4
ENDMDL
MODEL 9
REMARK VINA RESULT:      -5.3      2.330      2.843
REMARK  Name = 5289428
REMARK  4 active torsions:
REMARK  status: ('A' for Active; 'I' for Inactive)
REMARK    1  A    between atoms: N_2  and  N_5
REMARK    2  A    between atoms: C_3  and  O_9
REMARK    3  A    between atoms: N_5  and  C_8
REMARK    4  A    between atoms: O_9  and  C_10
REMARK                            x       y       z     vdW  Elec       q    Type
REMARK                         _______ _______ _______ _____ _____    ______ ____
ROOT
ATOM      1  O   UNL     1      33.812 -15.992 -24.593  0.00  0.00    -0.225 OA
ATOM      2  N   UNL     1      34.404 -14.521 -22.906  0.00  0.00    -0.190 N 
ATOM      3  C   UNL     1      34.532 -15.670 -23.653  0.00  0.00    +0.418 C 
ATOM      4  H   UNL     1      35.026 -14.337 -22.166  0.00  0.00    +0.177 HD
ENDROOT
BRANCH   2   5
ATOM      5  N   UNL     1      33.335 -13.579 -23.223  0.00  0.00    -0.172 N 
ATOM      6  C   UNL     1      32.326 -13.430 -22.150  0.00  0.00    +0.148 C 
BRANCH   5   8
ATOM      7  N   UNL     1      34.082 -11.699 -24.703  0.00  0.00    -0.173 NA
ATOM      8  C   UNL     1      33.734 -12.569 -24.018  0.00  0.00    +0.188 C 
ENDBRANCH   5   8
ENDBRANCH   2   5
BRANCH   3   9
ATOM      9  O   UNL     1      35.586 -16.407 -23.193  0.00  0.00    -0.441 OA
BRANCH   9  10
ATOM     10  C   UNL     1      35.258 -17.690 -22.648  0.00  0.00    +0.138 C 
ATOM     11  C   UNL     1      34.721 -18.573 -23.773  0.00  0.00    +0.044 C 
ATOM     12  C   UNL     1      36.539 -18.282 -22.063  0.00  0.00    +0.044 C 
ATOM     13  C   UNL     1      34.207 -17.500 -21.555  0.00  0.00    +0.044 C 
ENDBRANCH   9  10
ENDBRANCH   3   9
TORSDOF 4
ENDMDL
