MODEL 1
REMARK VINA RESULT:      -8.6      0.000      0.000
REMARK  Name = 12881464
REMARK  15 active torsions:
REMARK  status: ('A' for Active; 'I' for Inactive)
REMARK    1  A    between atoms: C_1  and  C_4
REMARK    2  A    between atoms: C_1  and  C_15
REMARK    3  A    between atoms: C_8  and  O_11
REMARK    4  A    between atoms: C_10  and  O_13
REMARK    5  A    between atoms: C_15  and  C_16
REMARK    6  A    between atoms: C_16  and  C_17
REMARK    7  A    between atoms: C_17  and  C_18
REMARK    8  A    between atoms: C_18  and  C_19
REMARK    9  A    between atoms: C_19  and  C_20
REMARK   10  A    between atoms: C_20  and  C_21
REMARK   11  A    between atoms: C_21  and  C_22
REMARK   12  A    between atoms: C_22  and  C_23
REMARK   13  A    between atoms: C_23  and  C_24
REMARK   14  A    between atoms: C_24  and  C_25
REMARK   15  A    between atoms: C_25  and  O_26
REMARK                            x       y       z     vdW  Elec       q    Type
REMARK                         _______ _______ _______ _____ _____    ______ ____
ROOT
ATOM      1  C   UNL     1      35.727 -18.270 -22.165  0.00  0.00    +0.029 C 
ENDROOT
BRANCH   1   4
ATOM      2  O   UNL     1      35.001 -15.992 -20.767  0.00  0.00    -0.284 OA
ATOM      3  O   UNL     1      33.483 -15.983 -25.865  0.00  0.00    -0.284 OA
ATOM      4  C   UNL     1      34.962 -17.176 -22.831  0.00  0.00    +0.019 C 
ATOM      5  C   UNL     1      34.561 -17.181 -24.116  0.00  0.00    +0.019 C 
ATOM      6  C   UNL     1      34.665 -16.007 -21.949  0.00  0.00    +0.228 C 
ATOM      7  C   UNL     1      33.838 -16.006 -24.690  0.00  0.00    +0.228 C 
ATOM      8  C   UNL     1      33.942 -14.853 -22.528  0.00  0.00    +0.214 C 
ATOM      9  C   UNL     1      34.763 -18.316 -25.083  0.00  0.00    +0.034 C 
ATOM     10  C   UNL     1      33.557 -14.852 -23.806  0.00  0.00    +0.214 C 
BRANCH   8  11
ATOM     11  O   UNL     1      33.677 -13.776 -21.707  0.00  0.00    -0.465 OA
ATOM     12  C   UNL     1      32.410 -13.913 -21.095  0.00  0.00    +0.253 C 
ENDBRANCH   8  11
BRANCH  10  13
ATOM     13  O   UNL     1      32.884 -13.791 -24.376  0.00  0.00    -0.465 OA
ATOM     14  C   UNL     1      33.790 -12.783 -24.782  0.00  0.00    +0.253 C 
ENDBRANCH  10  13
ENDBRANCH   1   4
BRANCH   1  15
ATOM     15  C   UNL     1      34.891 -19.526 -21.901  0.00  0.00    +0.005 C 
BRANCH  15  16
ATOM     16  C   UNL     1      33.689 -19.265 -20.989  0.00  0.00    +0.000 C 
BRANCH  16  17
ATOM     17  C   UNL     1      33.207 -20.556 -20.325  0.00  0.00    +0.000 C 
BRANCH  17  18
ATOM     18  C   UNL     1      34.353 -21.277 -19.610  0.00  0.00    +0.000 C 
BRANCH  18  19
ATOM     19  C   UNL     1      33.966 -22.712 -19.250  0.00  0.00    +0.000 C 
BRANCH  19  20
ATOM     20  C   UNL     1      33.777 -22.936 -17.745  0.00  0.00    +0.000 C 
BRANCH  20  21
ATOM     21  C   UNL     1      32.313 -22.877 -17.301  0.00  0.00    +0.000 C 
BRANCH  21  22
ATOM     22  C   UNL     1      32.113 -23.207 -15.818  0.00  0.00    +0.000 C 
BRANCH  22  23
ATOM     23  C   UNL     1      30.800 -23.908 -15.456  0.00  0.00    +0.003 C 
BRANCH  23  24
ATOM     24  C   UNL     1      29.712 -22.952 -14.971  0.00  0.00    +0.032 C 
BRANCH  24  25
ATOM     25  C   UNL     1      28.539 -22.903 -15.941  0.00  0.00    +0.137 C 
BRANCH  25  26
ATOM     26  O   UNL     1      28.868 -22.033 -17.016  0.00  0.00    -0.382 OA
ATOM     27  H   UNL     1      29.040 -21.143 -16.672  0.00  0.00    +0.210 HD
ENDBRANCH  25  26
ENDBRANCH  24  25
ENDBRANCH  23  24
ENDBRANCH  22  23
ENDBRANCH  21  22
ENDBRANCH  20  21
ENDBRANCH  19  20
ENDBRANCH  18  19
ENDBRANCH  17  18
ENDBRANCH  16  17
ENDBRANCH  15  16
ENDBRANCH   1  15
TORSDOF 15
ENDMDL
MODEL 2
REMARK VINA RESULT:      -8.5      3.048      5.981
REMARK  Name = 12881464
REMARK  15 active torsions:
REMARK  status: ('A' for Active; 'I' for Inactive)
REMARK    1  A    between atoms: C_1  and  C_4
REMARK    2  A    between atoms: C_1  and  C_15
REMARK    3  A    between atoms: C_8  and  O_11
REMARK    4  A    between atoms: C_10  and  O_13
REMARK    5  A    between atoms: C_15  and  C_16
REMARK    6  A    between atoms: C_16  and  C_17
REMARK    7  A    between atoms: C_17  and  C_18
REMARK    8  A    between atoms: C_18  and  C_19
REMARK    9  A    between atoms: C_19  and  C_20
REMARK   10  A    between atoms: C_20  and  C_21
REMARK   11  A    between atoms: C_21  and  C_22
REMARK   12  A    between atoms: C_22  and  C_23
REMARK   13  A    between atoms: C_23  and  C_24
REMARK   14  A    between atoms: C_24  and  C_25
REMARK   15  A    between atoms: C_25  and  O_26
REMARK                            x       y       z     vdW  Elec       q    Type
REMARK                         _______ _______ _______ _____ _____    ______ ____
ROOT
ATOM      1  C   UNL     1      33.822 -13.616 -24.077  0.00  0.00    +0.029 C 
ENDROOT
BRANCH   1   4
ATOM      2  O   UNL     1      31.922 -13.501 -22.065  0.00  0.00    -0.284 OA
ATOM      3  O   UNL     1      33.443  -8.739 -23.886  0.00  0.00    -0.284 OA
ATOM      4  C   UNL     1      33.295 -12.305 -23.598  0.00  0.00    +0.019 C 
ATOM      5  C   UNL     1      33.665 -11.100 -24.070  0.00  0.00    +0.019 C 
ATOM      6  C   UNL     1      32.292 -12.411 -22.495  0.00  0.00    +0.228 C 
ATOM      7  C   UNL     1      33.102  -9.848 -23.482  0.00  0.00    +0.228 C 
ATOM      8  C   UNL     1      31.736 -11.163 -21.926  0.00  0.00    +0.214 C 
ATOM      9  C   UNL     1      34.629 -10.873 -25.204  0.00  0.00    +0.034 C 
ATOM     10  C   UNL     1      32.115  -9.968 -22.386  0.00  0.00    +0.214 C 
BRANCH   8  11
ATOM     11  O   UNL     1      30.815 -11.270 -20.905  0.00  0.00    -0.465 OA
ATOM     12  C   UNL     1      31.464 -11.368 -19.653  0.00  0.00    +0.253 C 
ENDBRANCH   8  11
BRANCH  10  13
ATOM     13  O   UNL     1      31.617  -8.786 -21.874  0.00  0.00    -0.465 OA
ATOM     14  C   UNL     1      32.515  -8.230 -20.933  0.00  0.00    +0.253 C 
ENDBRANCH  10  13
ENDBRANCH   1   4
BRANCH   1  15
ATOM     15  C   UNL     1      33.085 -14.158 -25.305  0.00  0.00    +0.005 C 
BRANCH  15  16
ATOM     16  C   UNL     1      33.500 -15.587 -25.670  0.00  0.00    +0.000 C 
BRANCH  16  17
ATOM     17  C   UNL     1      34.182 -16.284 -24.492  0.00  0.00    +0.000 C 
BRANCH  17  18
ATOM     18  C   UNL     1      34.612 -17.707 -24.859  0.00  0.00    +0.000 C 
BRANCH  18  19
ATOM     19  C   UNL     1      35.342 -18.382 -23.696  0.00  0.00    +0.000 C 
BRANCH  19  20
ATOM     20  C   UNL     1      35.391 -17.527 -22.424  0.00  0.00    +0.000 C 
BRANCH  20  21
ATOM     21  C   UNL     1      34.536 -18.085 -21.284  0.00  0.00    +0.000 C 
BRANCH  21  22
ATOM     22  C   UNL     1      34.349 -19.605 -21.351  0.00  0.00    +0.000 C 
BRANCH  22  23
ATOM     23  C   UNL     1      33.008 -20.141 -20.839  0.00  0.00    +0.003 C 
BRANCH  23  24
ATOM     24  C   UNL     1      33.131 -20.980 -19.570  0.00  0.00    +0.032 C 
BRANCH  24  25
ATOM     25  C   UNL     1      34.319 -21.931 -19.643  0.00  0.00    +0.137 C 
BRANCH  25  26
ATOM     26  O   UNL     1      33.909 -23.214 -19.187  0.00  0.00    -0.382 OA
ATOM     27  H   UNL     1      33.203 -23.551 -19.761  0.00  0.00    +0.210 HD
ENDBRANCH  25  26
ENDBRANCH  24  25
ENDBRANCH  23  24
ENDBRANCH  22  23
ENDBRANCH  21  22
ENDBRANCH  20  21
ENDBRANCH  19  20
ENDBRANCH  18  19
ENDBRANCH  17  18
ENDBRANCH  16  17
ENDBRANCH  15  16
ENDBRANCH   1  15
TORSDOF 15
ENDMDL
MODEL 3
REMARK VINA RESULT:      -8.4      2.885      9.698
REMARK  Name = 12881464
REMARK  15 active torsions:
REMARK  status: ('A' for Active; 'I' for Inactive)
REMARK    1  A    between atoms: C_1  and  C_4
REMARK    2  A    between atoms: C_1  and  C_15
REMARK    3  A    between atoms: C_8  and  O_11
REMARK    4  A    between atoms: C_10  and  O_13
REMARK    5  A    between atoms: C_15  and  C_16
REMARK    6  A    between atoms: C_16  and  C_17
REMARK    7  A    between atoms: C_17  and  C_18
REMARK    8  A    between atoms: C_18  and  C_19
REMARK    9  A    between atoms: C_19  and  C_20
REMARK   10  A    between atoms: C_20  and  C_21
REMARK   11  A    between atoms: C_21  and  C_22
REMARK   12  A    between atoms: C_22  and  C_23
REMARK   13  A    between atoms: C_23  and  C_24
REMARK   14  A    between atoms: C_24  and  C_25
REMARK   15  A    between atoms: C_25  and  O_26
REMARK                            x       y       z     vdW  Elec       q    Type
REMARK                         _______ _______ _______ _____ _____    ______ ____
ROOT
ATOM      1  C   UNL     1      33.939 -21.869 -19.858  0.00  0.00    +0.029 C 
ENDROOT
BRANCH   1   4
ATOM      2  O   UNL     1      32.383 -23.151 -17.959  0.00  0.00    -0.284 OA
ATOM      3  O   UNL     1      37.378 -22.205 -16.392  0.00  0.00    -0.284 OA
ATOM      4  C   UNL     1      34.502 -22.223 -18.523  0.00  0.00    +0.019 C 
ATOM      5  C   UNL     1      35.760 -21.968 -18.118  0.00  0.00    +0.019 C 
ATOM      6  C   UNL     1      33.543 -22.929 -17.619  0.00  0.00    +0.228 C 
ATOM      7  C   UNL     1      36.228 -22.411 -16.770  0.00  0.00    +0.228 C 
ATOM      8  C   UNL     1      34.018 -23.355 -16.284  0.00  0.00    +0.214 C 
ATOM      9  C   UNL     1      36.795 -21.228 -18.921  0.00  0.00    +0.034 C 
ATOM     10  C   UNL     1      35.270 -23.114 -15.889  0.00  0.00    +0.214 C 
BRANCH   8  11
ATOM     11  O   UNL     1      33.128 -24.011 -15.458  0.00  0.00    -0.465 OA
ATOM     12  C   UNL     1      32.404 -23.087 -14.669  0.00  0.00    +0.253 C 
ENDBRANCH   8  11
BRANCH  10  13
ATOM     13  O   UNL     1      35.743 -23.502 -14.651  0.00  0.00    -0.465 OA
ATOM     14  C   UNL     1      36.240 -24.826 -14.697  0.00  0.00    +0.253 C 
ENDBRANCH  10  13
ENDBRANCH   1   4
BRANCH   1  15
ATOM     15  C   UNL     1      32.992 -20.667 -19.823  0.00  0.00    +0.005 C 
BRANCH  15  16
ATOM     16  C   UNL     1      33.172 -19.725 -21.017  0.00  0.00    +0.000 C 
BRANCH  16  17
ATOM     17  C   UNL     1      34.652 -19.542 -21.360  0.00  0.00    +0.000 C 
BRANCH  17  18
ATOM     18  C   UNL     1      34.840 -18.530 -22.493  0.00  0.00    +0.000 C 
BRANCH  18  19
ATOM     19  C   UNL     1      34.909 -19.229 -23.853  0.00  0.00    +0.000 C 
BRANCH  19  20
ATOM     20  C   UNL     1      34.350 -18.384 -25.004  0.00  0.00    +0.000 C 
BRANCH  20  21
ATOM     21  C   UNL     1      34.837 -16.934 -24.986  0.00  0.00    +0.000 C 
BRANCH  21  22
ATOM     22  C   UNL     1      33.732 -15.917 -25.292  0.00  0.00    +0.000 C 
BRANCH  22  23
ATOM     23  C   UNL     1      33.548 -14.794 -24.266  0.00  0.00    +0.003 C 
BRANCH  23  24
ATOM     24  C   UNL     1      34.483 -14.908 -23.063  0.00  0.00    +0.032 C 
BRANCH  24  25
ATOM     25  C   UNL     1      33.704 -14.969 -21.755  0.00  0.00    +0.137 C 
BRANCH  25  26
ATOM     26  O   UNL     1      32.316 -14.860 -22.041  0.00  0.00    -0.382 OA
ATOM     27  H   UNL     1      31.823 -14.754 -21.212  0.00  0.00    +0.210 HD
ENDBRANCH  25  26
ENDBRANCH  24  25
ENDBRANCH  23  24
ENDBRANCH  22  23
ENDBRANCH  21  22
ENDBRANCH  20  21
ENDBRANCH  19  20
ENDBRANCH  18  19
ENDBRANCH  17  18
ENDBRANCH  16  17
ENDBRANCH  15  16
ENDBRANCH   1  15
TORSDOF 15
ENDMDL
MODEL 4
REMARK VINA RESULT:      -8.4      3.280      3.886
REMARK  Name = 12881464
REMARK  15 active torsions:
REMARK  status: ('A' for Active; 'I' for Inactive)
REMARK    1  A    between atoms: C_1  and  C_4
REMARK    2  A    between atoms: C_1  and  C_15
REMARK    3  A    between atoms: C_8  and  O_11
REMARK    4  A    between atoms: C_10  and  O_13
REMARK    5  A    between atoms: C_15  and  C_16
REMARK    6  A    between atoms: C_16  and  C_17
REMARK    7  A    between atoms: C_17  and  C_18
REMARK    8  A    between atoms: C_18  and  C_19
REMARK    9  A    between atoms: C_19  and  C_20
REMARK   10  A    between atoms: C_20  and  C_21
REMARK   11  A    between atoms: C_21  and  C_22
REMARK   12  A    between atoms: C_22  and  C_23
REMARK   13  A    between atoms: C_23  and  C_24
REMARK   14  A    between atoms: C_24  and  C_25
REMARK   15  A    between atoms: C_25  and  O_26
REMARK                            x       y       z     vdW  Elec       q    Type
REMARK                         _______ _______ _______ _____ _____    ______ ____
ROOT
ATOM      1  C   UNL     1      35.006 -19.306 -21.365  0.00  0.00    +0.029 C 
ENDROOT
BRANCH   1   4
ATOM      2  O   UNL     1      34.744 -16.730 -20.378  0.00  0.00    -0.284 OA
ATOM      3  O   UNL     1      34.568 -17.048 -25.686  0.00  0.00    -0.284 OA
ATOM      4  C   UNL     1      34.817 -18.149 -22.288  0.00  0.00    +0.019 C 
ATOM      5  C   UNL     1      34.754 -18.230 -23.630  0.00  0.00    +0.019 C 
ATOM      6  C   UNL     1      34.712 -16.825 -21.603  0.00  0.00    +0.228 C 
ATOM      7  C   UNL     1      34.607 -16.996 -24.459  0.00  0.00    +0.228 C 
ATOM      8  C   UNL     1      34.560 -15.611 -22.435  0.00  0.00    +0.214 C 
ATOM      9  C   UNL     1      34.802 -19.508 -24.424  0.00  0.00    +0.034 C 
ATOM     10  C   UNL     1      34.512 -15.691 -23.767  0.00  0.00    +0.214 C 
BRANCH   8  11
ATOM     11  O   UNL     1      34.470 -14.392 -21.795  0.00  0.00    -0.465 OA
ATOM     12  C   UNL     1      33.169 -14.194 -21.278  0.00  0.00    +0.253 C 
ENDBRANCH   8  11
BRANCH  10  13
ATOM     13  O   UNL     1      34.373 -14.578 -24.571  0.00  0.00    -0.465 OA
ATOM     14  C   UNL     1      33.007 -14.302 -24.813  0.00  0.00    +0.253 C 
ENDBRANCH  10  13
ENDBRANCH   1   4
BRANCH   1  15
ATOM     15  C   UNL     1      33.691 -19.936 -20.899  0.00  0.00    +0.005 C 
BRANCH  15  16
ATOM     16  C   UNL     1      33.890 -21.031 -19.846  0.00  0.00    +0.000 C 
BRANCH  16  17
ATOM     17  C   UNL     1      35.376 -21.280 -19.581  0.00  0.00    +0.000 C 
BRANCH  17  18
ATOM     18  C   UNL     1      35.591 -22.009 -18.252  0.00  0.00    +0.000 C 
BRANCH  18  19
ATOM     19  C   UNL     1      36.922 -21.611 -17.612  0.00  0.00    +0.000 C 
BRANCH  19  20
ATOM     20  C   UNL     1      37.148 -22.237 -16.230  0.00  0.00    +0.000 C 
BRANCH  20  21
ATOM     21  C   UNL     1      35.855 -22.690 -15.549  0.00  0.00    +0.000 C 
BRANCH  21  22
ATOM     22  C   UNL     1      35.832 -24.186 -15.217  0.00  0.00    +0.000 C 
BRANCH  22  23
ATOM     23  C   UNL     1      35.881 -24.545 -13.729  0.00  0.00    +0.003 C 
BRANCH  23  24
ATOM     24  C   UNL     1      36.397 -23.412 -12.845  0.00  0.00    +0.032 C 
BRANCH  24  25
ATOM     25  C   UNL     1      37.639 -23.830 -12.068  0.00  0.00    +0.137 C 
BRANCH  25  26
ATOM     26  O   UNL     1      38.296 -22.663 -11.590  0.00  0.00    -0.382 OA
ATOM     27  H   UNL     1      38.780 -22.875 -10.777  0.00  0.00    +0.210 HD
ENDBRANCH  25  26
ENDBRANCH  24  25
ENDBRANCH  23  24
ENDBRANCH  22  23
ENDBRANCH  21  22
ENDBRANCH  20  21
ENDBRANCH  19  20
ENDBRANCH  18  19
ENDBRANCH  17  18
ENDBRANCH  16  17
ENDBRANCH  15  16
ENDBRANCH   1  15
TORSDOF 15
ENDMDL
MODEL 5
REMARK VINA RESULT:      -8.3      4.521     10.681
REMARK  Name = 12881464
REMARK  15 active torsions:
REMARK  status: ('A' for Active; 'I' for Inactive)
REMARK    1  A    between atoms: C_1  and  C_4
REMARK    2  A    between atoms: C_1  and  C_15
REMARK    3  A    between atoms: C_8  and  O_11
REMARK    4  A    between atoms: C_10  and  O_13
REMARK    5  A    between atoms: C_15  and  C_16
REMARK    6  A    between atoms: C_16  and  C_17
REMARK    7  A    between atoms: C_17  and  C_18
REMARK    8  A    between atoms: C_18  and  C_19
REMARK    9  A    between atoms: C_19  and  C_20
REMARK   10  A    between atoms: C_20  and  C_21
REMARK   11  A    between atoms: C_21  and  C_22
REMARK   12  A    between atoms: C_22  and  C_23
REMARK   13  A    between atoms: C_23  and  C_24
REMARK   14  A    between atoms: C_24  and  C_25
REMARK   15  A    between atoms: C_25  and  O_26
REMARK                            x       y       z     vdW  Elec       q    Type
REMARK                         _______ _______ _______ _____ _____    ______ ____
ROOT
ATOM      1  C   UNL     1      32.649 -13.559 -23.508  0.00  0.00    +0.029 C 
ENDROOT
BRANCH   1   4
ATOM      2  O   UNL     1      33.636 -15.433 -25.293  0.00  0.00    -0.284 OA
ATOM      3  O   UNL     1      34.991 -16.338 -20.229  0.00  0.00    -0.284 OA
ATOM      4  C   UNL     1      33.469 -14.711 -23.031  0.00  0.00    +0.019 C 
ATOM      5  C   UNL     1      33.797 -14.951 -21.748  0.00  0.00    +0.019 C 
ATOM      6  C   UNL     1      33.943 -15.620 -24.118  0.00  0.00    +0.228 C 
ATOM      7  C   UNL     1      34.664 -16.115 -21.391  0.00  0.00    +0.228 C 
ATOM      8  C   UNL     1      34.795 -16.773 -23.750  0.00  0.00    +0.214 C 
ATOM      9  C   UNL     1      33.343 -14.133 -20.570  0.00  0.00    +0.034 C 
ATOM     10  C   UNL     1      35.132 -17.003 -22.479  0.00  0.00    +0.214 C 
BRANCH   8  11
ATOM     11  O   UNL     1      35.232 -17.605 -24.760  0.00  0.00    -0.465 OA
ATOM     12  C   UNL     1      34.280 -18.616 -25.024  0.00  0.00    +0.253 C 
ENDBRANCH   8  11
BRANCH  10  13
ATOM     13  O   UNL     1      35.927 -18.067 -22.104  0.00  0.00    -0.465 OA
ATOM     14  C   UNL     1      35.136 -19.142 -21.635  0.00  0.00    +0.253 C 
ENDBRANCH  10  13
ENDBRANCH   1   4
BRANCH   1  15
ATOM     15  C   UNL     1      33.383 -12.217 -23.441  0.00  0.00    +0.005 C 
BRANCH  15  16
ATOM     16  C   UNL     1      33.873 -11.733 -24.809  0.00  0.00    +0.000 C 
BRANCH  16  17
ATOM     17  C   UNL     1      34.681 -10.440 -24.683  0.00  0.00    +0.000 C 
BRANCH  17  18
ATOM     18  C   UNL     1      33.893  -9.362 -23.934  0.00  0.00    +0.000 C 
BRANCH  18  19
ATOM     19  C   UNL     1      34.759  -8.129 -23.667  0.00  0.00    +0.000 C 
BRANCH  19  20
ATOM     20  C   UNL     1      34.262  -6.866 -24.380  0.00  0.00    +0.000 C 
BRANCH  20  21
ATOM     21  C   UNL     1      32.764  -6.613 -24.194  0.00  0.00    +0.000 C 
BRANCH  21  22
ATOM     22  C   UNL     1      32.414  -6.005 -22.832  0.00  0.00    +0.000 C 
BRANCH  22  23
ATOM     23  C   UNL     1      31.589  -6.890 -21.891  0.00  0.00    +0.003 C 
BRANCH  23  24
ATOM     24  C   UNL     1      32.377  -7.398 -20.686  0.00  0.00    +0.032 C 
BRANCH  24  25
ATOM     25  C   UNL     1      32.278  -8.913 -20.554  0.00  0.00    +0.137 C 
BRANCH  25  26
ATOM     26  O   UNL     1      32.613  -9.280 -19.222  0.00  0.00    -0.382 OA
ATOM     27  H   UNL     1      33.446  -9.776 -19.223  0.00  0.00    +0.210 HD
ENDBRANCH  25  26
ENDBRANCH  24  25
ENDBRANCH  23  24
ENDBRANCH  22  23
ENDBRANCH  21  22
ENDBRANCH  20  21
ENDBRANCH  19  20
ENDBRANCH  18  19
ENDBRANCH  17  18
ENDBRANCH  16  17
ENDBRANCH  15  16
ENDBRANCH   1  15
TORSDOF 15
ENDMDL
MODEL 6
REMARK VINA RESULT:      -8.3      1.664      2.073
REMARK  Name = 12881464
REMARK  15 active torsions:
REMARK  status: ('A' for Active; 'I' for Inactive)
REMARK    1  A    between atoms: C_1  and  C_4
REMARK    2  A    between atoms: C_1  and  C_15
REMARK    3  A    between atoms: C_8  and  O_11
REMARK    4  A    between atoms: C_10  and  O_13
REMARK    5  A    between atoms: C_15  and  C_16
REMARK    6  A    between atoms: C_16  and  C_17
REMARK    7  A    between atoms: C_17  and  C_18
REMARK    8  A    between atoms: C_18  and  C_19
REMARK    9  A    between atoms: C_19  and  C_20
REMARK   10  A    between atoms: C_20  and  C_21
REMARK   11  A    between atoms: C_21  and  C_22
REMARK   12  A    between atoms: C_22  and  C_23
REMARK   13  A    between atoms: C_23  and  C_24
REMARK   14  A    between atoms: C_24  and  C_25
REMARK   15  A    between atoms: C_25  and  O_26
REMARK                            x       y       z     vdW  Elec       q    Type
REMARK                         _______ _______ _______ _____ _____    ______ ____
ROOT
ATOM      1  C   UNL     1      35.322 -19.186 -21.519  0.00  0.00    +0.029 C 
ENDROOT
BRANCH   1   4
ATOM      2  O   UNL     1      35.025 -16.651 -20.442  0.00  0.00    -0.284 OA
ATOM      3  O   UNL     1      34.439 -16.846 -25.726  0.00  0.00    -0.284 OA
ATOM      4  C   UNL     1      35.008 -18.017 -22.391  0.00  0.00    +0.019 C 
ATOM      5  C   UNL     1      34.841 -18.069 -23.726  0.00  0.00    +0.019 C 
ATOM      6  C   UNL     1      34.900 -16.717 -21.663  0.00  0.00    +0.228 C 
ATOM      7  C   UNL     1      34.573 -16.822 -24.506  0.00  0.00    +0.228 C 
ATOM      8  C   UNL     1      34.627 -15.492 -22.446  0.00  0.00    +0.214 C 
ATOM      9  C   UNL     1      34.883 -19.322 -24.557  0.00  0.00    +0.034 C 
ATOM     10  C   UNL     1      34.475 -15.541 -23.772  0.00  0.00    +0.214 C 
BRANCH   8  11
ATOM     11  O   UNL     1      34.533 -14.295 -21.766  0.00  0.00    -0.465 OA
ATOM     12  C   UNL     1      33.244 -14.135 -21.208  0.00  0.00    +0.253 C 
ENDBRANCH   8  11
BRANCH  10  13
ATOM     13  O   UNL     1      34.223 -14.416 -24.530  0.00  0.00    -0.465 OA
ATOM     14  C   UNL     1      32.836 -14.277 -24.773  0.00  0.00    +0.253 C 
ENDBRANCH  10  13
ENDBRANCH   1   4
BRANCH   1  15
ATOM     15  C   UNL     1      34.079 -19.876 -20.950  0.00  0.00    +0.005 C 
BRANCH  15  16
ATOM     16  C   UNL     1      34.412 -20.955 -19.916  0.00  0.00    +0.000 C 
BRANCH  16  17
ATOM     17  C   UNL     1      35.877 -21.384 -20.015  0.00  0.00    +0.000 C 
BRANCH  17  18
ATOM     18  C   UNL     1      36.502 -21.555 -18.628  0.00  0.00    +0.000 C 
BRANCH  18  19
ATOM     19  C   UNL     1      35.518 -22.204 -17.653  0.00  0.00    +0.000 C 
BRANCH  19  20
ATOM     20  C   UNL     1      36.152 -22.599 -16.314  0.00  0.00    +0.000 C 
BRANCH  20  21
ATOM     21  C   UNL     1      35.230 -23.443 -15.431  0.00  0.00    +0.000 C 
BRANCH  21  22
ATOM     22  C   UNL     1      33.775 -23.460 -15.911  0.00  0.00    +0.000 C 
BRANCH  22  23
ATOM     23  C   UNL     1      32.716 -23.115 -14.859  0.00  0.00    +0.003 C 
BRANCH  23  24
ATOM     24  C   UNL     1      31.400 -23.866 -15.050  0.00  0.00    +0.032 C 
BRANCH  24  25
ATOM     25  C   UNL     1      31.281 -25.037 -14.083  0.00  0.00    +0.137 C 
BRANCH  25  26
ATOM     26  O   UNL     1      29.967 -25.572 -14.170  0.00  0.00    -0.382 OA
ATOM     27  H   UNL     1      29.428 -25.226 -13.442  0.00  0.00    +0.210 HD
ENDBRANCH  25  26
ENDBRANCH  24  25
ENDBRANCH  23  24
ENDBRANCH  22  23
ENDBRANCH  21  22
ENDBRANCH  20  21
ENDBRANCH  19  20
ENDBRANCH  18  19
ENDBRANCH  17  18
ENDBRANCH  16  17
ENDBRANCH  15  16
ENDBRANCH   1  15
TORSDOF 15
ENDMDL
MODEL 7
REMARK VINA RESULT:      -8.3      1.703      2.920
REMARK  Name = 12881464
REMARK  15 active torsions:
REMARK  status: ('A' for Active; 'I' for Inactive)
REMARK    1  A    between atoms: C_1  and  C_4
REMARK    2  A    between atoms: C_1  and  C_15
REMARK    3  A    between atoms: C_8  and  O_11
REMARK    4  A    between atoms: C_10  and  O_13
REMARK    5  A    between atoms: C_15  and  C_16
REMARK    6  A    between atoms: C_16  and  C_17
REMARK    7  A    between atoms: C_17  and  C_18
REMARK    8  A    between atoms: C_18  and  C_19
REMARK    9  A    between atoms: C_19  and  C_20
REMARK   10  A    between atoms: C_20  and  C_21
REMARK   11  A    between atoms: C_21  and  C_22
REMARK   12  A    between atoms: C_22  and  C_23
REMARK   13  A    between atoms: C_23  and  C_24
REMARK   14  A    between atoms: C_24  and  C_25
REMARK   15  A    between atoms: C_25  and  O_26
REMARK                            x       y       z     vdW  Elec       q    Type
REMARK                         _______ _______ _______ _____ _____    ______ ____
ROOT
ATOM      1  C   UNL     1      35.608 -17.892 -23.090  0.00  0.00    +0.029 C 
ENDROOT
BRANCH   1   4
ATOM      2  O   UNL     1      34.957 -16.758 -25.531  0.00  0.00    -0.284 OA
ATOM      3  O   UNL     1      33.283 -13.963 -21.326  0.00  0.00    -0.284 OA
ATOM      4  C   UNL     1      34.866 -16.599 -23.158  0.00  0.00    +0.019 C 
ATOM      5  C   UNL     1      34.459 -15.882 -22.095  0.00  0.00    +0.019 C 
ATOM      6  C   UNL     1      34.574 -16.131 -24.546  0.00  0.00    +0.228 C 
ATOM      7  C   UNL     1      33.682 -14.619 -22.284  0.00  0.00    +0.228 C 
ATOM      8  C   UNL     1      33.809 -14.876 -24.719  0.00  0.00    +0.214 C 
ATOM      9  C   UNL     1      34.734 -16.230 -20.657  0.00  0.00    +0.034 C 
ATOM     10  C   UNL     1      33.393 -14.171 -23.665  0.00  0.00    +0.214 C 
BRANCH   8  11
ATOM     11  O   UNL     1      33.539 -14.453 -26.005  0.00  0.00    -0.465 OA
ATOM     12  C   UNL     1      32.546 -15.265 -26.601  0.00  0.00    +0.253 C 
ENDBRANCH   8  11
BRANCH  10  13
ATOM     13  O   UNL     1      32.676 -12.999 -23.793  0.00  0.00    -0.465 OA
ATOM     14  C   UNL     1      33.543 -11.881 -23.800  0.00  0.00    +0.253 C 
ENDBRANCH  10  13
ENDBRANCH   1   4
BRANCH   1  15
ATOM     15  C   UNL     1      34.694 -19.120 -23.059  0.00  0.00    +0.005 C 
BRANCH  15  16
ATOM     16  C   UNL     1      34.620 -19.779 -21.678  0.00  0.00    +0.000 C 
BRANCH  16  17
ATOM     17  C   UNL     1      33.249 -19.566 -21.035  0.00  0.00    +0.000 C 
BRANCH  17  18
ATOM     18  C   UNL     1      32.983 -20.595 -19.934  0.00  0.00    +0.000 C 
BRANCH  18  19
ATOM     19  C   UNL     1      34.249 -21.386 -19.599  0.00  0.00    +0.000 C 
BRANCH  19  20
ATOM     20  C   UNL     1      33.968 -22.801 -19.081  0.00  0.00    +0.000 C 
BRANCH  20  21
ATOM     21  C   UNL     1      34.090 -22.927 -17.561  0.00  0.00    +0.000 C 
BRANCH  21  22
ATOM     22  C   UNL     1      32.763 -23.256 -16.869  0.00  0.00    +0.000 C 
BRANCH  22  23
ATOM     23  C   UNL     1      32.825 -23.443 -15.349  0.00  0.00    +0.003 C 
BRANCH  23  24
ATOM     24  C   UNL     1      31.461 -23.357 -14.668  0.00  0.00    +0.032 C 
BRANCH  24  25
ATOM     25  C   UNL     1      31.001 -24.719 -14.165  0.00  0.00    +0.137 C 
BRANCH  25  26
ATOM     26  O   UNL     1      32.143 -25.493 -13.823  0.00  0.00    -0.382 OA
ATOM     27  H   UNL     1      32.913 -24.911 -13.735  0.00  0.00    +0.210 HD
ENDBRANCH  25  26
ENDBRANCH  24  25
ENDBRANCH  23  24
ENDBRANCH  22  23
ENDBRANCH  21  22
ENDBRANCH  20  21
ENDBRANCH  19  20
ENDBRANCH  18  19
ENDBRANCH  17  18
ENDBRANCH  16  17
ENDBRANCH  15  16
ENDBRANCH   1  15
TORSDOF 15
ENDMDL
MODEL 8
REMARK VINA RESULT:      -8.3      4.231      9.681
REMARK  Name = 12881464
REMARK  15 active torsions:
REMARK  status: ('A' for Active; 'I' for Inactive)
REMARK    1  A    between atoms: C_1  and  C_4
REMARK    2  A    between atoms: C_1  and  C_15
REMARK    3  A    between atoms: C_8  and  O_11
REMARK    4  A    between atoms: C_10  and  O_13
REMARK    5  A    between atoms: C_15  and  C_16
REMARK    6  A    between atoms: C_16  and  C_17
REMARK    7  A    between atoms: C_17  and  C_18
REMARK    8  A    between atoms: C_18  and  C_19
REMARK    9  A    between atoms: C_19  and  C_20
REMARK   10  A    between atoms: C_20  and  C_21
REMARK   11  A    between atoms: C_21  and  C_22
REMARK   12  A    between atoms: C_22  and  C_23
REMARK   13  A    between atoms: C_23  and  C_24
REMARK   14  A    between atoms: C_24  and  C_25
REMARK   15  A    between atoms: C_25  and  O_26
REMARK                            x       y       z     vdW  Elec       q    Type
REMARK                         _______ _______ _______ _____ _____    ______ ____
ROOT
ATOM      1  C   UNL     1      34.057 -14.291 -21.233  0.00  0.00    +0.029 C 
ENDROOT
BRANCH   1   4
ATOM      2  O   UNL     1      35.242 -16.595 -20.253  0.00  0.00    -0.284 OA
ATOM      3  O   UNL     1      34.401 -16.654 -25.505  0.00  0.00    -0.284 OA
ATOM      4  C   UNL     1      34.422 -15.411 -22.148  0.00  0.00    +0.019 C 
ATOM      5  C   UNL     1      34.226 -15.420 -23.479  0.00  0.00    +0.019 C 
ATOM      6  C   UNL     1      35.033 -16.590 -21.463  0.00  0.00    +0.228 C 
ATOM      7  C   UNL     1      34.591 -16.620 -24.293  0.00  0.00    +0.228 C 
ATOM      8  C   UNL     1      35.396 -17.769 -22.281  0.00  0.00    +0.214 C 
ATOM      9  C   UNL     1      33.663 -14.277 -24.280  0.00  0.00    +0.034 C 
ATOM     10  C   UNL     1      35.190 -17.783 -23.600  0.00  0.00    +0.214 C 
BRANCH   8  11
ATOM     11  O   UNL     1      35.956 -18.856 -21.641  0.00  0.00    -0.465 OA
ATOM     12  C   UNL     1      34.951 -19.686 -21.093  0.00  0.00    +0.253 C 
ENDBRANCH   8  11
BRANCH  10  13
ATOM     13  O   UNL     1      35.515 -18.868 -24.389  0.00  0.00    -0.465 OA
ATOM     14  C   UNL     1      34.366 -19.643 -24.674  0.00  0.00    +0.253 C 
ENDBRANCH  10  13
ENDBRANCH   1   4
BRANCH   1  15
ATOM     15  C   UNL     1      32.638 -14.399 -20.670  0.00  0.00    +0.005 C 
BRANCH  15  16
ATOM     16  C   UNL     1      32.050 -13.045 -20.262  0.00  0.00    +0.000 C 
BRANCH  16  17
ATOM     17  C   UNL     1      31.762 -12.174 -21.486  0.00  0.00    +0.000 C 
BRANCH  17  18
ATOM     18  C   UNL     1      30.845 -11.000 -21.133  0.00  0.00    +0.000 C 
BRANCH  18  19
ATOM     19  C   UNL     1      31.292 -10.318 -19.839  0.00  0.00    +0.000 C 
BRANCH  19  20
ATOM     20  C   UNL     1      32.225  -9.123 -20.067  0.00  0.00    +0.000 C 
BRANCH  20  21
ATOM     21  C   UNL     1      31.944  -8.373 -21.370  0.00  0.00    +0.000 C 
BRANCH  21  22
ATOM     22  C   UNL     1      33.161  -7.615 -21.912  0.00  0.00    +0.000 C 
BRANCH  22  23
ATOM     23  C   UNL     1      33.825  -8.211 -23.157  0.00  0.00    +0.003 C 
BRANCH  23  24
ATOM     24  C   UNL     1      33.138  -9.475 -23.669  0.00  0.00    +0.032 C 
BRANCH  24  25
ATOM     25  C   UNL     1      34.149 -10.484 -24.199  0.00  0.00    +0.137 C 
BRANCH  25  26
ATOM     26  O   UNL     1      35.452  -9.925 -24.099  0.00  0.00    -0.382 OA
ATOM     27  H   UNL     1      35.785 -10.041 -23.195  0.00  0.00    +0.210 HD
ENDBRANCH  25  26
ENDBRANCH  24  25
ENDBRANCH  23  24
ENDBRANCH  22  23
ENDBRANCH  21  22
ENDBRANCH  20  21
ENDBRANCH  19  20
ENDBRANCH  18  19
ENDBRANCH  17  18
ENDBRANCH  16  17
ENDBRANCH  15  16
ENDBRANCH   1  15
TORSDOF 15
ENDMDL
MODEL 9
REMARK VINA RESULT:      -8.3      3.006      6.028
REMARK  Name = 12881464
REMARK  15 active torsions:
REMARK  status: ('A' for Active; 'I' for Inactive)
REMARK    1  A    between atoms: C_1  and  C_4
REMARK    2  A    between atoms: C_1  and  C_15
REMARK    3  A    between atoms: C_8  and  O_11
REMARK    4  A    between atoms: C_10  and  O_13
REMARK    5  A    between atoms: C_15  and  C_16
REMARK    6  A    between atoms: C_16  and  C_17
REMARK    7  A    between atoms: C_17  and  C_18
REMARK    8  A    between atoms: C_18  and  C_19
REMARK    9  A    between atoms: C_19  and  C_20
REMARK   10  A    between atoms: C_20  and  C_21
REMARK   11  A    between atoms: C_21  and  C_22
REMARK   12  A    between atoms: C_22  and  C_23
REMARK   13  A    between atoms: C_23  and  C_24
REMARK   14  A    between atoms: C_24  and  C_25
REMARK   15  A    between atoms: C_25  and  O_26
REMARK                            x       y       z     vdW  Elec       q    Type
REMARK                         _______ _______ _______ _____ _____    ______ ____
ROOT
ATOM      1  C   UNL     1      33.950 -13.702 -24.330  0.00  0.00    +0.029 C 
ENDROOT
BRANCH   1   4
ATOM      2  O   UNL     1      34.284 -11.054 -25.074  0.00  0.00    -0.284 OA
ATOM      3  O   UNL     1      31.170 -11.734 -20.814  0.00  0.00    -0.284 OA
ATOM      4  C   UNL     1      33.303 -12.603 -23.555  0.00  0.00    +0.019 C 
ATOM      5  C   UNL     1      32.530 -12.772 -22.467  0.00  0.00    +0.019 C 
ATOM      6  C   UNL     1      33.562 -11.234 -24.095  0.00  0.00    +0.228 C 
ATOM      7  C   UNL     1      31.895 -11.597 -21.796  0.00  0.00    +0.228 C 
ATOM      8  C   UNL     1      32.933 -10.079 -23.418  0.00  0.00    +0.214 C 
ATOM      9  C   UNL     1      32.237 -14.094 -21.809  0.00  0.00    +0.034 C 
ATOM     10  C   UNL     1      32.155 -10.248 -22.346  0.00  0.00    +0.214 C 
BRANCH   8  11
ATOM     11  O   UNL     1      33.173  -8.818 -23.926  0.00  0.00    -0.465 OA
ATOM     12  C   UNL     1      34.470  -8.376 -23.575  0.00  0.00    +0.253 C 
ENDBRANCH   8  11
BRANCH  10  13
ATOM     13  O   UNL     1      31.553  -9.192 -21.694  0.00  0.00    -0.465 OA
ATOM     14  C   UNL     1      32.344  -8.759 -20.604  0.00  0.00    +0.253 C 
ENDBRANCH  10  13
ENDBRANCH   1   4
BRANCH   1  15
ATOM     15  C   UNL     1      33.056 -14.285 -25.427  0.00  0.00    +0.005 C 
BRANCH  15  16
ATOM     16  C   UNL     1      33.477 -15.693 -25.859  0.00  0.00    +0.000 C 
BRANCH  16  17
ATOM     17  C   UNL     1      34.256 -16.403 -24.749  0.00  0.00    +0.000 C 
BRANCH  17  18
ATOM     18  C   UNL     1      34.559 -17.856 -25.124  0.00  0.00    +0.000 C 
BRANCH  18  19
ATOM     19  C   UNL     1      34.662 -18.738 -23.878  0.00  0.00    +0.000 C 
BRANCH  19  20
ATOM     20  C   UNL     1      35.598 -18.174 -22.803  0.00  0.00    +0.000 C 
BRANCH  20  21
ATOM     21  C   UNL     1      35.431 -18.846 -21.439  0.00  0.00    +0.000 C 
BRANCH  21  22
ATOM     22  C   UNL     1      33.970 -18.964 -20.992  0.00  0.00    +0.000 C 
BRANCH  22  23
ATOM     23  C   UNL     1      33.502 -20.364 -20.584  0.00  0.00    +0.003 C 
BRANCH  23  24
ATOM     24  C   UNL     1      34.540 -21.143 -19.778  0.00  0.00    +0.032 C 
BRANCH  24  25
ATOM     25  C   UNL     1      33.903 -22.298 -19.017  0.00  0.00    +0.137 C 
BRANCH  25  26
ATOM     26  O   UNL     1      32.539 -21.989 -18.768  0.00  0.00    -0.382 OA
ATOM     27  H   UNL     1      32.481 -21.152 -18.280  0.00  0.00    +0.210 HD
ENDBRANCH  25  26
ENDBRANCH  24  25
ENDBRANCH  23  24
ENDBRANCH  22  23
ENDBRANCH  21  22
ENDBRANCH  20  21
ENDBRANCH  19  20
ENDBRANCH  18  19
ENDBRANCH  17  18
ENDBRANCH  16  17
ENDBRANCH  15  16
ENDBRANCH   1  15
TORSDOF 15
ENDMDL
