MODEL 1
REMARK VINA RESULT:      -7.9      0.000      0.000
REMARK  Name = 27453
REMARK  10 active torsions:
REMARK  status: ('A' for Active; 'I' for Inactive)
REMARK    1  A    between atoms: C_1  and  C_2
REMARK    2  A    between atoms: C_1  and  C_10
REMARK    3  A    between atoms: C_1  and  C_12
REMARK    4  A    between atoms: C_1  and  C_14
REMARK    5  A    between atoms: C_5  and  O_8
REMARK    6  A    between atoms: C_14  and  N_16
REMARK    7  A    between atoms: C_17  and  C_19
REMARK    8  A    between atoms: C_19  and  C_20
REMARK    9  A    between atoms: C_20  and  C_21
REMARK   10  A    between atoms: C_21  and  O_22
REMARK                            x       y       z     vdW  Elec       q    Type
REMARK                         _______ _______ _______ _____ _____    ______ ____
ROOT
ATOM      1  C   UNL     1      34.895 -18.178 -22.141  0.00  0.00    +0.037 C 
ENDROOT
BRANCH   1   2
ATOM      2  C   UNL     1      34.255 -16.776 -21.965  0.00  0.00    -0.018 C 
ATOM      3  C   UNL     1      34.514 -15.769 -22.895  0.00  0.00    +0.033 C 
ATOM      4  C   UNL     1      33.419 -16.522 -20.878  0.00  0.00    -0.004 C 
ATOM      5  C   UNL     1      33.939 -14.509 -22.738  0.00  0.00    +0.138 C 
ATOM      6  C   UNL     1      32.844 -15.261 -20.719  0.00  0.00    +0.003 C 
ATOM      7  C   UNL     1      33.104 -14.255 -21.649  0.00  0.00    +0.037 C 
BRANCH   5   8
ATOM      8  O   UNL     1      34.192 -13.526 -23.645  0.00  0.00    -0.471 OA
ATOM      9  C   UNL     1      33.350 -12.375 -23.607  0.00  0.00    +0.252 C 
ENDBRANCH   5   8
ENDBRANCH   1   2
BRANCH   1  10
ATOM     10  C   UNL     1      35.361 -18.339 -23.632  0.00  0.00    +0.006 C 
ATOM     11  C   UNL     1      34.451 -19.181 -24.521  0.00  0.00    +0.000 C 
ENDBRANCH   1  10
BRANCH   1  12
ATOM     12  C   UNL     1      36.182 -18.279 -21.247  0.00  0.00    +0.006 C 
ATOM     13  C   UNL     1      37.436 -18.788 -21.952  0.00  0.00    +0.000 C 
ENDBRANCH   1  12
BRANCH   1  14
ATOM     14  C   UNL     1      33.915 -19.334 -21.763  0.00  0.00    +0.093 C 
BRANCH  14  16
ATOM     15  O   UNL     1      32.598 -20.649 -19.563  0.00  0.00    -0.275 OA
ATOM     16  N   UNL     1      34.475 -20.335 -20.894  0.00  0.00    -0.304 N 
ATOM     17  C   UNL     1      33.761 -20.917 -19.854  0.00  0.00    +0.223 C 
ATOM     18  H   UNL     1      35.406 -20.620 -21.044  0.00  0.00    +0.149 HD
BRANCH  17  19
ATOM     19  C   UNL     1      34.586 -21.961 -19.119  0.00  0.00    +0.088 C 
BRANCH  19  20
ATOM     20  C   UNL     1      36.064 -21.605 -19.003  0.00  0.00    +0.041 C 
BRANCH  20  21
ATOM     21  C   UNL     1      36.614 -21.828 -17.599  0.00  0.00    +0.138 C 
BRANCH  21  22
ATOM     22  O   UNL     1      37.259 -20.637 -17.167  0.00  0.00    -0.382 OA
ATOM     23  H   UNL     1      36.743 -20.230 -16.454  0.00  0.00    +0.210 HD
ENDBRANCH  21  22
ENDBRANCH  20  21
ENDBRANCH  19  20
ENDBRANCH  17  19
ENDBRANCH  14  16
ENDBRANCH   1  14
TORSDOF 10
ENDMDL
MODEL 2
REMARK VINA RESULT:      -7.6      5.283      8.789
REMARK  Name = 27453
REMARK  10 active torsions:
REMARK  status: ('A' for Active; 'I' for Inactive)
REMARK    1  A    between atoms: C_1  and  C_2
REMARK    2  A    between atoms: C_1  and  C_10
REMARK    3  A    between atoms: C_1  and  C_12
REMARK    4  A    between atoms: C_1  and  C_14
REMARK    5  A    between atoms: C_5  and  O_8
REMARK    6  A    between atoms: C_14  and  N_16
REMARK    7  A    between atoms: C_17  and  C_19
REMARK    8  A    between atoms: C_19  and  C_20
REMARK    9  A    between atoms: C_20  and  C_21
REMARK   10  A    between atoms: C_21  and  O_22
REMARK                            x       y       z     vdW  Elec       q    Type
REMARK                         _______ _______ _______ _____ _____    ______ ____
ROOT
ATOM      1  C   UNL     1      34.785 -23.677 -15.111  0.00  0.00    +0.037 C 
ENDROOT
BRANCH   1   2
ATOM      2  C   UNL     1      35.046 -22.975 -16.469  0.00  0.00    -0.018 C 
ATOM      3  C   UNL     1      34.025 -22.884 -17.415  0.00  0.00    +0.033 C 
ATOM      4  C   UNL     1      36.302 -22.436 -16.746  0.00  0.00    -0.004 C 
ATOM      5  C   UNL     1      34.259 -22.253 -18.636  0.00  0.00    +0.138 C 
ATOM      6  C   UNL     1      36.537 -21.806 -17.967  0.00  0.00    +0.003 C 
ATOM      7  C   UNL     1      35.516 -21.714 -18.912  0.00  0.00    +0.037 C 
BRANCH   5   8
ATOM      8  O   UNL     1      33.262 -22.163 -19.559  0.00  0.00    -0.471 OA
ATOM      9  C   UNL     1      33.049 -20.887 -20.161  0.00  0.00    +0.252 C 
ENDBRANCH   5   8
ENDBRANCH   1   2
BRANCH   1  10
ATOM     10  C   UNL     1      35.744 -23.062 -14.031  0.00  0.00    +0.006 C 
ATOM     11  C   UNL     1      35.551 -23.575 -12.607  0.00  0.00    +0.000 C 
ENDBRANCH   1  10
BRANCH   1  12
ATOM     12  C   UNL     1      33.317 -23.375 -14.642  0.00  0.00    +0.006 C 
ATOM     13  C   UNL     1      32.521 -24.581 -14.148  0.00  0.00    +0.000 C 
ENDBRANCH   1  12
BRANCH   1  14
ATOM     14  C   UNL     1      34.993 -25.223 -15.187  0.00  0.00    +0.093 C 
BRANCH  14  16
ATOM     15  O   UNL     1      36.631 -27.326 -16.282  0.00  0.00    -0.275 OA
ATOM     16  N   UNL     1      36.261 -25.682 -14.683  0.00  0.00    -0.304 N 
ATOM     17  C   UNL     1      36.983 -26.708 -15.281  0.00  0.00    +0.223 C 
ATOM     18  H   UNL     1      36.633 -25.251 -13.880  0.00  0.00    +0.149 HD
BRANCH  17  19
ATOM     19  C   UNL     1      38.296 -26.967 -14.560  0.00  0.00    +0.088 C 
BRANCH  19  20
ATOM     20  C   UNL     1      38.982 -25.699 -14.061  0.00  0.00    +0.041 C 
BRANCH  20  21
ATOM     21  C   UNL     1      40.387 -25.530 -14.624  0.00  0.00    +0.138 C 
BRANCH  21  22
ATOM     22  O   UNL     1      40.398 -25.991 -15.970  0.00  0.00    -0.382 OA
ATOM     23  H   UNL     1      41.130 -26.615 -16.092  0.00  0.00    +0.210 HD
ENDBRANCH  21  22
ENDBRANCH  20  21
ENDBRANCH  19  20
ENDBRANCH  17  19
ENDBRANCH  14  16
ENDBRANCH   1  14
TORSDOF 10
ENDMDL
MODEL 3
REMARK VINA RESULT:      -7.5      8.121      9.921
REMARK  Name = 27453
REMARK  10 active torsions:
REMARK  status: ('A' for Active; 'I' for Inactive)
REMARK    1  A    between atoms: C_1  and  C_2
REMARK    2  A    between atoms: C_1  and  C_10
REMARK    3  A    between atoms: C_1  and  C_12
REMARK    4  A    between atoms: C_1  and  C_14
REMARK    5  A    between atoms: C_5  and  O_8
REMARK    6  A    between atoms: C_14  and  N_16
REMARK    7  A    between atoms: C_17  and  C_19
REMARK    8  A    between atoms: C_19  and  C_20
REMARK    9  A    between atoms: C_20  and  C_21
REMARK   10  A    between atoms: C_21  and  O_22
REMARK                            x       y       z     vdW  Elec       q    Type
REMARK                         _______ _______ _______ _____ _____    ______ ____
ROOT
ATOM      1  C   UNL     1      34.251 -24.082 -14.477  0.00  0.00    +0.037 C 
ENDROOT
BRANCH   1   2
ATOM      2  C   UNL     1      32.708 -24.111 -14.629  0.00  0.00    -0.018 C 
ATOM      3  C   UNL     1      32.090 -23.353 -15.624  0.00  0.00    +0.033 C 
ATOM      4  C   UNL     1      31.936 -24.894 -13.769  0.00  0.00    -0.004 C 
ATOM      5  C   UNL     1      30.702 -23.379 -15.761  0.00  0.00    +0.138 C 
ATOM      6  C   UNL     1      30.549 -24.919 -13.905  0.00  0.00    +0.003 C 
ATOM      7  C   UNL     1      29.932 -24.162 -14.900  0.00  0.00    +0.037 C 
BRANCH   5   8
ATOM      8  O   UNL     1      30.100 -22.641 -16.732  0.00  0.00    -0.471 OA
ATOM      9  C   UNL     1      28.673 -22.639 -16.756  0.00  0.00    +0.252 C 
ENDBRANCH   5   8
ENDBRANCH   1   2
BRANCH   1  10
ATOM     10  C   UNL     1      34.785 -22.703 -15.004  0.00  0.00    +0.006 C 
ATOM     11  C   UNL     1      35.707 -22.772 -16.218  0.00  0.00    +0.000 C 
ENDBRANCH   1  10
BRANCH   1  12
ATOM     12  C   UNL     1      34.627 -24.166 -12.955  0.00  0.00    +0.006 C 
ATOM     13  C   UNL     1      35.887 -23.411 -12.544  0.00  0.00    +0.000 C 
ENDBRANCH   1  12
BRANCH   1  14
ATOM     14  C   UNL     1      34.949 -25.250 -15.244  0.00  0.00    +0.093 C 
BRANCH  14  16
ATOM     15  O   UNL     1      36.698 -27.305 -16.257  0.00  0.00    -0.275 OA
ATOM     16  N   UNL     1      36.200 -25.678 -14.676  0.00  0.00    -0.304 N 
ATOM     17  C   UNL     1      36.980 -26.682 -15.237  0.00  0.00    +0.223 C 
ATOM     18  H   UNL     1      36.517 -25.239 -13.853  0.00  0.00    +0.149 HD
BRANCH  17  19
ATOM     19  C   UNL     1      38.260 -26.908 -14.448  0.00  0.00    +0.088 C 
BRANCH  19  20
ATOM     20  C   UNL     1      38.982 -25.619 -14.068  0.00  0.00    +0.041 C 
BRANCH  20  21
ATOM     21  C   UNL     1      40.387 -25.539 -14.650  0.00  0.00    +0.138 C 
BRANCH  21  22
ATOM     22  O   UNL     1      40.342 -25.952 -16.010  0.00  0.00    -0.382 OA
ATOM     23  H   UNL     1      40.241 -26.916 -16.052  0.00  0.00    +0.210 HD
ENDBRANCH  21  22
ENDBRANCH  20  21
ENDBRANCH  19  20
ENDBRANCH  17  19
ENDBRANCH  14  16
ENDBRANCH   1  14
TORSDOF 10
ENDMDL
MODEL 4
REMARK VINA RESULT:      -7.3      1.671      6.725
REMARK  Name = 27453
REMARK  10 active torsions:
REMARK  status: ('A' for Active; 'I' for Inactive)
REMARK    1  A    between atoms: C_1  and  C_2
REMARK    2  A    between atoms: C_1  and  C_10
REMARK    3  A    between atoms: C_1  and  C_12
REMARK    4  A    between atoms: C_1  and  C_14
REMARK    5  A    between atoms: C_5  and  O_8
REMARK    6  A    between atoms: C_14  and  N_16
REMARK    7  A    between atoms: C_17  and  C_19
REMARK    8  A    between atoms: C_19  and  C_20
REMARK    9  A    between atoms: C_20  and  C_21
REMARK   10  A    between atoms: C_21  and  O_22
REMARK                            x       y       z     vdW  Elec       q    Type
REMARK                         _______ _______ _______ _____ _____    ______ ____
ROOT
ATOM      1  C   UNL     1      35.056 -18.753 -21.978  0.00  0.00    +0.037 C 
ENDROOT
BRANCH   1   2
ATOM      2  C   UNL     1      34.535 -19.811 -20.971  0.00  0.00    -0.018 C 
ATOM      3  C   UNL     1      35.438 -20.610 -20.269  0.00  0.00    +0.033 C 
ATOM      4  C   UNL     1      33.164 -19.964 -20.766  0.00  0.00    -0.004 C 
ATOM      5  C   UNL     1      34.970 -21.562 -19.363  0.00  0.00    +0.138 C 
ATOM      6  C   UNL     1      32.695 -20.916 -19.861  0.00  0.00    +0.003 C 
ATOM      7  C   UNL     1      33.598 -21.714 -19.160  0.00  0.00    +0.037 C 
BRANCH   5   8
ATOM      8  O   UNL     1      35.850 -22.341 -18.677  0.00  0.00    -0.471 OA
ATOM      9  C   UNL     1      36.759 -21.677 -17.801  0.00  0.00    +0.252 C 
ENDBRANCH   5   8
ENDBRANCH   1   2
BRANCH   1  10
ATOM     10  C   UNL     1      36.419 -19.253 -22.577  0.00  0.00    +0.006 C 
ATOM     11  C   UNL     1      37.672 -18.596 -22.006  0.00  0.00    +0.000 C 
ENDBRANCH   1  10
BRANCH   1  12
ATOM     12  C   UNL     1      34.048 -18.633 -23.175  0.00  0.00    +0.006 C 
ATOM     13  C   UNL     1      34.602 -19.013 -24.546  0.00  0.00    +0.000 C 
ENDBRANCH   1  12
BRANCH   1  14
ATOM     14  C   UNL     1      35.248 -17.348 -21.324  0.00  0.00    +0.093 C 
BRANCH  14  16
ATOM     15  O   UNL     1      35.027 -14.624 -20.409  0.00  0.00    -0.275 OA
ATOM     16  N   UNL     1      34.045 -16.563 -21.228  0.00  0.00    -0.304 N 
ATOM     17  C   UNL     1      34.035 -15.250 -20.773  0.00  0.00    +0.223 C 
ATOM     18  H   UNL     1      33.191 -16.974 -21.497  0.00  0.00    +0.149 HD
BRANCH  17  19
ATOM     19  C   UNL     1      32.638 -14.653 -20.804  0.00  0.00    +0.088 C 
BRANCH  19  20
ATOM     20  C   UNL     1      32.490 -13.487 -21.776  0.00  0.00    +0.041 C 
BRANCH  20  21
ATOM     21  C   UNL     1      32.987 -13.823 -23.177  0.00  0.00    +0.138 C 
BRANCH  21  22
ATOM     22  O   UNL     1      34.129 -13.024 -23.460  0.00  0.00    -0.382 OA
ATOM     23  H   UNL     1      33.913 -12.389 -24.160  0.00  0.00    +0.210 HD
ENDBRANCH  21  22
ENDBRANCH  20  21
ENDBRANCH  19  20
ENDBRANCH  17  19
ENDBRANCH  14  16
ENDBRANCH   1  14
TORSDOF 10
ENDMDL
MODEL 5
REMARK VINA RESULT:      -7.3      8.348     11.459
REMARK  Name = 27453
REMARK  10 active torsions:
REMARK  status: ('A' for Active; 'I' for Inactive)
REMARK    1  A    between atoms: C_1  and  C_2
REMARK    2  A    between atoms: C_1  and  C_10
REMARK    3  A    between atoms: C_1  and  C_12
REMARK    4  A    between atoms: C_1  and  C_14
REMARK    5  A    between atoms: C_5  and  O_8
REMARK    6  A    between atoms: C_14  and  N_16
REMARK    7  A    between atoms: C_17  and  C_19
REMARK    8  A    between atoms: C_19  and  C_20
REMARK    9  A    between atoms: C_20  and  C_21
REMARK   10  A    between atoms: C_21  and  O_22
REMARK                            x       y       z     vdW  Elec       q    Type
REMARK                         _______ _______ _______ _____ _____    ______ ____
ROOT
ATOM      1  C   UNL     1      32.408  -7.175 -23.081  0.00  0.00    +0.037 C 
ENDROOT
BRANCH   1   2
ATOM      2  C   UNL     1      32.215  -5.931 -23.987  0.00  0.00    -0.018 C 
ATOM      3  C   UNL     1      31.339  -4.916 -23.602  0.00  0.00    +0.033 C 
ATOM      4  C   UNL     1      32.918  -5.827 -25.187  0.00  0.00    -0.004 C 
ATOM      5  C   UNL     1      31.166  -3.798 -24.417  0.00  0.00    +0.138 C 
ATOM      6  C   UNL     1      32.744  -4.709 -26.003  0.00  0.00    +0.003 C 
ATOM      7  C   UNL     1      31.868  -3.695 -25.618  0.00  0.00    +0.037 C 
BRANCH   5   8
ATOM      8  O   UNL     1      30.311  -2.807 -24.041  0.00  0.00    -0.471 OA
ATOM      9  C   UNL     1      30.724  -1.969 -22.963  0.00  0.00    +0.252 C 
ENDBRANCH   5   8
ENDBRANCH   1   2
BRANCH   1  10
ATOM     10  C   UNL     1      33.941  -7.362 -22.796  0.00  0.00    +0.006 C 
ATOM     11  C   UNL     1      34.682  -8.291 -23.754  0.00  0.00    +0.000 C 
ENDBRANCH   1  10
BRANCH   1  12
ATOM     12  C   UNL     1      31.714  -6.922 -21.695  0.00  0.00    +0.006 C 
ATOM     13  C   UNL     1      32.657  -6.728 -20.511  0.00  0.00    +0.000 C 
ENDBRANCH   1  12
BRANCH   1  14
ATOM     14  C   UNL     1      31.824  -8.475 -23.719  0.00  0.00    +0.093 C 
BRANCH  14  16
ATOM     15  O   UNL     1      32.744 -11.091 -22.933  0.00  0.00    -0.275 OA
ATOM     16  N   UNL     1      31.192  -9.369 -22.784  0.00  0.00    -0.304 N 
ATOM     17  C   UNL     1      31.711 -10.618 -22.465  0.00  0.00    +0.223 C 
ATOM     18  H   UNL     1      30.354  -9.084 -22.352  0.00  0.00    +0.149 HD
BRANCH  17  19
ATOM     19  C   UNL     1      30.859 -11.336 -21.432  0.00  0.00    +0.088 C 
BRANCH  19  20
ATOM     20  C   UNL     1      31.559 -11.536 -20.091  0.00  0.00    +0.041 C 
BRANCH  20  21
ATOM     21  C   UNL     1      31.364 -10.358 -19.145  0.00  0.00    +0.138 C 
BRANCH  21  22
ATOM     22  O   UNL     1      32.620  -9.725 -18.941  0.00  0.00    -0.382 OA
ATOM     23  H   UNL     1      33.310 -10.215 -19.413  0.00  0.00    +0.210 HD
ENDBRANCH  21  22
ENDBRANCH  20  21
ENDBRANCH  19  20
ENDBRANCH  17  19
ENDBRANCH  14  16
ENDBRANCH   1  14
TORSDOF 10
ENDMDL
MODEL 6
REMARK VINA RESULT:      -7.1      5.366      8.871
REMARK  Name = 27453
REMARK  10 active torsions:
REMARK  status: ('A' for Active; 'I' for Inactive)
REMARK    1  A    between atoms: C_1  and  C_2
REMARK    2  A    between atoms: C_1  and  C_10
REMARK    3  A    between atoms: C_1  and  C_12
REMARK    4  A    between atoms: C_1  and  C_14
REMARK    5  A    between atoms: C_5  and  O_8
REMARK    6  A    between atoms: C_14  and  N_16
REMARK    7  A    between atoms: C_17  and  C_19
REMARK    8  A    between atoms: C_19  and  C_20
REMARK    9  A    between atoms: C_20  and  C_21
REMARK   10  A    between atoms: C_21  and  O_22
REMARK                            x       y       z     vdW  Elec       q    Type
REMARK                         _______ _______ _______ _____ _____    ______ ____
ROOT
ATOM      1  C   UNL     1      35.169 -23.822 -14.860  0.00  0.00    +0.037 C 
ENDROOT
BRANCH   1   2
ATOM      2  C   UNL     1      35.361 -23.077 -16.207  0.00  0.00    -0.018 C 
ATOM      3  C   UNL     1      34.318 -23.030 -17.133  0.00  0.00    +0.033 C 
ATOM      4  C   UNL     1      36.575 -22.454 -16.493  0.00  0.00    -0.004 C 
ATOM      5  C   UNL     1      34.490 -22.360 -18.344  0.00  0.00    +0.138 C 
ATOM      6  C   UNL     1      36.748 -21.784 -17.704  0.00  0.00    +0.003 C 
ATOM      7  C   UNL     1      35.706 -21.737 -18.629  0.00  0.00    +0.037 C 
BRANCH   5   8
ATOM      8  O   UNL     1      33.473 -22.313 -19.247  0.00  0.00    -0.471 OA
ATOM      9  C   UNL     1      33.284 -21.086 -19.949  0.00  0.00    +0.252 C 
ENDBRANCH   5   8
ENDBRANCH   1   2
BRANCH   1  10
ATOM     10  C   UNL     1      35.250 -25.368 -15.122  0.00  0.00    +0.006 C 
ATOM     11  C   UNL     1      36.654 -25.966 -15.117  0.00  0.00    +0.000 C 
ENDBRANCH   1  10
BRANCH   1  12
ATOM     12  C   UNL     1      36.351 -23.460 -13.892  0.00  0.00    +0.006 C 
ATOM     13  C   UNL     1      36.006 -23.453 -12.405  0.00  0.00    +0.000 C 
ENDBRANCH   1  12
BRANCH   1  14
ATOM     14  C   UNL     1      33.813 -23.471 -14.171  0.00  0.00    +0.093 C 
BRANCH  14  16
ATOM     15  O   UNL     1      31.149 -22.504 -14.699  0.00  0.00    -0.275 OA
ATOM     16  N   UNL     1      32.689 -24.242 -14.631  0.00  0.00    -0.304 N 
ATOM     17  C   UNL     1      31.435 -23.688 -14.860  0.00  0.00    +0.223 C 
ATOM     18  H   UNL     1      32.813 -25.206 -14.792  0.00  0.00    +0.149 HD
BRANCH  17  19
ATOM     19  C   UNL     1      30.445 -24.723 -15.369  0.00  0.00    +0.088 C 
BRANCH  19  20
ATOM     20  C   UNL     1      29.005 -24.221 -15.422  0.00  0.00    +0.041 C 
BRANCH  20  21
ATOM     21  C   UNL     1      28.666 -23.550 -16.748  0.00  0.00    +0.138 C 
BRANCH  21  22
ATOM     22  O   UNL     1      27.712 -24.352 -17.433  0.00  0.00    -0.382 OA
ATOM     23  H   UNL     1      28.124 -24.747 -18.216  0.00  0.00    +0.210 HD
ENDBRANCH  21  22
ENDBRANCH  20  21
ENDBRANCH  19  20
ENDBRANCH  17  19
ENDBRANCH  14  16
ENDBRANCH   1  14
TORSDOF 10
ENDMDL
MODEL 7
REMARK VINA RESULT:      -7.0      6.336     10.600
REMARK  Name = 27453
REMARK  10 active torsions:
REMARK  status: ('A' for Active; 'I' for Inactive)
REMARK    1  A    between atoms: C_1  and  C_2
REMARK    2  A    between atoms: C_1  and  C_10
REMARK    3  A    between atoms: C_1  and  C_12
REMARK    4  A    between atoms: C_1  and  C_14
REMARK    5  A    between atoms: C_5  and  O_8
REMARK    6  A    between atoms: C_14  and  N_16
REMARK    7  A    between atoms: C_17  and  C_19
REMARK    8  A    between atoms: C_19  and  C_20
REMARK    9  A    between atoms: C_20  and  C_21
REMARK   10  A    between atoms: C_21  and  O_22
REMARK                            x       y       z     vdW  Elec       q    Type
REMARK                         _______ _______ _______ _____ _____    ______ ____
ROOT
ATOM      1  C   UNL     1      32.538  -7.890 -22.596  0.00  0.00    +0.037 C 
ENDROOT
BRANCH   1   2
ATOM      2  C   UNL     1      32.067  -6.569 -23.259  0.00  0.00    -0.018 C 
ATOM      3  C   UNL     1      31.398  -5.608 -22.501  0.00  0.00    +0.033 C 
ATOM      4  C   UNL     1      32.310  -6.343 -24.614  0.00  0.00    -0.004 C 
ATOM      5  C   UNL     1      30.975  -4.420 -23.097  0.00  0.00    +0.138 C 
ATOM      6  C   UNL     1      31.886  -5.155 -25.210  0.00  0.00    +0.003 C 
ATOM      7  C   UNL     1      31.218  -4.195 -24.452  0.00  0.00    +0.037 C 
BRANCH   5   8
ATOM      8  O   UNL     1      30.323  -3.481 -22.357  0.00  0.00    -0.471 OA
ATOM      9  C   UNL     1      30.526  -2.116 -22.717  0.00  0.00    +0.252 C 
ENDBRANCH   5   8
ENDBRANCH   1   2
BRANCH   1  10
ATOM     10  C   UNL     1      33.797  -8.422 -23.368  0.00  0.00    +0.006 C 
ATOM     11  C   UNL     1      35.012  -7.499 -23.368  0.00  0.00    +0.000 C 
ENDBRANCH   1  10
BRANCH   1  12
ATOM     12  C   UNL     1      32.995  -7.599 -21.122  0.00  0.00    +0.006 C 
ATOM     13  C   UNL     1      32.221  -8.338 -20.034  0.00  0.00    +0.000 C 
ENDBRANCH   1  12
BRANCH   1  14
ATOM     14  C   UNL     1      31.422  -8.983 -22.583  0.00  0.00    +0.093 C 
BRANCH  14  16
ATOM     15  O   UNL     1      30.518 -11.315 -21.152  0.00  0.00    -0.275 OA
ATOM     16  N   UNL     1      31.902 -10.331 -22.736  0.00  0.00    -0.304 N 
ATOM     17  C   UNL     1      31.403 -11.398 -21.999  0.00  0.00    +0.223 C 
ATOM     18  H   UNL     1      32.616 -10.505 -23.392  0.00  0.00    +0.149 HD
BRANCH  17  19
ATOM     19  C   UNL     1      32.068 -12.710 -22.384  0.00  0.00    +0.088 C 
BRANCH  19  20
ATOM     20  C   UNL     1      33.194 -12.550 -23.401  0.00  0.00    +0.041 C 
BRANCH  20  21
ATOM     21  C   UNL     1      33.706 -13.887 -23.925  0.00  0.00    +0.138 C 
BRANCH  21  22
ATOM     22  O   UNL     1      34.802 -14.302 -23.120  0.00  0.00    -0.382 OA
ATOM     23  H   UNL     1      34.711 -13.926 -22.231  0.00  0.00    +0.210 HD
ENDBRANCH  21  22
ENDBRANCH  20  21
ENDBRANCH  19  20
ENDBRANCH  17  19
ENDBRANCH  14  16
ENDBRANCH   1  14
TORSDOF 10
ENDMDL
MODEL 8
REMARK VINA RESULT:      -7.0      2.375      7.376
REMARK  Name = 27453
REMARK  10 active torsions:
REMARK  status: ('A' for Active; 'I' for Inactive)
REMARK    1  A    between atoms: C_1  and  C_2
REMARK    2  A    between atoms: C_1  and  C_10
REMARK    3  A    between atoms: C_1  and  C_12
REMARK    4  A    between atoms: C_1  and  C_14
REMARK    5  A    between atoms: C_5  and  O_8
REMARK    6  A    between atoms: C_14  and  N_16
REMARK    7  A    between atoms: C_17  and  C_19
REMARK    8  A    between atoms: C_19  and  C_20
REMARK    9  A    between atoms: C_20  and  C_21
REMARK   10  A    between atoms: C_21  and  O_22
REMARK                            x       y       z     vdW  Elec       q    Type
REMARK                         _______ _______ _______ _____ _____    ______ ____
ROOT
ATOM      1  C   UNL     1      34.330 -16.947 -21.610  0.00  0.00    +0.037 C 
ENDROOT
BRANCH   1   2
ATOM      2  C   UNL     1      34.721 -18.355 -21.091  0.00  0.00    -0.018 C 
ATOM      3  C   UNL     1      33.728 -19.263 -20.720  0.00  0.00    +0.033 C 
ATOM      4  C   UNL     1      36.065 -18.715 -20.994  0.00  0.00    -0.004 C 
ATOM      5  C   UNL     1      34.079 -20.529 -20.254  0.00  0.00    +0.138 C 
ATOM      6  C   UNL     1      36.417 -19.981 -20.527  0.00  0.00    +0.003 C 
ATOM      7  C   UNL     1      35.424 -20.888 -20.157  0.00  0.00    +0.037 C 
BRANCH   5   8
ATOM      8  O   UNL     1      33.111 -21.415 -19.893  0.00  0.00    -0.471 OA
ATOM      9  C   UNL     1      33.386 -22.258 -18.776  0.00  0.00    +0.252 C 
ENDBRANCH   5   8
ENDBRANCH   1   2
BRANCH   1  10
ATOM     10  C   UNL     1      32.765 -16.849 -21.677  0.00  0.00    +0.006 C 
ATOM     11  C   UNL     1      32.110 -15.989 -20.600  0.00  0.00    +0.000 C 
ENDBRANCH   1  10
BRANCH   1  12
ATOM     12  C   UNL     1      34.812 -15.861 -20.583  0.00  0.00    +0.006 C 
ATOM     13  C   UNL     1      34.799 -14.421 -21.090  0.00  0.00    +0.000 C 
ENDBRANCH   1  12
BRANCH   1  14
ATOM     14  C   UNL     1      34.942 -16.635 -23.013  0.00  0.00    +0.093 C 
BRANCH  14  16
ATOM     15  O   UNL     1      34.988 -16.806 -25.889  0.00  0.00    -0.275 OA
ATOM     16  N   UNL     1      34.039 -15.993 -23.931  0.00  0.00    -0.304 N 
ATOM     17  C   UNL     1      34.139 -16.134 -25.310  0.00  0.00    +0.223 C 
ATOM     18  H   UNL     1      33.319 -15.429 -23.567  0.00  0.00    +0.149 HD
BRANCH  17  19
ATOM     19  C   UNL     1      33.041 -15.372 -26.035  0.00  0.00    +0.088 C 
BRANCH  19  20
ATOM     20  C   UNL     1      32.898 -13.923 -25.582  0.00  0.00    +0.041 C 
BRANCH  20  21
ATOM     21  C   UNL     1      33.404 -12.930 -26.620  0.00  0.00    +0.138 C 
BRANCH  21  22
ATOM     22  O   UNL     1      33.836 -13.650 -27.768  0.00  0.00    -0.382 OA
ATOM     23  H   UNL     1      34.794 -13.794 -27.717  0.00  0.00    +0.210 HD
ENDBRANCH  21  22
ENDBRANCH  20  21
ENDBRANCH  19  20
ENDBRANCH  17  19
ENDBRANCH  14  16
ENDBRANCH   1  14
TORSDOF 10
ENDMDL
MODEL 9
REMARK VINA RESULT:      -6.9      5.448      9.497
REMARK  Name = 27453
REMARK  10 active torsions:
REMARK  status: ('A' for Active; 'I' for Inactive)
REMARK    1  A    between atoms: C_1  and  C_2
REMARK    2  A    between atoms: C_1  and  C_10
REMARK    3  A    between atoms: C_1  and  C_12
REMARK    4  A    between atoms: C_1  and  C_14
REMARK    5  A    between atoms: C_5  and  O_8
REMARK    6  A    between atoms: C_14  and  N_16
REMARK    7  A    between atoms: C_17  and  C_19
REMARK    8  A    between atoms: C_19  and  C_20
REMARK    9  A    between atoms: C_20  and  C_21
REMARK   10  A    between atoms: C_21  and  O_22
REMARK                            x       y       z     vdW  Elec       q    Type
REMARK                         _______ _______ _______ _____ _____    ______ ____
ROOT
ATOM      1  C   UNL     1      34.895 -24.186 -14.439  0.00  0.00    +0.037 C 
ENDROOT
BRANCH   1   2
ATOM      2  C   UNL     1      33.348 -24.174 -14.557  0.00  0.00    -0.018 C 
ATOM      3  C   UNL     1      32.732 -23.450 -15.578  0.00  0.00    +0.033 C 
ATOM      4  C   UNL     1      32.573 -24.886 -13.642  0.00  0.00    -0.004 C 
ATOM      5  C   UNL     1      31.341 -23.439 -15.684  0.00  0.00    +0.138 C 
ATOM      6  C   UNL     1      31.182 -24.874 -13.747  0.00  0.00    +0.003 C 
ATOM      7  C   UNL     1      30.567 -24.151 -14.768  0.00  0.00    +0.037 C 
BRANCH   5   8
ATOM      8  O   UNL     1      30.740 -22.734 -16.681  0.00  0.00    -0.471 OA
ATOM      9  C   UNL     1      29.314 -22.701 -16.683  0.00  0.00    +0.252 C 
ENDBRANCH   5   8
ENDBRANCH   1   2
BRANCH   1  10
ATOM     10  C   UNL     1      35.287 -24.584 -12.972  0.00  0.00    +0.006 C 
ATOM     11  C   UNL     1      35.948 -23.485 -12.144  0.00  0.00    +0.000 C 
ENDBRANCH   1  10
BRANCH   1  12
ATOM     12  C   UNL     1      35.481 -25.294 -15.385  0.00  0.00    +0.006 C 
ATOM     13  C   UNL     1      36.711 -26.028 -14.858  0.00  0.00    +0.000 C 
ENDBRANCH   1  12
BRANCH   1  14
ATOM     14  C   UNL     1      35.533 -22.808 -14.805  0.00  0.00    +0.093 C 
BRANCH  14  16
ATOM     15  O   UNL     1      37.694 -21.949 -16.506  0.00  0.00    -0.275 OA
ATOM     16  N   UNL     1      35.449 -22.460 -16.199  0.00  0.00    -0.304 N 
ATOM     17  C   UNL     1      36.551 -22.054 -16.942  0.00  0.00    +0.223 C 
ATOM     18  H   UNL     1      34.573 -22.511 -16.645  0.00  0.00    +0.149 HD
BRANCH  17  19
ATOM     19  C   UNL     1      36.182 -21.778 -18.391  0.00  0.00    +0.088 C 
BRANCH  19  20
ATOM     20  C   UNL     1      34.901 -22.474 -18.841  0.00  0.00    +0.041 C 
BRANCH  20  21
ATOM     21  C   UNL     1      33.882 -21.506 -19.429  0.00  0.00    +0.138 C 
BRANCH  21  22
ATOM     22  O   UNL     1      32.595 -21.836 -18.922  0.00  0.00    -0.382 OA
ATOM     23  H   UNL     1      32.112 -22.358 -19.582  0.00  0.00    +0.210 HD
ENDBRANCH  21  22
ENDBRANCH  20  21
ENDBRANCH  19  20
ENDBRANCH  17  19
ENDBRANCH  14  16
ENDBRANCH   1  14
TORSDOF 10
ENDMDL
