MODEL 1
REMARK VINA RESULT:      -4.6      0.000      0.000
REMARK  Name = 6971251
REMARK  3 active torsions:
REMARK  status: ('A' for Active; 'I' for Inactive)
REMARK    1  A    between atoms: CA_1  and  N_2
REMARK    2  A    between atoms: CA_1  and  C_8
REMARK    3  A    between atoms: CA_1  and  C_9
REMARK                            x       y       z     vdW  Elec       q    Type
REMARK                         _______ _______ _______ _____ _____    ______ ____
ROOT
ATOM      1  CA  UNL     1      38.852 -25.521 -14.500  0.00  0.00    +0.040 C 
ENDROOT
BRANCH   1   2
ATOM      2  N   UNL     1      37.941 -24.628 -15.284  0.00  0.00    +0.389 N 
ATOM      3  H1  UNL     1      38.197 -23.654 -15.120  0.00  0.00    -0.088 HD
ATOM      4  H2  UNL     1      36.978 -24.781 -14.988  0.00  0.00    -0.088 HD
ATOM      5  H3  UNL     1      38.030 -24.840 -16.277  0.00  0.00    -0.088 HD
ENDBRANCH   1   2
BRANCH   1   8
ATOM      6  O   UNL     1      41.047 -24.649 -14.219  0.00  0.00    -0.248 OA
ATOM      7  OXT UNL     1      40.663 -26.148 -15.896  0.00  0.00    -0.248 OA
ATOM      8  C   UNL     1      40.330 -25.421 -14.917  0.00  0.00    +0.345 C 
ENDBRANCH   1   8
BRANCH   1   9
ATOM      9  C   UNL     1      38.577 -25.315 -13.006  0.00  0.00    -0.011 C 
ATOM     10  C   UNL     1      37.338 -26.037 -12.486  0.00  0.00    -0.002 C 
ENDBRANCH   1   9
TORSDOF 3
ENDMDL
MODEL 2
REMARK VINA RESULT:      -4.5     10.569     11.108
REMARK  Name = 6971251
REMARK  3 active torsions:
REMARK  status: ('A' for Active; 'I' for Inactive)
REMARK    1  A    between atoms: CA_1  and  N_2
REMARK    2  A    between atoms: CA_1  and  C_8
REMARK    3  A    between atoms: CA_1  and  C_9
REMARK                            x       y       z     vdW  Elec       q    Type
REMARK                         _______ _______ _______ _____ _____    ______ ____
ROOT
ATOM      1  CA  UNL     1      29.129 -23.084 -16.132  0.00  0.00    +0.040 C 
ENDROOT
BRANCH   1   2
ATOM      2  N   UNL     1      30.456 -22.756 -16.743  0.00  0.00    +0.389 N 
ATOM      3  H1  UNL     1      31.127 -23.489 -16.513  0.00  0.00    -0.088 HD
ATOM      4  H2  UNL     1      30.788 -21.864 -16.377  0.00  0.00    -0.088 HD
ATOM      5  H3  UNL     1      30.357 -22.692 -17.756  0.00  0.00    -0.088 HD
ENDBRANCH   1   2
BRANCH   1   8
ATOM      6  O   UNL     1      27.516 -21.601 -17.054  0.00  0.00    -0.248 OA
ATOM      7  OXT UNL     1      27.520 -23.780 -17.728  0.00  0.00    -0.248 OA
ATOM      8  C   UNL     1      27.932 -22.793 -17.054  0.00  0.00    +0.345 C 
ENDBRANCH   1   8
BRANCH   1   9
ATOM      9  C   UNL     1      29.189 -24.508 -15.564  0.00  0.00    -0.011 C 
ATOM     10  C   UNL     1      30.226 -24.706 -14.464  0.00  0.00    -0.002 C 
ENDBRANCH   1   9
TORSDOF 3
ENDMDL
MODEL 3
REMARK VINA RESULT:      -4.4     10.216     10.801
REMARK  Name = 6971251
REMARK  3 active torsions:
REMARK  status: ('A' for Active; 'I' for Inactive)
REMARK    1  A    between atoms: CA_1  and  N_2
REMARK    2  A    between atoms: CA_1  and  C_8
REMARK    3  A    between atoms: CA_1  and  C_9
REMARK                            x       y       z     vdW  Elec       q    Type
REMARK                         _______ _______ _______ _____ _____    ______ ____
ROOT
ATOM      1  CA  UNL     1      29.411 -23.781 -15.850  0.00  0.00    +0.040 C 
ENDROOT
BRANCH   1   2
ATOM      2  N   UNL     1      28.860 -24.907 -15.031  0.00  0.00    +0.389 N 
ATOM      3  H1  UNL     1      28.487 -25.626 -15.650  0.00  0.00    -0.088 HD
ATOM      4  H2  UNL     1      28.116 -24.557 -14.428  0.00  0.00    -0.088 HD
ATOM      5  H3  UNL     1      29.604 -25.304 -14.458  0.00  0.00    -0.088 HD
ENDBRANCH   1   2
BRANCH   1   8
ATOM      6  O   UNL     1      27.733 -24.119 -17.502  0.00  0.00    -0.248 OA
ATOM      7  OXT UNL     1      28.421 -21.991 -17.049  0.00  0.00    -0.248 OA
ATOM      8  C   UNL     1      28.432 -23.248 -16.911  0.00  0.00    +0.345 C 
ENDBRANCH   1   8
BRANCH   1   9
ATOM      9  C   UNL     1      29.993 -22.723 -14.904  0.00  0.00    -0.011 C 
ATOM     10  C   UNL     1      31.489 -22.861 -14.645  0.00  0.00    -0.002 C 
ENDBRANCH   1   9
TORSDOF 3
ENDMDL
MODEL 4
REMARK VINA RESULT:      -4.4     10.363     11.020
REMARK  Name = 6971251
REMARK  3 active torsions:
REMARK  status: ('A' for Active; 'I' for Inactive)
REMARK    1  A    between atoms: CA_1  and  N_2
REMARK    2  A    between atoms: CA_1  and  C_8
REMARK    3  A    between atoms: CA_1  and  C_9
REMARK                            x       y       z     vdW  Elec       q    Type
REMARK                         _______ _______ _______ _____ _____    ______ ____
ROOT
ATOM      1  CA  UNL     1      41.575 -14.492 -15.483  0.00  0.00    +0.040 C 
ENDROOT
BRANCH   1   2
ATOM      2  N   UNL     1      40.422 -13.950 -14.696  0.00  0.00    +0.389 N 
ATOM      3  H1  UNL     1      39.559 -14.396 -15.008  0.00  0.00    -0.088 HD
ATOM      4  H2  UNL     1      40.355 -12.943 -14.840  0.00  0.00    -0.088 HD
ATOM      5  H3  UNL     1      40.566 -14.144 -13.706  0.00  0.00    -0.088 HD
ENDBRANCH   1   2
BRANCH   1   8
ATOM      6  O   UNL     1      42.600 -16.585 -15.956  0.00  0.00    -0.248 OA
ATOM      7  OXT UNL     1      40.339 -16.507 -15.662  0.00  0.00    -0.248 OA
ATOM      8  C   UNL     1      41.498 -16.008 -15.735  0.00  0.00    +0.345 C 
ENDBRANCH   1   8
BRANCH   1   9
ATOM      9  C   UNL     1      41.764 -13.628 -16.736  0.00  0.00    -0.011 C 
ATOM     10  C   UNL     1      41.181 -14.228 -18.011  0.00  0.00    -0.002 C 
ENDBRANCH   1   9
TORSDOF 3
ENDMDL
MODEL 5
REMARK VINA RESULT:      -4.3     10.752     11.517
REMARK  Name = 6971251
REMARK  3 active torsions:
REMARK  status: ('A' for Active; 'I' for Inactive)
REMARK    1  A    between atoms: CA_1  and  N_2
REMARK    2  A    between atoms: CA_1  and  C_8
REMARK    3  A    between atoms: CA_1  and  C_9
REMARK                            x       y       z     vdW  Elec       q    Type
REMARK                         _______ _______ _______ _____ _____    ______ ____
ROOT
ATOM      1  CA  UNL     1      41.782 -14.355 -16.249  0.00  0.00    +0.040 C 
ENDROOT
BRANCH   1   2
ATOM      2  N   UNL     1      42.060 -12.934 -15.867  0.00  0.00    +0.389 N 
ATOM      3  H1  UNL     1      41.275 -12.348 -16.149  0.00  0.00    -0.088 HD
ATOM      4  H2  UNL     1      42.908 -12.616 -16.335  0.00  0.00    -0.088 HD
ATOM      5  H3  UNL     1      42.184 -12.873 -14.857  0.00  0.00    -0.088 HD
ENDBRANCH   1   2
BRANCH   1   8
ATOM      6  O   UNL     1      40.543 -16.270 -15.573  0.00  0.00    -0.248 OA
ATOM      7  OXT UNL     1      40.740 -14.517 -14.126  0.00  0.00    -0.248 OA
ATOM      8  C   UNL     1      40.930 -15.120 -15.221  0.00  0.00    +0.345 C 
ENDBRANCH   1   8
BRANCH   1   9
ATOM      9  C   UNL     1      41.254 -14.383 -17.689  0.00  0.00    -0.011 C 
ATOM     10  C   UNL     1      41.956 -15.384 -18.600  0.00  0.00    -0.002 C 
ENDBRANCH   1   9
TORSDOF 3
ENDMDL
MODEL 6
REMARK VINA RESULT:      -4.3      2.918      3.486
REMARK  Name = 6971251
REMARK  3 active torsions:
REMARK  status: ('A' for Active; 'I' for Inactive)
REMARK    1  A    between atoms: CA_1  and  N_2
REMARK    2  A    between atoms: CA_1  and  C_8
REMARK    3  A    between atoms: CA_1  and  C_9
REMARK                            x       y       z     vdW  Elec       q    Type
REMARK                         _______ _______ _______ _____ _____    ______ ____
ROOT
ATOM      1  CA  UNL     1      37.673 -26.488 -14.207  0.00  0.00    +0.040 C 
ENDROOT
BRANCH   1   2
ATOM      2  N   UNL     1      36.969 -26.526 -12.886  0.00  0.00    +0.389 N 
ATOM      3  H1  UNL     1      37.148 -27.421 -12.431  0.00  0.00    -0.088 HD
ATOM      4  H2  UNL     1      35.966 -26.413 -13.032  0.00  0.00    -0.088 HD
ATOM      5  H3  UNL     1      37.314 -25.770 -12.295  0.00  0.00    -0.088 HD
ENDBRANCH   1   2
BRANCH   1   8
ATOM      6  O   UNL     1      36.006 -25.386 -15.497  0.00  0.00    -0.248 OA
ATOM      7  OXT UNL     1      36.794 -27.406 -16.207  0.00  0.00    -0.248 OA
ATOM      8  C   UNL     1      36.724 -26.423 -15.416  0.00  0.00    +0.345 C 
ENDBRANCH   1   8
BRANCH   1   9
ATOM      9  C   UNL     1      38.749 -25.396 -14.158  0.00  0.00    -0.011 C 
ATOM     10  C   UNL     1      40.121 -25.838 -14.655  0.00  0.00    -0.002 C 
ENDBRANCH   1   9
TORSDOF 3
ENDMDL
MODEL 7
REMARK VINA RESULT:      -4.3      9.967     10.234
REMARK  Name = 6971251
REMARK  3 active torsions:
REMARK  status: ('A' for Active; 'I' for Inactive)
REMARK    1  A    between atoms: CA_1  and  N_2
REMARK    2  A    between atoms: CA_1  and  C_8
REMARK    3  A    between atoms: CA_1  and  C_9
REMARK                            x       y       z     vdW  Elec       q    Type
REMARK                         _______ _______ _______ _____ _____    ______ ____
ROOT
ATOM      1  CA  UNL     1      34.716 -19.606 -21.657  0.00  0.00    +0.040 C 
ENDROOT
BRANCH   1   2
ATOM      2  N   UNL     1      34.538 -19.140 -23.069  0.00  0.00    +0.389 N 
ATOM      3  H1  UNL     1      34.172 -18.188 -23.068  0.00  0.00    -0.088 HD
ATOM      4  H2  UNL     1      33.884 -19.756 -23.550  0.00  0.00    -0.088 HD
ATOM      5  H3  UNL     1      35.438 -19.157 -23.548  0.00  0.00    -0.088 HD
ENDBRANCH   1   2
BRANCH   1   8
ATOM      6  O   UNL     1      35.424 -17.541 -20.712  0.00  0.00    -0.248 OA
ATOM      7  OXT UNL     1      36.704 -19.400 -20.381  0.00  0.00    -0.248 OA
ATOM      8  C   UNL     1      35.716 -18.763 -20.846  0.00  0.00    +0.345 C 
ENDBRANCH   1   8
BRANCH   1   9
ATOM      9  C   UNL     1      33.333 -19.777 -21.017  0.00  0.00    -0.011 C 
ATOM     10  C   UNL     1      33.277 -20.815 -19.902  0.00  0.00    -0.002 C 
ENDBRANCH   1   9
TORSDOF 3
ENDMDL
MODEL 8
REMARK VINA RESULT:      -4.3     10.822     11.490
REMARK  Name = 6971251
REMARK  3 active torsions:
REMARK  status: ('A' for Active; 'I' for Inactive)
REMARK    1  A    between atoms: CA_1  and  N_2
REMARK    2  A    between atoms: CA_1  and  C_8
REMARK    3  A    between atoms: CA_1  and  C_9
REMARK                            x       y       z     vdW  Elec       q    Type
REMARK                         _______ _______ _______ _____ _____    ______ ____
ROOT
ATOM      1  CA  UNL     1      41.257 -14.498 -16.752  0.00  0.00    +0.040 C 
ENDROOT
BRANCH   1   2
ATOM      2  N   UNL     1      41.301 -14.514 -18.248  0.00  0.00    +0.389 N 
ATOM      3  H1  UNL     1      40.881 -15.378 -18.591  0.00  0.00    -0.088 HD
ATOM      4  H2  UNL     1      42.269 -14.458 -18.561  0.00  0.00    -0.088 HD
ATOM      5  H3  UNL     1      40.779 -13.716 -18.611  0.00  0.00    -0.088 HD
ENDBRANCH   1   2
BRANCH   1   8
ATOM      6  O   UNL     1      42.714 -16.250 -16.070  0.00  0.00    -0.248 OA
ATOM      7  OXT UNL     1      40.479 -16.456 -15.664  0.00  0.00    -0.248 OA
ATOM      8  C   UNL     1      41.509 -15.873 -16.108  0.00  0.00    +0.345 C 
ENDBRANCH   1   8
BRANCH   1   9
ATOM      9  C   UNL     1      42.156 -13.363 -16.245  0.00  0.00    -0.011 C 
ATOM     10  C   UNL     1      42.410 -12.256 -17.263  0.00  0.00    -0.002 C 
ENDBRANCH   1   9
TORSDOF 3
ENDMDL
MODEL 9
REMARK VINA RESULT:      -4.3      1.616      2.079
REMARK  Name = 6971251
REMARK  3 active torsions:
REMARK  status: ('A' for Active; 'I' for Inactive)
REMARK    1  A    between atoms: CA_1  and  N_2
REMARK    2  A    between atoms: CA_1  and  C_8
REMARK    3  A    between atoms: CA_1  and  C_9
REMARK                            x       y       z     vdW  Elec       q    Type
REMARK                         _______ _______ _______ _____ _____    ______ ____
ROOT
ATOM      1  CA  UNL     1      38.893 -25.169 -13.808  0.00  0.00    +0.040 C 
ENDROOT
BRANCH   1   2
ATOM      2  N   UNL     1      38.357 -26.069 -12.738  0.00  0.00    +0.389 N 
ATOM      3  H1  UNL     1      38.409 -27.038 -13.052  0.00  0.00    -0.088 HD
ATOM      4  H2  UNL     1      37.387 -25.826 -12.544  0.00  0.00    -0.088 HD
ATOM      5  H3  UNL     1      38.913 -25.956 -11.891  0.00  0.00    -0.088 HD
ENDBRANCH   1   2
BRANCH   1   8
ATOM      6  O   UNL     1      40.343 -26.864 -14.633  0.00  0.00    -0.248 OA
ATOM      7  OXT UNL     1      41.085 -24.708 -14.584  0.00  0.00    -0.248 OA
ATOM      8  C   UNL     1      40.242 -25.629 -14.389  0.00  0.00    +0.345 C 
ENDBRANCH   1   8
BRANCH   1   9
ATOM      9  C   UNL     1      37.786 -24.918 -14.840  0.00  0.00    -0.011 C 
ATOM     10  C   UNL     1      36.852 -26.102 -15.065  0.00  0.00    -0.002 C 
ENDBRANCH   1   9
TORSDOF 3
ENDMDL
