MODEL 1
REMARK VINA RESULT:     -10.1      0.000      0.000
REMARK  Name = 5329103
REMARK  7 active torsions:
REMARK  status: ('A' for Active; 'I' for Inactive)
REMARK    1  A    between atoms: C_2  and  C_24
REMARK    2  A    between atoms: C_4  and  C_13
REMARK    3  A    between atoms: N_23  and  C_26
REMARK    4  A    between atoms: C_26  and  C_27
REMARK    5  A    between atoms: C_27  and  N_28
REMARK    6  A    between atoms: N_28  and  C_30
REMARK    7  A    between atoms: N_28  and  C_32
REMARK                            x       y       z     vdW  Elec       q    Type
REMARK                         _______ _______ _______ _____ _____    ______ ____
ROOT
ATOM      1  N   UNL     1      35.986 -19.186 -20.739  0.00  0.00    -0.357 N 
ATOM      2  C   UNL     1      34.775 -20.909 -20.036  0.00  0.00    +0.062 A 
ATOM      3  C   UNL     1      33.898 -19.905 -20.512  0.00  0.00    -0.001 A 
ATOM      4  C   UNL     1      34.679 -18.877 -20.929  0.00  0.00    +0.053 A 
ATOM      5  C   UNL     1      36.060 -20.438 -20.187  0.00  0.00    +0.038 A 
ATOM      6  C   UNL     1      32.421 -19.975 -20.545  0.00  0.00    +0.033 C 
ATOM      7  C   UNL     1      37.365 -21.049 -19.865  0.00  0.00    +0.050 C 
ATOM      8  H   UNL     1      36.752 -18.608 -20.960  0.00  0.00    +0.166 HD
ENDROOT
BRANCH   4  13
ATOM      9 CL   UNL     1      33.208 -12.201 -23.485  0.00  0.00    -0.082 Cl
ATOM     10  O   UNL     1      34.791 -19.578 -23.673  0.00  0.00    -0.270 OA
ATOM     11  N   UNL     1      34.372 -17.721 -25.072  0.00  0.00    -0.280 N 
ATOM     12  C   UNL     1      34.323 -17.349 -22.814  0.00  0.00    +0.056 C 
ATOM     13  C   UNL     1      34.394 -17.594 -21.504  0.00  0.00    +0.021 C 
ATOM     14  C   UNL     1      34.041 -16.086 -23.488  0.00  0.00    +0.019 C 
ATOM     15  C   UNL     1      34.084 -16.368 -24.856  0.00  0.00    +0.051 C 
ATOM     16  C   UNL     1      34.535 -18.403 -23.861  0.00  0.00    +0.250 C 
ATOM     17  C   UNL     1      33.774 -14.806 -23.039  0.00  0.00    +0.013 C 
ATOM     18  C   UNL     1      33.863 -15.401 -25.818  0.00  0.00    +0.016 C 
ATOM     19  C   UNL     1      33.546 -13.812 -23.996  0.00  0.00    +0.058 C 
ATOM     20  C   UNL     1      33.591 -14.106 -25.372  0.00  0.00    +0.013 C 
ATOM     21  H   UNL     1      34.450 -18.138 -25.961  0.00  0.00    +0.155 HD
ENDBRANCH   4  13
BRANCH   2  24
ATOM     22  O   UNL     1      34.736 -23.266 -20.052  0.00  0.00    -0.270 OA
ATOM     23  N   UNL     1      33.768 -22.197 -18.252  0.00  0.00    -0.303 N 
ATOM     24  C   UNL     1      34.436 -22.193 -19.489  0.00  0.00    +0.247 C 
ATOM     25  H   UNL     1      33.549 -21.332 -17.837  0.00  0.00    +0.150 HD
BRANCH  23  26
ATOM     26  C   UNL     1      33.387 -23.407 -17.559  0.00  0.00    +0.067 C 
BRANCH  26  27
ATOM     27  C   UNL     1      33.707 -23.315 -16.075  0.00  0.00    -0.056 C 
BRANCH  27  28
ATOM     28  N   UNL     1      35.077 -23.745 -15.825  0.00  0.00    +0.388 N 
ATOM     29  H   UNL     1      35.457 -24.114 -16.695  0.00  0.00    -0.080 HD
BRANCH  28  30
ATOM     30  C   UNL     1      35.109 -24.805 -14.815  0.00  0.00    -0.077 C 
ATOM     31  C   UNL     1      36.254 -25.771 -15.069  0.00  0.00    -0.025 C 
ENDBRANCH  28  30
BRANCH  28  32
ATOM     32  C   UNL     1      35.904 -22.614 -15.398  0.00  0.00    -0.077 C 
ATOM     33  C   UNL     1      36.961 -22.285 -16.437  0.00  0.00    -0.025 C 
ENDBRANCH  28  32
ENDBRANCH  27  28
ENDBRANCH  26  27
ENDBRANCH  23  26
ENDBRANCH   2  24
TORSDOF 7
ENDMDL
MODEL 2
REMARK VINA RESULT:      -9.9      1.969      2.923
REMARK  Name = 5329103
REMARK  7 active torsions:
REMARK  status: ('A' for Active; 'I' for Inactive)
REMARK    1  A    between atoms: C_2  and  C_24
REMARK    2  A    between atoms: C_4  and  C_13
REMARK    3  A    between atoms: N_23  and  C_26
REMARK    4  A    between atoms: C_26  and  C_27
REMARK    5  A    between atoms: C_27  and  N_28
REMARK    6  A    between atoms: N_28  and  C_30
REMARK    7  A    between atoms: N_28  and  C_32
REMARK                            x       y       z     vdW  Elec       q    Type
REMARK                         _______ _______ _______ _____ _____    ______ ____
ROOT
ATOM      1  N   UNL     1      33.654 -19.466 -21.235  0.00  0.00    -0.357 N 
ATOM      2  C   UNL     1      35.533 -20.323 -20.420  0.00  0.00    +0.062 A 
ATOM      3  C   UNL     1      35.866 -19.318 -21.360  0.00  0.00    -0.001 A 
ATOM      4  C   UNL     1      34.692 -18.826 -21.829  0.00  0.00    +0.053 A 
ATOM      5  C   UNL     1      34.159 -20.394 -20.362  0.00  0.00    +0.038 A 
ATOM      6  C   UNL     1      37.230 -18.896 -21.747  0.00  0.00    +0.033 C 
ATOM      7  C   UNL     1      33.262 -21.252 -19.563  0.00  0.00    +0.050 C 
ATOM      8  H   UNL     1      32.699 -19.293 -21.401  0.00  0.00    +0.166 HD
ENDROOT
BRANCH   4  13
ATOM      9 CL   UNL     1      32.960 -13.931 -26.959  0.00  0.00    -0.082 Cl
ATOM     10  O   UNL     1      34.965 -16.545 -20.168  0.00  0.00    -0.270 OA
ATOM     11  N   UNL     1      34.505 -14.546 -21.339  0.00  0.00    -0.280 N 
ATOM     12  C   UNL     1      34.336 -16.500 -22.519  0.00  0.00    +0.056 C 
ATOM     13  C   UNL     1      34.363 -17.808 -22.784  0.00  0.00    +0.021 C 
ATOM     14  C   UNL     1      34.015 -15.396 -23.419  0.00  0.00    +0.019 C 
ATOM     15  C   UNL     1      34.132 -14.234 -22.652  0.00  0.00    +0.051 C 
ATOM     16  C   UNL     1      34.653 -15.926 -21.169  0.00  0.00    +0.250 C 
ATOM     17  C   UNL     1      33.654 -15.329 -24.751  0.00  0.00    +0.013 C 
ATOM     18  C   UNL     1      33.899 -12.977 -23.174  0.00  0.00    +0.016 C 
ATOM     19  C   UNL     1      33.413 -14.066 -25.301  0.00  0.00    +0.058 C 
ATOM     20  C   UNL     1      33.534 -12.901 -24.520  0.00  0.00    +0.013 C 
ATOM     21  H   UNL     1      34.644 -13.879 -20.628  0.00  0.00    +0.155 HD
ENDBRANCH   4  13
BRANCH   2  24
ATOM     22  O   UNL     1      37.274 -21.893 -20.170  0.00  0.00    -0.270 OA
ATOM     23  N   UNL     1      36.326 -21.038 -18.249  0.00  0.00    -0.303 N 
ATOM     24  C   UNL     1      36.425 -21.141 -19.647  0.00  0.00    +0.247 C 
ATOM     25  H   UNL     1      35.645 -20.435 -17.872  0.00  0.00    +0.150 HD
BRANCH  23  26
ATOM     26  C   UNL     1      37.173 -21.772 -17.336  0.00  0.00    +0.067 C 
BRANCH  26  27
ATOM     27  C   UNL     1      36.450 -22.065 -16.030  0.00  0.00    -0.056 C 
BRANCH  27  28
ATOM     28  N   UNL     1      36.138 -23.485 -15.932  0.00  0.00    +0.388 N 
ATOM     29  H   UNL     1      36.243 -23.898 -16.858  0.00  0.00    -0.080 HD
BRANCH  28  30
ATOM     30  C   UNL     1      34.755 -23.681 -15.490  0.00  0.00    -0.077 C 
ATOM     31  C   UNL     1      33.771 -23.338 -16.595  0.00  0.00    -0.025 C 
ENDBRANCH  28  30
BRANCH  28  32
ATOM     32  C   UNL     1      37.062 -24.156 -15.016  0.00  0.00    -0.077 C 
ATOM     33  C   UNL     1      36.782 -25.647 -14.947  0.00  0.00    -0.025 C 
ENDBRANCH  28  32
ENDBRANCH  27  28
ENDBRANCH  26  27
ENDBRANCH  23  26
ENDBRANCH   2  24
TORSDOF 7
ENDMDL
MODEL 3
REMARK VINA RESULT:      -9.9      3.437      9.882
REMARK  Name = 5329103
REMARK  7 active torsions:
REMARK  status: ('A' for Active; 'I' for Inactive)
REMARK    1  A    between atoms: C_2  and  C_24
REMARK    2  A    between atoms: C_4  and  C_13
REMARK    3  A    between atoms: N_23  and  C_26
REMARK    4  A    between atoms: C_26  and  C_27
REMARK    5  A    between atoms: C_27  and  N_28
REMARK    6  A    between atoms: N_28  and  C_30
REMARK    7  A    between atoms: N_28  and  C_32
REMARK                            x       y       z     vdW  Elec       q    Type
REMARK                         _______ _______ _______ _____ _____    ______ ____
ROOT
ATOM      1  N   UNL     1      34.967 -19.428 -23.095  0.00  0.00    -0.357 N 
ATOM      2  C   UNL     1      34.509 -17.278 -23.406  0.00  0.00    +0.062 A 
ATOM      3  C   UNL     1      34.859 -17.473 -22.048  0.00  0.00    -0.001 A 
ATOM      4  C   UNL     1      35.130 -18.795 -21.906  0.00  0.00    +0.053 A 
ATOM      5  C   UNL     1      34.583 -18.503 -24.030  0.00  0.00    +0.038 A 
ATOM      6  C   UNL     1      34.916 -16.432 -20.999  0.00  0.00    +0.033 C 
ATOM      7  C   UNL     1      34.330 -18.899 -25.430  0.00  0.00    +0.050 C 
ATOM      8  H   UNL     1      35.103 -20.390 -23.258  0.00  0.00    +0.166 HD
ENDROOT
BRANCH   4  13
ATOM      9 CL   UNL     1      37.551 -22.747 -16.268  0.00  0.00    -0.082 Cl
ATOM     10  O   UNL     1      32.679 -20.127 -21.402  0.00  0.00    -0.270 OA
ATOM     11  N   UNL     1      32.851 -21.626 -19.585  0.00  0.00    -0.280 N 
ATOM     12  C   UNL     1      34.737 -20.454 -20.144  0.00  0.00    +0.056 C 
ATOM     13  C   UNL     1      35.534 -19.603 -20.793  0.00  0.00    +0.021 C 
ATOM     14  C   UNL     1      35.056 -21.313 -19.008  0.00  0.00    +0.019 C 
ATOM     15  C   UNL     1      33.876 -22.001 -18.709  0.00  0.00    +0.051 C 
ATOM     16  C   UNL     1      33.296 -20.671 -20.506  0.00  0.00    +0.250 C 
ATOM     17  C   UNL     1      36.204 -21.525 -18.268  0.00  0.00    +0.013 C 
ATOM     18  C   UNL     1      33.796 -22.916 -17.677  0.00  0.00    +0.016 C 
ATOM     19  C   UNL     1      36.144 -22.448 -17.218  0.00  0.00    +0.058 C 
ATOM     20  C   UNL     1      34.952 -23.137 -16.926  0.00  0.00    +0.013 C 
ATOM     21  H   UNL     1      31.935 -21.986 -19.555  0.00  0.00    +0.155 HD
ENDBRANCH   4  13
BRANCH   2  24
ATOM     22  O   UNL     1      34.488 -15.776 -25.223  0.00  0.00    -0.270 OA
ATOM     23  N   UNL     1      33.323 -15.171 -23.327  0.00  0.00    -0.303 N 
ATOM     24  C   UNL     1      34.138 -16.052 -24.056  0.00  0.00    +0.247 C 
ATOM     25  H   UNL     1      33.066 -15.422 -22.410  0.00  0.00    +0.150 HD
BRANCH  23  26
ATOM     26  C   UNL     1      32.841 -13.914 -23.853  0.00  0.00    +0.067 C 
BRANCH  26  27
ATOM     27  C   UNL     1      33.864 -12.805 -23.653  0.00  0.00    -0.056 C 
BRANCH  27  28
ATOM     28  N   UNL     1      33.490 -11.627 -24.425  0.00  0.00    +0.388 N 
ATOM     29  H   UNL     1      32.491 -11.680 -24.621  0.00  0.00    -0.080 HD
BRANCH  28  30
ATOM     30  C   UNL     1      34.214 -11.592 -25.697  0.00  0.00    -0.077 C 
ATOM     31  C   UNL     1      35.272 -10.502 -25.698  0.00  0.00    -0.025 C 
ENDBRANCH  28  30
BRANCH  28  32
ATOM     32  C   UNL     1      33.750 -10.405 -23.661  0.00  0.00    -0.077 C 
ATOM     33  C   UNL     1      32.461  -9.656 -23.369  0.00  0.00    -0.025 C 
ENDBRANCH  28  32
ENDBRANCH  27  28
ENDBRANCH  26  27
ENDBRANCH  23  26
ENDBRANCH   2  24
TORSDOF 7
ENDMDL
MODEL 4
REMARK VINA RESULT:      -9.9      1.024      1.652
REMARK  Name = 5329103
REMARK  7 active torsions:
REMARK  status: ('A' for Active; 'I' for Inactive)
REMARK    1  A    between atoms: C_2  and  C_24
REMARK    2  A    between atoms: C_4  and  C_13
REMARK    3  A    between atoms: N_23  and  C_26
REMARK    4  A    between atoms: C_26  and  C_27
REMARK    5  A    between atoms: C_27  and  N_28
REMARK    6  A    between atoms: N_28  and  C_30
REMARK    7  A    between atoms: N_28  and  C_32
REMARK                            x       y       z     vdW  Elec       q    Type
REMARK                         _______ _______ _______ _____ _____    ______ ____
ROOT
ATOM      1  N   UNL     1      35.983 -19.069 -20.788  0.00  0.00    -0.357 N 
ATOM      2  C   UNL     1      34.770 -20.793 -20.088  0.00  0.00    +0.062 A 
ATOM      3  C   UNL     1      33.894 -19.791 -20.572  0.00  0.00    -0.001 A 
ATOM      4  C   UNL     1      34.676 -18.763 -20.986  0.00  0.00    +0.053 A 
ATOM      5  C   UNL     1      36.056 -20.320 -20.233  0.00  0.00    +0.038 A 
ATOM      6  C   UNL     1      32.418 -19.863 -20.612  0.00  0.00    +0.033 C 
ATOM      7  C   UNL     1      37.359 -20.929 -19.902  0.00  0.00    +0.050 C 
ATOM      8  H   UNL     1      36.749 -18.491 -21.006  0.00  0.00    +0.166 HD
ENDROOT
BRANCH   4  13
ATOM      9 CL   UNL     1      33.220 -12.092 -23.565  0.00  0.00    -0.082 Cl
ATOM     10  O   UNL     1      34.735 -19.484 -23.727  0.00  0.00    -0.270 OA
ATOM     11  N   UNL     1      34.308 -17.633 -25.131  0.00  0.00    -0.280 N 
ATOM     12  C   UNL     1      34.301 -17.245 -22.875  0.00  0.00    +0.056 C 
ATOM     13  C   UNL     1      34.393 -17.482 -21.565  0.00  0.00    +0.021 C 
ATOM     14  C   UNL     1      34.019 -15.984 -23.554  0.00  0.00    +0.019 C 
ATOM     15  C   UNL     1      34.036 -16.276 -24.921  0.00  0.00    +0.051 C 
ATOM     16  C   UNL     1      34.486 -18.308 -23.919  0.00  0.00    +0.250 C 
ATOM     17  C   UNL     1      33.770 -14.699 -23.110  0.00  0.00    +0.013 C 
ATOM     18  C   UNL     1      33.806 -15.315 -25.885  0.00  0.00    +0.016 C 
ATOM     19  C   UNL     1      33.535 -13.709 -24.070  0.00  0.00    +0.058 C 
ATOM     20  C   UNL     1      33.554 -14.014 -25.445  0.00  0.00    +0.013 C 
ATOM     21  H   UNL     1      34.366 -18.057 -26.018  0.00  0.00    +0.155 HD
ENDBRANCH   4  13
BRANCH   2  24
ATOM     22  O   UNL     1      34.832 -23.149 -20.037  0.00  0.00    -0.270 OA
ATOM     23  N   UNL     1      33.638 -22.078 -18.380  0.00  0.00    -0.303 N 
ATOM     24  C   UNL     1      34.430 -22.076 -19.541  0.00  0.00    +0.247 C 
ATOM     25  H   UNL     1      33.339 -21.213 -18.016  0.00  0.00    +0.150 HD
BRANCH  23  26
ATOM     26  C   UNL     1      33.237 -23.285 -17.694  0.00  0.00    +0.067 C 
BRANCH  26  27
ATOM     27  C   UNL     1      33.946 -23.418 -16.354  0.00  0.00    -0.056 C 
BRANCH  27  28
ATOM     28  N   UNL     1      32.994 -23.271 -15.261  0.00  0.00    +0.388 N 
ATOM     29  H   UNL     1      33.065 -22.319 -14.904  0.00  0.00    -0.080 HD
BRANCH  28  30
ATOM     30  C   UNL     1      33.309 -24.200 -14.173  0.00  0.00    -0.077 C 
ATOM     31  C   UNL     1      34.743 -24.027 -13.702  0.00  0.00    -0.025 C 
ENDBRANCH  28  30
BRANCH  28  32
ATOM     32  C   UNL     1      31.626 -23.491 -15.734  0.00  0.00    -0.077 C 
ATOM     33  C   UNL     1      30.613 -22.849 -14.802  0.00  0.00    -0.025 C 
ENDBRANCH  28  32
ENDBRANCH  27  28
ENDBRANCH  26  27
ENDBRANCH  23  26
ENDBRANCH   2  24
TORSDOF 7
ENDMDL
MODEL 5
REMARK VINA RESULT:      -9.8      3.479      9.573
REMARK  Name = 5329103
REMARK  7 active torsions:
REMARK  status: ('A' for Active; 'I' for Inactive)
REMARK    1  A    between atoms: C_2  and  C_24
REMARK    2  A    between atoms: C_4  and  C_13
REMARK    3  A    between atoms: N_23  and  C_26
REMARK    4  A    between atoms: C_26  and  C_27
REMARK    5  A    between atoms: C_27  and  N_28
REMARK    6  A    between atoms: N_28  and  C_30
REMARK    7  A    between atoms: N_28  and  C_32
REMARK                            x       y       z     vdW  Elec       q    Type
REMARK                         _______ _______ _______ _____ _____    ______ ____
ROOT
ATOM      1  N   UNL     1      35.000 -19.587 -23.008  0.00  0.00    -0.357 N 
ATOM      2  C   UNL     1      34.574 -17.434 -23.342  0.00  0.00    +0.062 A 
ATOM      3  C   UNL     1      34.920 -17.620 -21.981  0.00  0.00    -0.001 A 
ATOM      4  C   UNL     1      35.170 -18.944 -21.825  0.00  0.00    +0.053 A 
ATOM      5  C   UNL     1      34.631 -18.666 -23.953  0.00  0.00    +0.038 A 
ATOM      6  C   UNL     1      34.991 -16.569 -20.943  0.00  0.00    +0.033 C 
ATOM      7  C   UNL     1      34.373 -19.074 -25.349  0.00  0.00    +0.050 C 
ATOM      8  H   UNL     1      35.121 -20.553 -23.161  0.00  0.00    +0.166 HD
ENDROOT
BRANCH   4  13
ATOM      9 CL   UNL     1      37.525 -22.876 -16.146  0.00  0.00    -0.082 Cl
ATOM     10  O   UNL     1      32.689 -20.205 -21.287  0.00  0.00    -0.270 OA
ATOM     11  N   UNL     1      32.835 -21.682 -19.449  0.00  0.00    -0.280 N 
ATOM     12  C   UNL     1      34.746 -20.567 -20.037  0.00  0.00    +0.056 C 
ATOM     13  C   UNL     1      35.561 -19.747 -20.703  0.00  0.00    +0.021 C 
ATOM     14  C   UNL     1      35.050 -21.418 -18.891  0.00  0.00    +0.019 C 
ATOM     15  C   UNL     1      33.856 -22.071 -18.575  0.00  0.00    +0.051 C 
ATOM     16  C   UNL     1      33.298 -20.753 -20.387  0.00  0.00    +0.250 C 
ATOM     17  C   UNL     1      36.197 -21.649 -18.155  0.00  0.00    +0.013 C 
ATOM     18  C   UNL     1      33.758 -22.969 -17.530  0.00  0.00    +0.016 C 
ATOM     19  C   UNL     1      36.121 -22.555 -17.092  0.00  0.00    +0.058 C 
ATOM     20  C   UNL     1      34.913 -23.208 -16.782  0.00  0.00    +0.013 C 
ATOM     21  H   UNL     1      31.910 -22.018 -19.409  0.00  0.00    +0.155 HD
ENDBRANCH   4  13
BRANCH   2  24
ATOM     22  O   UNL     1      34.523 -15.978 -25.195  0.00  0.00    -0.270 OA
ATOM     23  N   UNL     1      33.483 -15.276 -23.260  0.00  0.00    -0.303 N 
ATOM     24  C   UNL     1      34.223 -16.210 -24.006  0.00  0.00    +0.247 C 
ATOM     25  H   UNL     1      33.264 -15.493 -22.325  0.00  0.00    +0.150 HD
BRANCH  23  26
ATOM     26  C   UNL     1      33.029 -14.012 -23.796  0.00  0.00    +0.067 C 
BRANCH  26  27
ATOM     27  C   UNL     1      32.316 -13.189 -22.734  0.00  0.00    -0.056 C 
BRANCH  27  28
ATOM     28  N   UNL     1      32.791 -11.811 -22.758  0.00  0.00    +0.388 N 
ATOM     29  H   UNL     1      33.529 -11.718 -22.061  0.00  0.00    -0.080 HD
BRANCH  28  30
ATOM     30  C   UNL     1      31.708 -10.886 -22.417  0.00  0.00    -0.077 C 
ATOM     31  C   UNL     1      31.065 -11.257 -21.092  0.00  0.00    -0.025 C 
ENDBRANCH  28  30
BRANCH  28  32
ATOM     32  C   UNL     1      33.347 -11.480 -24.072  0.00  0.00    -0.077 C 
ATOM     33  C   UNL     1      34.212 -10.233 -24.002  0.00  0.00    -0.025 C 
ENDBRANCH  28  32
ENDBRANCH  27  28
ENDBRANCH  26  27
ENDBRANCH  23  26
ENDBRANCH   2  24
TORSDOF 7
ENDMDL
MODEL 6
REMARK VINA RESULT:      -9.6      6.367     12.386
REMARK  Name = 5329103
REMARK  7 active torsions:
REMARK  status: ('A' for Active; 'I' for Inactive)
REMARK    1  A    between atoms: C_2  and  C_24
REMARK    2  A    between atoms: C_4  and  C_13
REMARK    3  A    between atoms: N_23  and  C_26
REMARK    4  A    between atoms: C_26  and  C_27
REMARK    5  A    between atoms: C_27  and  N_28
REMARK    6  A    between atoms: N_28  and  C_30
REMARK    7  A    between atoms: N_28  and  C_32
REMARK                            x       y       z     vdW  Elec       q    Type
REMARK                         _______ _______ _______ _____ _____    ______ ____
ROOT
ATOM      1  N   UNL     1      34.460 -11.606 -23.944  0.00  0.00    -0.357 N 
ATOM      2  C   UNL     1      32.819 -10.253 -23.305  0.00  0.00    +0.062 A 
ATOM      3  C   UNL     1      32.595 -11.532 -22.742  0.00  0.00    -0.001 A 
ATOM      4  C   UNL     1      33.617 -12.321 -23.157  0.00  0.00    +0.053 A 
ATOM      5  C   UNL     1      33.979 -10.326 -24.044  0.00  0.00    +0.038 A 
ATOM      6  C   UNL     1      31.463 -11.921 -21.872  0.00  0.00    +0.033 C 
ATOM      7  C   UNL     1      34.690  -9.308 -24.843  0.00  0.00    +0.050 C 
ATOM      8  H   UNL     1      35.279 -11.947 -24.370  0.00  0.00    +0.166 HD
ENDROOT
BRANCH   4  13
ATOM      9 CL   UNL     1      35.406 -19.229 -21.624  0.00  0.00    -0.082 Cl
ATOM     10  O   UNL     1      33.183 -13.327 -25.771  0.00  0.00    -0.270 OA
ATOM     11  N   UNL     1      33.626 -15.644 -25.905  0.00  0.00    -0.280 N 
ATOM     12  C   UNL     1      33.922 -14.649 -23.865  0.00  0.00    +0.056 C 
ATOM     13  C   UNL     1      33.955 -13.696 -22.931  0.00  0.00    +0.021 C 
ATOM     14  C   UNL     1      34.245 -16.066 -23.730  0.00  0.00    +0.019 C 
ATOM     15  C   UNL     1      34.048 -16.622 -24.997  0.00  0.00    +0.051 C 
ATOM     16  C   UNL     1      33.521 -14.392 -25.288  0.00  0.00    +0.250 C 
ATOM     17  C   UNL     1      34.664 -16.850 -22.672  0.00  0.00    +0.013 C 
ATOM     18  C   UNL     1      34.259 -17.962 -25.256  0.00  0.00    +0.016 C 
ATOM     19  C   UNL     1      34.883 -18.210 -22.912  0.00  0.00    +0.058 C 
ATOM     20  C   UNL     1      34.682 -18.761 -24.193  0.00  0.00    +0.013 C 
ATOM     21  H   UNL     1      33.428 -15.815 -26.854  0.00  0.00    +0.155 HD
ENDBRANCH   4  13
BRANCH   2  24
ATOM     22  O   UNL     1      31.069  -8.802 -23.929  0.00  0.00    -0.270 OA
ATOM     23  N   UNL     1      32.326  -8.223 -22.084  0.00  0.00    -0.303 N 
ATOM     24  C   UNL     1      32.017  -9.070 -23.162  0.00  0.00    +0.247 C 
ATOM     25  H   UNL     1      33.081  -8.467 -21.500  0.00  0.00    +0.150 HD
BRANCH  23  26
ATOM     26  C   UNL     1      31.593  -7.013 -21.789  0.00  0.00    +0.067 C 
BRANCH  26  27
ATOM     27  C   UNL     1      32.220  -5.809 -22.476  0.00  0.00    -0.056 C 
BRANCH  27  28
ATOM     28  N   UNL     1      31.836  -5.771 -23.881  0.00  0.00    +0.388 N 
ATOM     29  H   UNL     1      31.201  -6.549 -24.057  0.00  0.00    -0.080 HD
BRANCH  28  30
ATOM     30  C   UNL     1      33.010  -5.924 -24.742  0.00  0.00    -0.077 C 
ATOM     31  C   UNL     1      32.888  -5.073 -25.995  0.00  0.00    -0.025 C 
ENDBRANCH  28  30
BRANCH  28  32
ATOM     32  C   UNL     1      31.138  -4.522 -24.193  0.00  0.00    -0.077 C 
ATOM     33  C   UNL     1      31.240  -3.535 -23.043  0.00  0.00    -0.025 C 
ENDBRANCH  28  32
ENDBRANCH  27  28
ENDBRANCH  26  27
ENDBRANCH  23  26
ENDBRANCH   2  24
TORSDOF 7
ENDMDL
MODEL 7
REMARK VINA RESULT:      -9.4      5.876     12.249
REMARK  Name = 5329103
REMARK  7 active torsions:
REMARK  status: ('A' for Active; 'I' for Inactive)
REMARK    1  A    between atoms: C_2  and  C_24
REMARK    2  A    between atoms: C_4  and  C_13
REMARK    3  A    between atoms: N_23  and  C_26
REMARK    4  A    between atoms: C_26  and  C_27
REMARK    5  A    between atoms: C_27  and  N_28
REMARK    6  A    between atoms: N_28  and  C_30
REMARK    7  A    between atoms: N_28  and  C_32
REMARK                            x       y       z     vdW  Elec       q    Type
REMARK                         _______ _______ _______ _____ _____    ______ ____
ROOT
ATOM      1  N   UNL     1      31.842 -12.992 -22.134  0.00  0.00    -0.357 N 
ATOM      2  C   UNL     1      32.311 -10.957 -22.889  0.00  0.00    +0.062 A 
ATOM      3  C   UNL     1      33.111 -11.893 -23.588  0.00  0.00    -0.001 A 
ATOM      4  C   UNL     1      32.791 -13.116 -23.096  0.00  0.00    +0.053 A 
ATOM      5  C   UNL     1      31.536 -11.662 -21.996  0.00  0.00    +0.038 A 
ATOM      6  C   UNL     1      34.097 -11.586 -24.646  0.00  0.00    +0.033 C 
ATOM      7  C   UNL     1      30.527 -11.214 -21.016  0.00  0.00    +0.050 C 
ATOM      8  H   UNL     1      31.440 -13.731 -21.623  0.00  0.00    +0.166 HD
ENDROOT
BRANCH   4  13
ATOM      9 CL   UNL     1      34.962 -19.833 -24.951  0.00  0.00    -0.082 Cl
ATOM     10  O   UNL     1      33.919 -13.769 -20.579  0.00  0.00    -0.270 OA
ATOM     11  N   UNL     1      34.832 -15.948 -20.565  0.00  0.00    -0.280 N 
ATOM     12  C   UNL     1      33.872 -15.240 -22.518  0.00  0.00    +0.056 C 
ATOM     13  C   UNL     1      33.245 -14.445 -23.388  0.00  0.00    +0.021 C 
ATOM     14  C   UNL     1      34.368 -16.597 -22.722  0.00  0.00    +0.019 C 
ATOM     15  C   UNL     1      34.942 -16.979 -21.506  0.00  0.00    +0.051 C 
ATOM     16  C   UNL     1      34.183 -14.834 -21.107  0.00  0.00    +0.250 C 
ATOM     17  C   UNL     1      34.362 -17.461 -23.801  0.00  0.00    +0.013 C 
ATOM     18  C   UNL     1      35.522 -18.218 -21.319  0.00  0.00    +0.016 C 
ATOM     19  C   UNL     1      34.945 -18.721 -23.633  0.00  0.00    +0.058 C 
ATOM     20  C   UNL     1      35.520 -19.096 -22.404  0.00  0.00    +0.013 C 
ATOM     21  H   UNL     1      35.169 -16.001 -19.641  0.00  0.00    +0.155 HD
ENDBRANCH   4  13
BRANCH   2  24
ATOM     22  O   UNL     1      31.282  -8.923 -23.492  0.00  0.00    -0.270 OA
ATOM     23  N   UNL     1      33.423  -8.823 -22.641  0.00  0.00    -0.303 N 
ATOM     24  C   UNL     1      32.278  -9.530 -23.047  0.00  0.00    +0.247 C 
ATOM     25  H   UNL     1      34.190  -9.334 -22.294  0.00  0.00    +0.150 HD
BRANCH  23  26
ATOM     26  C   UNL     1      33.533  -7.383 -22.708  0.00  0.00    +0.067 C 
BRANCH  26  27
ATOM     27  C   UNL     1      33.838  -6.919 -24.125  0.00  0.00    -0.056 C 
BRANCH  27  28
ATOM     28  N   UNL     1      32.676  -6.251 -24.699  0.00  0.00    +0.388 N 
ATOM     29  H   UNL     1      32.073  -6.962 -25.112  0.00  0.00    -0.080 HD
BRANCH  28  30
ATOM     30  C   UNL     1      33.085  -5.319 -25.752  0.00  0.00    -0.077 C 
ATOM     31  C   UNL     1      34.496  -5.617 -26.232  0.00  0.00    -0.025 C 
ENDBRANCH  28  30
BRANCH  28  32
ATOM     32  C   UNL     1      31.921  -5.545 -23.662  0.00  0.00    -0.077 C 
ATOM     33  C   UNL     1      31.244  -4.307 -24.224  0.00  0.00    -0.025 C 
ENDBRANCH  28  32
ENDBRANCH  27  28
ENDBRANCH  26  27
ENDBRANCH  23  26
ENDBRANCH   2  24
TORSDOF 7
ENDMDL
MODEL 8
REMARK VINA RESULT:      -9.3      4.835     10.756
REMARK  Name = 5329103
REMARK  7 active torsions:
REMARK  status: ('A' for Active; 'I' for Inactive)
REMARK    1  A    between atoms: C_2  and  C_24
REMARK    2  A    between atoms: C_4  and  C_13
REMARK    3  A    between atoms: N_23  and  C_26
REMARK    4  A    between atoms: C_26  and  C_27
REMARK    5  A    between atoms: C_27  and  N_28
REMARK    6  A    between atoms: N_28  and  C_30
REMARK    7  A    between atoms: N_28  and  C_32
REMARK                            x       y       z     vdW  Elec       q    Type
REMARK                         _______ _______ _______ _____ _____    ______ ____
ROOT
ATOM      1  N   UNL     1      33.182 -15.215 -23.856  0.00  0.00    -0.357 N 
ATOM      2  C   UNL     1      33.003 -13.107 -23.181  0.00  0.00    +0.062 A 
ATOM      3  C   UNL     1      32.983 -13.949 -22.043  0.00  0.00    -0.001 A 
ATOM      4  C   UNL     1      33.094 -15.220 -22.502  0.00  0.00    +0.053 A 
ATOM      5  C   UNL     1      33.126 -13.916 -24.289  0.00  0.00    +0.038 A 
ATOM      6  C   UNL     1      32.865 -13.515 -20.634  0.00  0.00    +0.033 C 
ATOM      7  C   UNL     1      33.199 -13.591 -25.727  0.00  0.00    +0.050 C 
ATOM      8  H   UNL     1      33.270 -16.009 -24.431  0.00  0.00    +0.166 HD
ENDROOT
BRANCH   4  13
ATOM      9 CL   UNL     1      32.923 -21.681 -19.111  0.00  0.00    -0.082 Cl
ATOM     10  O   UNL     1      35.764 -15.948 -23.115  0.00  0.00    -0.270 OA
ATOM     11  N   UNL     1      36.322 -18.066 -22.229  0.00  0.00    -0.280 N 
ATOM     12  C   UNL     1      34.199 -17.305 -21.835  0.00  0.00    +0.056 C 
ATOM     13  C   UNL     1      33.135 -16.501 -21.857  0.00  0.00    +0.021 C 
ATOM     14  C   UNL     1      34.335 -18.617 -21.209  0.00  0.00    +0.019 C 
ATOM     15  C   UNL     1      35.642 -19.033 -21.479  0.00  0.00    +0.051 C 
ATOM     16  C   UNL     1      35.504 -16.963 -22.495  0.00  0.00    +0.250 C 
ATOM     17  C   UNL     1      33.476 -19.417 -20.480  0.00  0.00    +0.013 C 
ATOM     18  C   UNL     1      36.138 -20.244 -21.039  0.00  0.00    +0.016 C 
ATOM     19  C   UNL     1      33.958 -20.648 -20.024  0.00  0.00    +0.058 C 
ATOM     20  C   UNL     1      35.276 -21.058 -20.301  0.00  0.00    +0.013 C 
ATOM     21  H   UNL     1      37.256 -18.152 -22.531  0.00  0.00    +0.155 HD
ENDBRANCH   4  13
BRANCH   2  24
ATOM     22  O   UNL     1      33.740 -10.966 -23.837  0.00  0.00    -0.270 OA
ATOM     23  N   UNL     1      31.823 -11.088 -22.561  0.00  0.00    -0.303 N 
ATOM     24  C   UNL     1      32.915 -11.674 -23.223  0.00  0.00    +0.247 C 
ATOM     25  H   UNL     1      31.192 -11.678 -22.088  0.00  0.00    +0.150 HD
BRANCH  23  26
ATOM     26  C   UNL     1      31.579  -9.664 -22.538  0.00  0.00    +0.067 C 
BRANCH  26  27
ATOM     27  C   UNL     1      32.049  -9.046 -21.229  0.00  0.00    -0.056 C 
BRANCH  27  28
ATOM     28  N   UNL     1      32.828  -7.842 -21.489  0.00  0.00    +0.388 N 
ATOM     29  H   UNL     1      33.732  -7.944 -21.030  0.00  0.00    -0.080 HD
BRANCH  28  30
ATOM     30  C   UNL     1      32.156  -6.663 -20.937  0.00  0.00    -0.077 C 
ATOM     31  C   UNL     1      31.383  -5.918 -22.012  0.00  0.00    -0.025 C 
ENDBRANCH  28  30
BRANCH  28  32
ATOM     32  C   UNL     1      33.052  -7.672 -22.926  0.00  0.00    -0.077 C 
ATOM     33  C   UNL     1      34.533  -7.563 -23.241  0.00  0.00    -0.025 C 
ENDBRANCH  28  32
ENDBRANCH  27  28
ENDBRANCH  26  27
ENDBRANCH  23  26
ENDBRANCH   2  24
TORSDOF 7
ENDMDL
MODEL 9
REMARK VINA RESULT:      -9.2      4.001      7.228
REMARK  Name = 5329103
REMARK  7 active torsions:
REMARK  status: ('A' for Active; 'I' for Inactive)
REMARK    1  A    between atoms: C_2  and  C_24
REMARK    2  A    between atoms: C_4  and  C_13
REMARK    3  A    between atoms: N_23  and  C_26
REMARK    4  A    between atoms: C_26  and  C_27
REMARK    5  A    between atoms: C_27  and  N_28
REMARK    6  A    between atoms: N_28  and  C_30
REMARK    7  A    between atoms: N_28  and  C_32
REMARK                            x       y       z     vdW  Elec       q    Type
REMARK                         _______ _______ _______ _____ _____    ______ ____
ROOT
ATOM      1  N   UNL     1      32.782 -13.515 -24.976  0.00  0.00    -0.357 N 
ATOM      2  C   UNL     1      33.886 -15.300 -24.251  0.00  0.00    +0.062 A 
ATOM      3  C   UNL     1      33.946 -14.296 -23.255  0.00  0.00    -0.001 A 
ATOM      4  C   UNL     1      33.262 -13.231 -23.740  0.00  0.00    +0.053 A 
ATOM      5  C   UNL     1      33.160 -14.791 -25.305  0.00  0.00    +0.038 A 
ATOM      6  C   UNL     1      34.626 -14.401 -21.945  0.00  0.00    +0.033 C 
ATOM      7  C   UNL     1      32.781 -15.384 -26.602  0.00  0.00    +0.050 C 
ATOM      8  H   UNL     1      32.251 -12.909 -25.542  0.00  0.00    +0.166 HD
ENDROOT
BRANCH   4  13
ATOM      9 CL   UNL     1      31.519  -6.778 -20.808  0.00  0.00    -0.082 Cl
ATOM     10  O   UNL     1      34.896 -11.674 -25.454  0.00  0.00    -0.270 OA
ATOM     11  N   UNL     1      34.742  -9.369 -24.960  0.00  0.00    -0.280 N 
ATOM     12  C   UNL     1      33.488 -10.790 -23.676  0.00  0.00    +0.056 C 
ATOM     13  C   UNL     1      32.967 -11.929 -23.216  0.00  0.00    +0.021 C 
ATOM     14  C   UNL     1      33.250  -9.427 -23.211  0.00  0.00    +0.019 C 
ATOM     15  C   UNL     1      34.035  -8.605 -24.024  0.00  0.00    +0.051 C 
ATOM     16  C   UNL     1      34.463 -10.732 -24.817  0.00  0.00    +0.250 C 
ATOM     17  C   UNL     1      32.464  -8.887 -22.210  0.00  0.00    +0.013 C 
ATOM     18  C   UNL     1      34.068  -7.232 -23.875  0.00  0.00    +0.016 C 
ATOM     19  C   UNL     1      32.482  -7.498 -22.042  0.00  0.00    +0.058 C 
ATOM     20  C   UNL     1      33.277  -6.679 -22.867  0.00  0.00    +0.013 C 
ATOM     21  H   UNL     1      35.356  -8.994 -25.633  0.00  0.00    +0.155 HD
ENDBRANCH   4  13
BRANCH   2  24
ATOM     22  O   UNL     1      34.661 -17.291 -25.247  0.00  0.00    -0.270 OA
ATOM     23  N   UNL     1      34.816 -17.117 -22.953  0.00  0.00    -0.303 N 
ATOM     24  C   UNL     1      34.457 -16.618 -24.216  0.00  0.00    +0.247 C 
ATOM     25  H   UNL     1      34.640 -16.558 -22.162  0.00  0.00    +0.150 HD
BRANCH  23  26
ATOM     26  C   UNL     1      35.428 -18.412 -22.755  0.00  0.00    +0.067 C 
BRANCH  26  27
ATOM     27  C   UNL     1      35.970 -18.554 -21.340  0.00  0.00    -0.056 C 
BRANCH  27  28
ATOM     28  N   UNL     1      35.232 -19.582 -20.617  0.00  0.00    +0.388 N 
ATOM     29  H   UNL     1      35.050 -19.238 -19.675  0.00  0.00    -0.080 HD
BRANCH  28  30
ATOM     30  C   UNL     1      36.022 -20.811 -20.519  0.00  0.00    -0.077 C 
ATOM     31  C   UNL     1      36.219 -21.224 -19.069  0.00  0.00    -0.025 C 
ENDBRANCH  28  30
BRANCH  28  32
ATOM     32  C   UNL     1      33.950 -19.854 -21.269  0.00  0.00    -0.077 C 
ATOM     33  C   UNL     1      32.882 -20.214 -20.252  0.00  0.00    -0.025 C 
ENDBRANCH  28  32
ENDBRANCH  27  28
ENDBRANCH  26  27
ENDBRANCH  23  26
ENDBRANCH   2  24
TORSDOF 7
ENDMDL
