MODEL 1
REMARK VINA RESULT:      -7.0      0.000      0.000
REMARK  Name = 12546061
REMARK  5 active torsions:
REMARK  status: ('A' for Active; 'I' for Inactive)
REMARK    1  A    between atoms: N_1  and  C_4
REMARK    2  A    between atoms: N_1  and  C_10
REMARK    3  A    between atoms: C_10  and  C_11
REMARK    4  A    between atoms: C_11  and  C_12
REMARK    5  A    between atoms: C_12  and  S_13
REMARK                            x       y       z     vdW  Elec       q    Type
REMARK                         _______ _______ _______ _____ _____    ______ ____
ROOT
ATOM      1  N   UNL     1      33.835 -18.224 -21.100  0.00  0.00    +0.385 N 
ATOM      2  H   UNL     1      33.166 -17.857 -21.777  0.00  0.00    -0.084 HD
ATOM      3  H   UNL     1      33.498 -18.162 -20.139  0.00  0.00    -0.084 HD
ENDROOT
BRANCH   1   4
ATOM      4  C   UNL     1      35.076 -17.402 -21.176  0.00  0.00    -0.062 C 
ATOM      5  C   UNL     1      35.687 -17.538 -22.571  0.00  0.00    -0.021 C 
ATOM      6  C   UNL     1      34.742 -15.950 -20.829  0.00  0.00    -0.021 C 
ATOM      7  C   UNL     1      34.876 -16.824 -23.653  0.00  0.00    -0.002 C 
ATOM      8  C   UNL     1      33.934 -15.244 -21.918  0.00  0.00    -0.002 C 
ATOM      9  C   UNL     1      34.601 -15.369 -23.284  0.00  0.00    -0.000 C 
ENDBRANCH   1   4
BRANCH   1  10
ATOM     10  C   UNL     1      34.045 -19.667 -21.387  0.00  0.00    -0.080 C 
BRANCH  10  11
ATOM     11  C   UNL     1      33.514 -20.524 -20.245  0.00  0.00    +0.003 C 
BRANCH  11  12
ATOM     12  C   UNL     1      34.585 -21.386 -19.591  0.00  0.00    +0.156 C 
BRANCH  12  13
ATOM     13  S   UNL     1      33.866 -22.723 -18.689  0.00  0.00    +0.022 S 
ATOM     14  O   UNL     1      33.971 -23.846 -19.619  0.00  0.00    -0.069 OA
ATOM     15  O   UNL     1      34.718 -22.822 -17.505  0.00  0.00    -0.069 OA
ATOM     16  O   UNL     1      32.504 -22.258 -18.433  0.00  0.00    -0.069 OA
ENDBRANCH  12  13
ENDBRANCH  11  12
ENDBRANCH  10  11
ENDBRANCH   1  10
TORSDOF 5
ENDMDL
MODEL 2
REMARK VINA RESULT:      -6.9      1.280      2.042
REMARK  Name = 12546061
REMARK  5 active torsions:
REMARK  status: ('A' for Active; 'I' for Inactive)
REMARK    1  A    between atoms: N_1  and  C_4
REMARK    2  A    between atoms: N_1  and  C_10
REMARK    3  A    between atoms: C_10  and  C_11
REMARK    4  A    between atoms: C_11  and  C_12
REMARK    5  A    between atoms: C_12  and  S_13
REMARK                            x       y       z     vdW  Elec       q    Type
REMARK                         _______ _______ _______ _____ _____    ______ ____
ROOT
ATOM      1  N   UNL     1      36.085 -18.901 -20.889  0.00  0.00    +0.385 N 
ATOM      2  H   UNL     1      36.235 -18.168 -20.194  0.00  0.00    -0.084 HD
ATOM      3  H   UNL     1      36.710 -18.816 -21.690  0.00  0.00    -0.084 HD
ENDROOT
BRANCH   1   4
ATOM      4  C   UNL     1      34.694 -18.774 -21.410  0.00  0.00    -0.062 C 
ATOM      5  C   UNL     1      34.220 -17.331 -21.237  0.00  0.00    -0.021 C 
ATOM      6  C   UNL     1      34.660 -19.224 -22.872  0.00  0.00    -0.021 C 
ATOM      7  C   UNL     1      34.908 -16.355 -22.191  0.00  0.00    -0.002 C 
ATOM      8  C   UNL     1      35.349 -18.239 -23.818  0.00  0.00    -0.002 C 
ATOM      9  C   UNL     1      34.814 -16.821 -23.640  0.00  0.00    -0.000 C 
ENDBRANCH   1   4
BRANCH   1  10
ATOM     10  C   UNL     1      36.378 -20.212 -20.255  0.00  0.00    -0.080 C 
BRANCH  10  11
ATOM     11  C   UNL     1      35.086 -20.932 -19.892  0.00  0.00    +0.003 C 
BRANCH  11  12
ATOM     12  C   UNL     1      35.253 -21.933 -18.757  0.00  0.00    +0.156 C 
BRANCH  12  13
ATOM     13  S   UNL     1      33.826 -22.961 -18.595  0.00  0.00    +0.022 S 
ATOM     14  O   UNL     1      33.996 -23.938 -19.669  0.00  0.00    -0.069 OA
ATOM     15  O   UNL     1      33.956 -23.501 -17.243  0.00  0.00    -0.069 OA
ATOM     16  O   UNL     1      32.719 -22.025 -18.783  0.00  0.00    -0.069 OA
ENDBRANCH  12  13
ENDBRANCH  11  12
ENDBRANCH  10  11
ENDBRANCH   1  10
TORSDOF 5
ENDMDL
MODEL 3
REMARK VINA RESULT:      -6.7      8.860      9.935
REMARK  Name = 12546061
REMARK  5 active torsions:
REMARK  status: ('A' for Active; 'I' for Inactive)
REMARK    1  A    between atoms: N_1  and  C_4
REMARK    2  A    between atoms: N_1  and  C_10
REMARK    3  A    between atoms: C_10  and  C_11
REMARK    4  A    between atoms: C_11  and  C_12
REMARK    5  A    between atoms: C_12  and  S_13
REMARK                            x       y       z     vdW  Elec       q    Type
REMARK                         _______ _______ _______ _____ _____    ______ ____
ROOT
ATOM      1  N   UNL     1      32.924 -24.894 -13.888  0.00  0.00    +0.385 N 
ATOM      2  H   UNL     1      32.691 -25.434 -14.722  0.00  0.00    -0.084 HD
ATOM      3  H   UNL     1      33.020 -25.476 -13.056  0.00  0.00    -0.084 HD
ENDROOT
BRANCH   1   4
ATOM      4  C   UNL     1      31.809 -23.940 -13.621  0.00  0.00    -0.062 C 
ATOM      5  C   UNL     1      31.741 -22.914 -14.753  0.00  0.00    -0.021 C 
ATOM      6  C   UNL     1      30.503 -24.722 -13.468  0.00  0.00    -0.021 C 
ATOM      7  C   UNL     1      31.225 -23.503 -16.066  0.00  0.00    -0.002 C 
ATOM      8  C   UNL     1      29.994 -25.304 -14.787  0.00  0.00    -0.002 C 
ATOM      9  C   UNL     1      29.902 -24.237 -15.874  0.00  0.00    -0.000 C 
ENDBRANCH   1   4
BRANCH   1  10
ATOM     10  C   UNL     1      34.240 -24.241 -14.108  0.00  0.00    -0.080 C 
BRANCH  10  11
ATOM     11  C   UNL     1      35.017 -24.146 -12.802  0.00  0.00    +0.003 C 
BRANCH  11  12
ATOM     12  C   UNL     1      36.404 -23.540 -12.968  0.00  0.00    +0.156 C 
BRANCH  12  13
ATOM     13  S   UNL     1      37.458 -23.976 -11.620  0.00  0.00    +0.022 S 
ATOM     14  O   UNL     1      36.567 -23.907 -10.464  0.00  0.00    -0.069 OA
ATOM     15  O   UNL     1      37.909 -25.322 -11.972  0.00  0.00    -0.069 OA
ATOM     16  O   UNL     1      38.495 -22.947 -11.662  0.00  0.00    -0.069 OA
ENDBRANCH  12  13
ENDBRANCH  11  12
ENDBRANCH  10  11
ENDBRANCH   1  10
TORSDOF 5
ENDMDL
MODEL 4
REMARK VINA RESULT:      -6.7      2.777      3.813
REMARK  Name = 12546061
REMARK  5 active torsions:
REMARK  status: ('A' for Active; 'I' for Inactive)
REMARK    1  A    between atoms: N_1  and  C_4
REMARK    2  A    between atoms: N_1  and  C_10
REMARK    3  A    between atoms: C_10  and  C_11
REMARK    4  A    between atoms: C_11  and  C_12
REMARK    5  A    between atoms: C_12  and  S_13
REMARK                            x       y       z     vdW  Elec       q    Type
REMARK                         _______ _______ _______ _____ _____    ______ ____
ROOT
ATOM      1  N   UNL     1      34.058 -16.451 -22.762  0.00  0.00    +0.385 N 
ATOM      2  H   UNL     1      33.112 -16.260 -23.093  0.00  0.00    -0.084 HD
ATOM      3  H   UNL     1      34.078 -17.112 -21.986  0.00  0.00    -0.084 HD
ENDROOT
BRANCH   1   4
ATOM      4  C   UNL     1      34.644 -15.176 -22.259  0.00  0.00    -0.062 C 
ATOM      5  C   UNL     1      34.072 -14.007 -23.061  0.00  0.00    -0.021 C 
ATOM      6  C   UNL     1      34.358 -15.046 -20.762  0.00  0.00    -0.021 C 
ATOM      7  C   UNL     1      32.604 -13.722 -22.743  0.00  0.00    -0.002 C 
ATOM      8  C   UNL     1      32.888 -14.758 -20.455  0.00  0.00    -0.002 C 
ATOM      9  C   UNL     1      32.373 -13.559 -21.244  0.00  0.00    -0.000 C 
ENDBRANCH   1   4
BRANCH   1  10
ATOM     10  C   UNL     1      34.824 -17.073 -23.873  0.00  0.00    -0.080 C 
BRANCH  10  11
ATOM     11  C   UNL     1      35.679 -18.222 -23.358  0.00  0.00    +0.003 C 
BRANCH  11  12
ATOM     12  C   UNL     1      34.862 -19.376 -22.794  0.00  0.00    +0.156 C 
BRANCH  12  13
ATOM     13  S   UNL     1      34.730 -19.266 -21.036  0.00  0.00    +0.022 S 
ATOM     14  O   UNL     1      35.759 -18.290 -20.685  0.00  0.00    -0.069 OA
ATOM     15  O   UNL     1      33.355 -18.813 -20.833  0.00  0.00    -0.069 OA
ATOM     16  O   UNL     1      35.001 -20.634 -20.596  0.00  0.00    -0.069 OA
ENDBRANCH  12  13
ENDBRANCH  11  12
ENDBRANCH  10  11
ENDBRANCH   1  10
TORSDOF 5
ENDMDL
MODEL 5
REMARK VINA RESULT:      -6.7      4.756      6.478
REMARK  Name = 12546061
REMARK  5 active torsions:
REMARK  status: ('A' for Active; 'I' for Inactive)
REMARK    1  A    between atoms: N_1  and  C_4
REMARK    2  A    between atoms: N_1  and  C_10
REMARK    3  A    between atoms: C_10  and  C_11
REMARK    4  A    between atoms: C_11  and  C_12
REMARK    5  A    between atoms: C_12  and  S_13
REMARK                            x       y       z     vdW  Elec       q    Type
REMARK                         _______ _______ _______ _____ _____    ______ ____
ROOT
ATOM      1  N   UNL     1      35.388 -18.315 -20.645  0.00  0.00    +0.385 N 
ATOM      2  H   UNL     1      36.336 -18.366 -20.270  0.00  0.00    -0.084 HD
ATOM      3  H   UNL     1      34.678 -18.277 -19.914  0.00  0.00    -0.084 HD
ENDROOT
BRANCH   1   4
ATOM      4  C   UNL     1      35.129 -19.554 -21.433  0.00  0.00    -0.062 C 
ATOM      5  C   UNL     1      35.781 -20.745 -20.730  0.00  0.00    -0.021 C 
ATOM      6  C   UNL     1      33.620 -19.737 -21.605  0.00  0.00    -0.021 C 
ATOM      7  C   UNL     1      35.065 -21.145 -19.440  0.00  0.00    -0.002 C 
ATOM      8  C   UNL     1      32.915 -20.140 -20.309  0.00  0.00    -0.002 C 
ATOM      9  C   UNL     1      33.572 -21.357 -19.666  0.00  0.00    -0.000 C 
ENDBRANCH   1   4
BRANCH   1  10
ATOM     10  C   UNL     1      35.264 -17.060 -21.430  0.00  0.00    -0.080 C 
BRANCH  10  11
ATOM     11  C   UNL     1      34.602 -15.970 -20.597  0.00  0.00    +0.003 C 
BRANCH  11  12
ATOM     12  C   UNL     1      34.403 -14.667 -21.359  0.00  0.00    +0.156 C 
BRANCH  12  13
ATOM     13  S   UNL     1      32.721 -14.471 -21.862  0.00  0.00    +0.022 S 
ATOM     14  O   UNL     1      32.352 -13.177 -21.291  0.00  0.00    -0.069 OA
ATOM     15  O   UNL     1      32.805 -14.500 -23.321  0.00  0.00    -0.069 OA
ATOM     16  O   UNL     1      32.057 -15.624 -21.258  0.00  0.00    -0.069 OA
ENDBRANCH  12  13
ENDBRANCH  11  12
ENDBRANCH  10  11
ENDBRANCH   1  10
TORSDOF 5
ENDMDL
MODEL 6
REMARK VINA RESULT:      -6.6      4.973      6.432
REMARK  Name = 12546061
REMARK  5 active torsions:
REMARK  status: ('A' for Active; 'I' for Inactive)
REMARK    1  A    between atoms: N_1  and  C_4
REMARK    2  A    between atoms: N_1  and  C_10
REMARK    3  A    between atoms: C_10  and  C_11
REMARK    4  A    between atoms: C_11  and  C_12
REMARK    5  A    between atoms: C_12  and  S_13
REMARK                            x       y       z     vdW  Elec       q    Type
REMARK                         _______ _______ _______ _____ _____    ______ ____
ROOT
ATOM      1  N   UNL     1      34.731 -19.032 -23.013  0.00  0.00    +0.385 N 
ATOM      2  H   UNL     1      33.826 -19.477 -23.171  0.00  0.00    -0.084 HD
ATOM      3  H   UNL     1      35.512 -19.680 -23.120  0.00  0.00    -0.084 HD
ENDROOT
BRANCH   1   4
ATOM      4  C   UNL     1      34.770 -18.538 -21.607  0.00  0.00    -0.062 C 
ATOM      5  C   UNL     1      33.413 -18.784 -20.947  0.00  0.00    -0.021 C 
ATOM      6  C   UNL     1      35.912 -19.230 -20.860  0.00  0.00    -0.021 C 
ATOM      7  C   UNL     1      33.146 -20.262 -20.659  0.00  0.00    -0.002 C 
ATOM      8  C   UNL     1      35.633 -20.706 -20.575  0.00  0.00    -0.002 C 
ATOM      9  C   UNL     1      34.290 -20.901 -19.878  0.00  0.00    -0.000 C 
ENDBRANCH   1   4
BRANCH   1  10
ATOM     10  C   UNL     1      34.913 -17.969 -24.035  0.00  0.00    -0.080 C 
BRANCH  10  11
ATOM     11  C   UNL     1      35.076 -16.609 -23.370  0.00  0.00    +0.003 C 
BRANCH  11  12
ATOM     12  C   UNL     1      34.025 -15.596 -23.803  0.00  0.00    +0.156 C 
BRANCH  12  13
ATOM     13  S   UNL     1      33.654 -14.463 -22.500  0.00  0.00    +0.022 S 
ATOM     14  O   UNL     1      32.308 -14.858 -22.088  0.00  0.00    -0.069 OA
ATOM     15  O   UNL     1      34.703 -14.730 -21.517  0.00  0.00    -0.069 OA
ATOM     16  O   UNL     1      33.740 -13.161 -23.157  0.00  0.00    -0.069 OA
ENDBRANCH  12  13
ENDBRANCH  11  12
ENDBRANCH  10  11
ENDBRANCH   1  10
TORSDOF 5
ENDMDL
MODEL 7
REMARK VINA RESULT:      -6.4      8.389      9.437
REMARK  Name = 12546061
REMARK  5 active torsions:
REMARK  status: ('A' for Active; 'I' for Inactive)
REMARK    1  A    between atoms: N_1  and  C_4
REMARK    2  A    between atoms: N_1  and  C_10
REMARK    3  A    between atoms: C_10  and  C_11
REMARK    4  A    between atoms: C_11  and  C_12
REMARK    5  A    between atoms: C_12  and  S_13
REMARK                            x       y       z     vdW  Elec       q    Type
REMARK                         _______ _______ _______ _____ _____    ______ ____
ROOT
ATOM      1  N   UNL     1      33.721 -23.282 -14.177  0.00  0.00    +0.385 N 
ATOM      2  H   UNL     1      33.861 -23.589 -13.214  0.00  0.00    -0.084 HD
ATOM      3  H   UNL     1      33.227 -22.393 -14.239  0.00  0.00    -0.084 HD
ENDROOT
BRANCH   1   4
ATOM      4  C   UNL     1      32.876 -24.295 -14.872  0.00  0.00    -0.062 C 
ATOM      5  C   UNL     1      31.911 -24.923 -13.867  0.00  0.00    -0.021 C 
ATOM      6  C   UNL     1      32.145 -23.628 -16.038  0.00  0.00    -0.021 C 
ATOM      7  C   UNL     1      30.802 -23.969 -13.424  0.00  0.00    -0.002 C 
ATOM      8  C   UNL     1      31.036 -22.678 -15.585  0.00  0.00    -0.002 C 
ATOM      9  C   UNL     1      30.073 -23.359 -14.617  0.00  0.00    -0.000 C 
ENDBRANCH   1   4
BRANCH   1  10
ATOM     10  C   UNL     1      35.054 -23.076 -14.799  0.00  0.00    -0.080 C 
BRANCH  10  11
ATOM     11  C   UNL     1      36.097 -23.972 -14.143  0.00  0.00    +0.003 C 
BRANCH  11  12
ATOM     12  C   UNL     1      36.530 -23.485 -12.767  0.00  0.00    +0.156 C 
BRANCH  12  13
ATOM     13  S   UNL     1      36.088 -24.645 -11.511  0.00  0.00    +0.022 S 
ATOM     14  O   UNL     1      36.852 -25.836 -11.875  0.00  0.00    -0.069 OA
ATOM     15  O   UNL     1      36.524 -23.985 -10.281  0.00  0.00    -0.069 OA
ATOM     16  O   UNL     1      34.640 -24.768 -11.666  0.00  0.00    -0.069 OA
ENDBRANCH  12  13
ENDBRANCH  11  12
ENDBRANCH  10  11
ENDBRANCH   1  10
TORSDOF 5
ENDMDL
MODEL 8
REMARK VINA RESULT:      -6.4      6.477      8.436
REMARK  Name = 12546061
REMARK  5 active torsions:
REMARK  status: ('A' for Active; 'I' for Inactive)
REMARK    1  A    between atoms: N_1  and  C_4
REMARK    2  A    between atoms: N_1  and  C_10
REMARK    3  A    between atoms: C_10  and  C_11
REMARK    4  A    between atoms: C_11  and  C_12
REMARK    5  A    between atoms: C_12  and  S_13
REMARK                            x       y       z     vdW  Elec       q    Type
REMARK                         _______ _______ _______ _____ _____    ______ ____
ROOT
ATOM      1  N   UNL     1      33.135 -24.304 -14.954  0.00  0.00    +0.385 N 
ATOM      2  H   UNL     1      32.688 -24.231 -15.868  0.00  0.00    -0.084 HD
ATOM      3  H   UNL     1      33.405 -25.260 -14.723  0.00  0.00    -0.084 HD
ENDROOT
BRANCH   1   4
ATOM      4  C   UNL     1      32.156 -23.869 -13.918  0.00  0.00    -0.062 C 
ATOM      5  C   UNL     1      31.405 -22.635 -14.419  0.00  0.00    -0.021 C 
ATOM      6  C   UNL     1      31.214 -25.030 -13.595  0.00  0.00    -0.021 C 
ATOM      7  C   UNL     1      30.418 -22.950 -15.544  0.00  0.00    -0.002 C 
ATOM      8  C   UNL     1      30.229 -25.334 -14.725  0.00  0.00    -0.002 C 
ATOM      9  C   UNL     1      29.472 -24.085 -15.164  0.00  0.00    -0.000 C 
ENDBRANCH   1   4
BRANCH   1  10
ATOM     10  C   UNL     1      34.385 -23.502 -14.982  0.00  0.00    -0.080 C 
BRANCH  10  11
ATOM     11  C   UNL     1      34.662 -22.988 -16.389  0.00  0.00    +0.003 C 
BRANCH  11  12
ATOM     12  C   UNL     1      33.554 -23.319 -17.379  0.00  0.00    +0.156 C 
BRANCH  12  13
ATOM     13  S   UNL     1      34.001 -22.843 -19.020  0.00  0.00    +0.022 S 
ATOM     14  O   UNL     1      35.329 -22.257 -18.848  0.00  0.00    -0.069 OA
ATOM     15  O   UNL     1      33.975 -24.108 -19.753  0.00  0.00    -0.069 OA
ATOM     16  O   UNL     1      32.951 -21.894 -19.389  0.00  0.00    -0.069 OA
ENDBRANCH  12  13
ENDBRANCH  11  12
ENDBRANCH  10  11
ENDBRANCH   1  10
TORSDOF 5
ENDMDL
MODEL 9
REMARK VINA RESULT:      -6.4      8.501      9.385
REMARK  Name = 12546061
REMARK  5 active torsions:
REMARK  status: ('A' for Active; 'I' for Inactive)
REMARK    1  A    between atoms: N_1  and  C_4
REMARK    2  A    between atoms: N_1  and  C_10
REMARK    3  A    between atoms: C_10  and  C_11
REMARK    4  A    between atoms: C_11  and  C_12
REMARK    5  A    between atoms: C_12  and  S_13
REMARK                            x       y       z     vdW  Elec       q    Type
REMARK                         _______ _______ _______ _____ _____    ______ ____
ROOT
ATOM      1  N   UNL     1      33.141 -23.784 -14.770  0.00  0.00    +0.385 N 
ATOM      2  H   UNL     1      33.411 -22.886 -15.172  0.00  0.00    -0.084 HD
ATOM      3  H   UNL     1      32.829 -24.452 -15.474  0.00  0.00    -0.084 HD
ENDROOT
BRANCH   1   4
ATOM      4  C   UNL     1      31.989 -23.557 -13.850  0.00  0.00    -0.062 C 
ATOM      5  C   UNL     1      31.052 -22.516 -14.462  0.00  0.00    -0.021 C 
ATOM      6  C   UNL     1      31.284 -24.889 -13.586  0.00  0.00    -0.021 C 
ATOM      7  C   UNL     1      30.276 -23.044 -15.669  0.00  0.00    -0.002 C 
ATOM      8  C   UNL     1      30.509 -25.406 -14.799  0.00  0.00    -0.002 C 
ATOM      9  C   UNL     1      29.556 -24.350 -15.350  0.00  0.00    -0.000 C 
ENDBRANCH   1   4
BRANCH   1  10
ATOM     10  C   UNL     1      34.333 -24.379 -14.113  0.00  0.00    -0.080 C 
BRANCH  10  11
ATOM     11  C   UNL     1      35.249 -25.023 -15.146  0.00  0.00    +0.003 C 
BRANCH  11  12
ATOM     12  C   UNL     1      36.724 -24.938 -14.779  0.00  0.00    +0.156 C 
BRANCH  12  13
ATOM     13  S   UNL     1      37.497 -26.524 -14.866  0.00  0.00    +0.022 S 
ATOM     14  O   UNL     1      38.897 -26.197 -15.128  0.00  0.00    -0.069 OA
ATOM     15  O   UNL     1      37.234 -27.094 -13.545  0.00  0.00    -0.069 OA
ATOM     16  O   UNL     1      36.797 -27.175 -15.971  0.00  0.00    -0.069 OA
ENDBRANCH  12  13
ENDBRANCH  11  12
ENDBRANCH  10  11
ENDBRANCH   1  10
TORSDOF 5
ENDMDL
