MODEL 1
REMARK VINA RESULT:      -6.0      0.000      0.000
REMARK  Name = 46936619
REMARK  9 active torsions:
REMARK  status: ('A' for Active; 'I' for Inactive)
REMARK    1  A    between atoms: C_1  and  N_3
REMARK    2  A    between atoms: C_1  and  C_12
REMARK    3  A    between atoms: C_4  and  C_6
REMARK    4  A    between atoms: C_6  and  C_7
REMARK    5  A    between atoms: C_7  and  N_8
REMARK    6  A    between atoms: C_12  and  CA_13
REMARK    7  A    between atoms: CA_13  and  N_14
REMARK    8  A    between atoms: CA_13  and  C_19
REMARK    9  A    between atoms: C_19  and  O_20
REMARK                            x       y       z     vdW  Elec       q    Type
REMARK                         _______ _______ _______ _____ _____    ______ ____
ROOT
ATOM      1  C   UNL     1      36.947 -26.352 -14.954  0.00  0.00    +0.088 C 
ENDROOT
BRANCH   1   3
ATOM      2  O   UNL     1      35.620 -23.985 -15.873  0.00  0.00    -0.275 OA
ATOM      3  N   UNL     1      35.674 -25.857 -14.503  0.00  0.00    -0.304 N 
ATOM      4  C   UNL     1      35.109 -24.693 -15.010  0.00  0.00    +0.220 C 
ATOM      5  H   UNL     1      35.188 -26.360 -13.811  0.00  0.00    +0.149 HD
BRANCH   4   6
ATOM      6  C   UNL     1      33.766 -24.391 -14.369  0.00  0.00    +0.061 C 
BRANCH   6   7
ATOM      7  C   UNL     1      33.041 -23.241 -15.060  0.00  0.00    -0.077 C 
BRANCH   7   8
ATOM      8  N   UNL     1      32.080 -22.628 -14.150  0.00  0.00    +0.381 N 
ATOM      9  H   UNL     1      31.964 -23.223 -13.329  0.00  0.00    -0.089 HD
ATOM     10  H   UNL     1      31.184 -22.521 -14.623  0.00  0.00    -0.089 HD
ATOM     11  H   UNL     1      32.423 -21.712 -13.860  0.00  0.00    -0.089 HD
ENDBRANCH   7   8
ENDBRANCH   6   7
ENDBRANCH   4   6
ENDBRANCH   1   3
BRANCH   1  12
ATOM     12  C   UNL     1      38.021 -26.199 -13.880  0.00  0.00    +0.010 C 
BRANCH  12  13
ATOM     13  CA  UNL     1      39.138 -25.234 -14.289  0.00  0.00    +0.037 C 
BRANCH  13  14
ATOM     14  N   UNL     1      38.679 -24.396 -15.399  0.00  0.00    +0.389 N 
ATOM     15  H1  UNL     1      38.094 -24.949 -16.025  0.00  0.00    -0.088 HD
ATOM     16  H2  UNL     1      39.485 -24.040 -15.912  0.00  0.00    -0.088 HD
ATOM     17  H3  UNL     1      38.138 -23.612 -15.032  0.00  0.00    -0.088 HD
ENDBRANCH  13  14
BRANCH  13  19
ATOM     18  OXT UNL     1      41.180 -26.548 -14.071  0.00  0.00    -0.253 OA
ATOM     19  C   UNL     1      40.360 -25.984 -14.787  0.00  0.00    +0.293 C 
BRANCH  19  20
ATOM     20  O   UNL     1      40.472 -25.946 -16.140  0.00  0.00    -0.482 OA
ATOM     21  H   UNL     1      41.060 -25.339 -16.544  0.00  0.00    +0.295 HD
ENDBRANCH  19  20
ENDBRANCH  13  19
ENDBRANCH  12  13
ENDBRANCH   1  12
TORSDOF 9
ENDMDL
MODEL 2
REMARK VINA RESULT:      -5.9     10.849     12.310
REMARK  Name = 46936619
REMARK  9 active torsions:
REMARK  status: ('A' for Active; 'I' for Inactive)
REMARK    1  A    between atoms: C_1  and  N_3
REMARK    2  A    between atoms: C_1  and  C_12
REMARK    3  A    between atoms: C_4  and  C_6
REMARK    4  A    between atoms: C_6  and  C_7
REMARK    5  A    between atoms: C_7  and  N_8
REMARK    6  A    between atoms: C_12  and  CA_13
REMARK    7  A    between atoms: CA_13  and  N_14
REMARK    8  A    between atoms: CA_13  and  C_19
REMARK    9  A    between atoms: C_19  and  O_20
REMARK                            x       y       z     vdW  Elec       q    Type
REMARK                         _______ _______ _______ _____ _____    ______ ____
ROOT
ATOM      1  C   UNL     1      34.973 -17.934 -21.177  0.00  0.00    +0.088 C 
ENDROOT
BRANCH   1   3
ATOM      2  O   UNL     1      34.968 -15.243 -20.194  0.00  0.00    -0.275 OA
ATOM      3  N   UNL     1      33.927 -16.962 -21.353  0.00  0.00    -0.304 N 
ATOM      4  C   UNL     1      34.015 -15.675 -20.837  0.00  0.00    +0.220 C 
ATOM      5  H   UNL     1      33.122 -17.218 -21.857  0.00  0.00    +0.149 HD
BRANCH   4   6
ATOM      6  C   UNL     1      32.784 -14.849 -21.162  0.00  0.00    +0.061 C 
BRANCH   6   7
ATOM      7  C   UNL     1      32.863 -14.211 -22.545  0.00  0.00    -0.077 C 
BRANCH   7   8
ATOM      8  N   UNL     1      34.224 -13.766 -22.820  0.00  0.00    +0.381 N 
ATOM      9  H   UNL     1      34.878 -14.515 -22.592  0.00  0.00    -0.089 HD
ATOM     10  H   UNL     1      34.435 -12.946 -22.254  0.00  0.00    -0.089 HD
ATOM     11  H   UNL     1      34.310 -13.529 -23.809  0.00  0.00    -0.089 HD
ENDBRANCH   7   8
ENDBRANCH   6   7
ENDBRANCH   4   6
ENDBRANCH   1   3
BRANCH   1  12
ATOM     12  C   UNL     1      35.624 -18.304 -22.508  0.00  0.00    +0.010 C 
BRANCH  12  13
ATOM     13  CA  UNL     1      34.659 -18.198 -23.692  0.00  0.00    +0.037 C 
BRANCH  13  14
ATOM     14  N   UNL     1      34.772 -19.398 -24.525  0.00  0.00    +0.389 N 
ATOM     15  H1  UNL     1      34.897 -20.216 -23.928  0.00  0.00    -0.088 HD
ATOM     16  H2  UNL     1      35.573 -19.305 -25.148  0.00  0.00    -0.088 HD
ATOM     17  H3  UNL     1      33.921 -19.509 -25.079  0.00  0.00    -0.088 HD
ENDBRANCH  13  14
BRANCH  13  19
ATOM     18  OXT UNL     1      34.756 -16.943 -25.779  0.00  0.00    -0.253 OA
ATOM     19  C   UNL     1      35.003 -17.017 -24.581  0.00  0.00    +0.293 C 
BRANCH  19  20
ATOM     20  O   UNL     1      35.655 -16.036 -23.904  0.00  0.00    -0.482 OA
ATOM     21  H   UNL     1      35.289 -15.175 -23.861  0.00  0.00    +0.295 HD
ENDBRANCH  19  20
ENDBRANCH  13  19
ENDBRANCH  12  13
ENDBRANCH   1  12
TORSDOF 9
ENDMDL
MODEL 3
REMARK VINA RESULT:      -5.8     10.063     11.985
REMARK  Name = 46936619
REMARK  9 active torsions:
REMARK  status: ('A' for Active; 'I' for Inactive)
REMARK    1  A    between atoms: C_1  and  N_3
REMARK    2  A    between atoms: C_1  and  C_12
REMARK    3  A    between atoms: C_4  and  C_6
REMARK    4  A    between atoms: C_6  and  C_7
REMARK    5  A    between atoms: C_7  and  N_8
REMARK    6  A    between atoms: C_12  and  CA_13
REMARK    7  A    between atoms: CA_13  and  N_14
REMARK    8  A    between atoms: CA_13  and  C_19
REMARK    9  A    between atoms: C_19  and  O_20
REMARK                            x       y       z     vdW  Elec       q    Type
REMARK                         _______ _______ _______ _____ _____    ______ ____
ROOT
ATOM      1  C   UNL     1      35.297 -18.869 -23.632  0.00  0.00    +0.088 C 
ENDROOT
BRANCH   1   3
ATOM      2  O   UNL     1      34.919 -18.094 -20.900  0.00  0.00    -0.275 OA
ATOM      3  N   UNL     1      34.394 -19.474 -22.690  0.00  0.00    -0.304 N 
ATOM      4  C   UNL     1      34.279 -19.026 -21.379  0.00  0.00    +0.220 C 
ATOM      5  H   UNL     1      33.838 -20.230 -22.985  0.00  0.00    +0.149 HD
BRANCH   4   6
ATOM      6  C   UNL     1      33.259 -19.830 -20.594  0.00  0.00    +0.061 C 
BRANCH   6   7
ATOM      7  C   UNL     1      33.893 -20.999 -19.848  0.00  0.00    -0.077 C 
BRANCH   7   8
ATOM      8  N   UNL     1      32.873 -21.968 -19.462  0.00  0.00    +0.381 N 
ATOM      9  H   UNL     1      32.088 -21.910 -20.111  0.00  0.00    -0.089 HD
ATOM     10  H   UNL     1      32.550 -21.763 -18.518  0.00  0.00    -0.089 HD
ATOM     11  H   UNL     1      33.269 -22.907 -19.490  0.00  0.00    -0.089 HD
ENDBRANCH   7   8
ENDBRANCH   6   7
ENDBRANCH   4   6
ENDBRANCH   1   3
BRANCH   1  12
ATOM     12  C   UNL     1      34.545 -18.143 -24.745  0.00  0.00    +0.010 C 
BRANCH  12  13
ATOM     13  CA  UNL     1      34.939 -16.668 -24.865  0.00  0.00    +0.037 C 
BRANCH  13  14
ATOM     14  N   UNL     1      35.299 -16.148 -23.544  0.00  0.00    +0.389 N 
ATOM     15  H1  UNL     1      35.574 -16.920 -22.937  0.00  0.00    -0.088 HD
ATOM     16  H2  UNL     1      34.498 -15.665 -23.139  0.00  0.00    -0.088 HD
ATOM     17  H3  UNL     1      36.079 -15.495 -23.637  0.00  0.00    -0.088 HD
ENDBRANCH  13  14
BRANCH  13  19
ATOM     18  OXT UNL     1      33.328 -15.852 -26.503  0.00  0.00    -0.253 OA
ATOM     19  C   UNL     1      33.778 -15.826 -25.363  0.00  0.00    +0.293 C 
BRANCH  19  20
ATOM     20  O   UNL     1      33.292 -14.999 -24.401  0.00  0.00    -0.482 OA
ATOM     21  H   UNL     1      33.302 -15.268 -23.504  0.00  0.00    +0.295 HD
ENDBRANCH  19  20
ENDBRANCH  13  19
ENDBRANCH  12  13
ENDBRANCH   1  12
TORSDOF 9
ENDMDL
MODEL 4
REMARK VINA RESULT:      -5.8      8.839     10.568
REMARK  Name = 46936619
REMARK  9 active torsions:
REMARK  status: ('A' for Active; 'I' for Inactive)
REMARK    1  A    between atoms: C_1  and  N_3
REMARK    2  A    between atoms: C_1  and  C_12
REMARK    3  A    between atoms: C_4  and  C_6
REMARK    4  A    between atoms: C_6  and  C_7
REMARK    5  A    between atoms: C_7  and  N_8
REMARK    6  A    between atoms: C_12  and  CA_13
REMARK    7  A    between atoms: CA_13  and  N_14
REMARK    8  A    between atoms: CA_13  and  C_19
REMARK    9  A    between atoms: C_19  and  O_20
REMARK                            x       y       z     vdW  Elec       q    Type
REMARK                         _______ _______ _______ _____ _____    ______ ____
ROOT
ATOM      1  C   UNL     1      35.342 -18.204 -21.285  0.00  0.00    +0.088 C 
ENDROOT
BRANCH   1   3
ATOM      2  O   UNL     1      33.445 -20.298 -20.814  0.00  0.00    -0.275 OA
ATOM      3  N   UNL     1      35.557 -19.389 -20.499  0.00  0.00    -0.304 N 
ATOM      4  C   UNL     1      34.571 -20.354 -20.327  0.00  0.00    +0.220 C 
ATOM      5  H   UNL     1      36.431 -19.521 -20.068  0.00  0.00    +0.149 HD
BRANCH   4   6
ATOM      6  C   UNL     1      35.048 -21.502 -19.456  0.00  0.00    +0.061 C 
BRANCH   6   7
ATOM      7  C   UNL     1      34.032 -22.637 -19.386  0.00  0.00    -0.077 C 
BRANCH   7   8
ATOM      8  N   UNL     1      32.817 -22.188 -18.715  0.00  0.00    +0.381 N 
ATOM      9  H   UNL     1      32.412 -21.408 -19.234  0.00  0.00    -0.089 HD
ATOM     10  H   UNL     1      33.043 -21.886 -17.769  0.00  0.00    -0.089 HD
ATOM     11  H   UNL     1      32.146 -22.956 -18.677  0.00  0.00    -0.089 HD
ENDBRANCH   7   8
ENDBRANCH   6   7
ENDBRANCH   4   6
ENDBRANCH   1   3
BRANCH   1  12
ATOM     12  C   UNL     1      35.807 -18.397 -22.727  0.00  0.00    +0.010 C 
BRANCH  12  13
ATOM     13  CA  UNL     1      34.692 -18.152 -23.748  0.00  0.00    +0.037 C 
BRANCH  13  14
ATOM     14  N   UNL     1      34.625 -19.280 -24.680  0.00  0.00    +0.389 N 
ATOM     15  H1  UNL     1      33.831 -19.156 -25.308  0.00  0.00    -0.088 HD
ATOM     16  H2  UNL     1      34.513 -20.147 -24.156  0.00  0.00    -0.088 HD
ATOM     17  H3  UNL     1      35.487 -19.322 -25.226  0.00  0.00    -0.088 HD
ENDBRANCH  13  14
BRANCH  13  19
ATOM     18  OXT UNL     1      34.730 -16.804 -25.779  0.00  0.00    -0.253 OA
ATOM     19  C   UNL     1      34.970 -16.914 -24.582  0.00  0.00    +0.293 C 
BRANCH  19  20
ATOM     20  O   UNL     1      35.551 -15.924 -23.856  0.00  0.00    -0.482 OA
ATOM     21  H   UNL     1      36.141 -16.137 -23.161  0.00  0.00    +0.295 HD
ENDBRANCH  19  20
ENDBRANCH  13  19
ENDBRANCH  12  13
ENDBRANCH   1  12
TORSDOF 9
ENDMDL
MODEL 5
REMARK VINA RESULT:      -5.8      3.576      4.028
REMARK  Name = 46936619
REMARK  9 active torsions:
REMARK  status: ('A' for Active; 'I' for Inactive)
REMARK    1  A    between atoms: C_1  and  N_3
REMARK    2  A    between atoms: C_1  and  C_12
REMARK    3  A    between atoms: C_4  and  C_6
REMARK    4  A    between atoms: C_6  and  C_7
REMARK    5  A    between atoms: C_7  and  N_8
REMARK    6  A    between atoms: C_12  and  CA_13
REMARK    7  A    between atoms: CA_13  and  N_14
REMARK    8  A    between atoms: CA_13  and  C_19
REMARK    9  A    between atoms: C_19  and  O_20
REMARK                            x       y       z     vdW  Elec       q    Type
REMARK                         _______ _______ _______ _____ _____    ______ ____
ROOT
ATOM      1  C   UNL     1      36.218 -23.004 -14.454  0.00  0.00    +0.088 C 
ENDROOT
BRANCH   1   3
ATOM      2  O   UNL     1      34.457 -23.956 -16.504  0.00  0.00    -0.275 OA
ATOM      3  N   UNL     1      34.781 -22.970 -14.428  0.00  0.00    -0.304 N 
ATOM      4  C   UNL     1      34.008 -23.458 -15.475  0.00  0.00    +0.220 C 
ATOM      5  H   UNL     1      34.329 -22.587 -13.642  0.00  0.00    +0.149 HD
BRANCH   4   6
ATOM      6  C   UNL     1      32.522 -23.305 -15.201  0.00  0.00    +0.061 C 
BRANCH   6   7
ATOM      7  C   UNL     1      32.141 -23.772 -13.800  0.00  0.00    -0.077 C 
BRANCH   7   8
ATOM      8  N   UNL     1      32.339 -25.212 -13.675  0.00  0.00    +0.381 N 
ATOM      9  H   UNL     1      32.814 -25.562 -14.507  0.00  0.00    -0.089 HD
ATOM     10  H   UNL     1      31.435 -25.672 -13.581  0.00  0.00    -0.089 HD
ATOM     11  H   UNL     1      32.908 -25.406 -12.851  0.00  0.00    -0.089 HD
ENDBRANCH   7   8
ENDBRANCH   6   7
ENDBRANCH   4   6
ENDBRANCH   1   3
BRANCH   1  12
ATOM     12  C   UNL     1      36.771 -24.045 -13.483  0.00  0.00    +0.010 C 
BRANCH  12  13
ATOM     13  CA  UNL     1      36.849 -23.532 -12.042  0.00  0.00    +0.037 C 
BRANCH  13  14
ATOM     14  N   UNL     1      38.186 -23.787 -11.502  0.00  0.00    +0.389 N 
ATOM     15  H1  UNL     1      38.383 -23.124 -10.752  0.00  0.00    -0.088 HD
ATOM     16  H2  UNL     1      38.878 -23.679 -12.243  0.00  0.00    -0.088 HD
ATOM     17  H3  UNL     1      38.228 -24.738 -11.134  0.00  0.00    -0.088 HD
ENDBRANCH  13  14
BRANCH  13  19
ATOM     18  OXT UNL     1      35.931 -24.304  -9.920  0.00  0.00    -0.253 OA
ATOM     19  C   UNL     1      35.869 -24.264 -11.143  0.00  0.00    +0.293 C 
BRANCH  19  20
ATOM     20  O   UNL     1      34.905 -24.909 -11.850  0.00  0.00    -0.482 OA
ATOM     21  H   UNL     1      35.069 -25.175 -12.732  0.00  0.00    +0.295 HD
ENDBRANCH  19  20
ENDBRANCH  13  19
ENDBRANCH  12  13
ENDBRANCH   1  12
TORSDOF 9
ENDMDL
MODEL 6
REMARK VINA RESULT:      -5.7      5.647      8.622
REMARK  Name = 46936619
REMARK  9 active torsions:
REMARK  status: ('A' for Active; 'I' for Inactive)
REMARK    1  A    between atoms: C_1  and  N_3
REMARK    2  A    between atoms: C_1  and  C_12
REMARK    3  A    between atoms: C_4  and  C_6
REMARK    4  A    between atoms: C_6  and  C_7
REMARK    5  A    between atoms: C_7  and  N_8
REMARK    6  A    between atoms: C_12  and  CA_13
REMARK    7  A    between atoms: CA_13  and  N_14
REMARK    8  A    between atoms: CA_13  and  C_19
REMARK    9  A    between atoms: C_19  and  O_20
REMARK                            x       y       z     vdW  Elec       q    Type
REMARK                         _______ _______ _______ _____ _____    ______ ____
ROOT
ATOM      1  C   UNL     1      31.482 -23.560 -16.219  0.00  0.00    +0.088 C 
ENDROOT
BRANCH   1   3
ATOM      2  O   UNL     1      34.125 -23.651 -17.323  0.00  0.00    -0.275 OA
ATOM      3  N   UNL     1      31.971 -22.786 -17.329  0.00  0.00    -0.304 N 
ATOM      4  C   UNL     1      33.275 -22.900 -17.796  0.00  0.00    +0.220 C 
ATOM      5  H   UNL     1      31.360 -22.155 -17.773  0.00  0.00    +0.149 HD
BRANCH   4   6
ATOM      6  C   UNL     1      33.537 -21.978 -18.973  0.00  0.00    +0.061 C 
BRANCH   6   7
ATOM      7  C   UNL     1      34.941 -22.153 -19.544  0.00  0.00    -0.077 C 
BRANCH   7   8
ATOM      8  N   UNL     1      35.941 -21.735 -18.568  0.00  0.00    +0.381 N 
ATOM      9  H   UNL     1      36.369 -20.861 -18.875  0.00  0.00    -0.089 HD
ATOM     10  H   UNL     1      36.657 -22.455 -18.486  0.00  0.00    -0.089 HD
ATOM     11  H   UNL     1      35.493 -21.595 -17.662  0.00  0.00    -0.089 HD
ENDBRANCH   7   8
ENDBRANCH   6   7
ENDBRANCH   4   6
ENDBRANCH   1   3
BRANCH   1  12
ATOM     12  C   UNL     1      30.454 -22.780 -15.402  0.00  0.00    +0.010 C 
BRANCH  12  13
ATOM     13  CA  UNL     1      29.055 -23.401 -15.460  0.00  0.00    +0.037 C 
BRANCH  13  14
ATOM     14  N   UNL     1      29.166 -24.861 -15.450  0.00  0.00    +0.389 N 
ATOM     15  H1  UNL     1      28.426 -25.256 -14.869  0.00  0.00    -0.088 HD
ATOM     16  H2  UNL     1      30.075 -25.130 -15.074  0.00  0.00    -0.088 HD
ATOM     17  H3  UNL     1      29.075 -25.215 -16.403  0.00  0.00    -0.088 HD
ENDBRANCH  13  14
BRANCH  13  19
ATOM     18  OXT UNL     1      28.207 -21.885 -17.170  0.00  0.00    -0.253 OA
ATOM     19  C   UNL     1      28.338 -23.027 -16.744  0.00  0.00    +0.293 C 
BRANCH  19  20
ATOM     20  O   UNL     1      27.820 -24.111 -17.379  0.00  0.00    -0.482 OA
ATOM     21  H   UNL     1      27.810 -24.944 -16.951  0.00  0.00    +0.295 HD
ENDBRANCH  19  20
ENDBRANCH  13  19
ENDBRANCH  12  13
ENDBRANCH   1  12
TORSDOF 9
ENDMDL
MODEL 7
REMARK VINA RESULT:      -5.7      6.910      8.717
REMARK  Name = 46936619
REMARK  9 active torsions:
REMARK  status: ('A' for Active; 'I' for Inactive)
REMARK    1  A    between atoms: C_1  and  N_3
REMARK    2  A    between atoms: C_1  and  C_12
REMARK    3  A    between atoms: C_4  and  C_6
REMARK    4  A    between atoms: C_6  and  C_7
REMARK    5  A    between atoms: C_7  and  N_8
REMARK    6  A    between atoms: C_12  and  CA_13
REMARK    7  A    between atoms: CA_13  and  N_14
REMARK    8  A    between atoms: CA_13  and  C_19
REMARK    9  A    between atoms: C_19  and  O_20
REMARK                            x       y       z     vdW  Elec       q    Type
REMARK                         _______ _______ _______ _____ _____    ______ ____
ROOT
ATOM      1  C   UNL     1      35.959 -21.110 -20.270  0.00  0.00    +0.088 C 
ENDROOT
BRANCH   1   3
ATOM      2  O   UNL     1      34.296 -19.531 -21.989  0.00  0.00    -0.275 OA
ATOM      3  N   UNL     1      35.938 -19.674 -20.355  0.00  0.00    -0.304 N 
ATOM      4  C   UNL     1      35.093 -18.994 -21.224  0.00  0.00    +0.220 C 
ATOM      5  H   UNL     1      36.545 -19.156 -19.779  0.00  0.00    +0.149 HD
BRANCH   4   6
ATOM      6  C   UNL     1      35.266 -17.490 -21.120  0.00  0.00    +0.061 C 
BRANCH   6   7
ATOM      7  C   UNL     1      34.916 -16.775 -22.421  0.00  0.00    -0.077 C 
BRANCH   7   8
ATOM      8  N   UNL     1      35.686 -17.332 -23.528  0.00  0.00    +0.381 N 
ATOM      9  H   UNL     1      35.361 -16.925 -24.405  0.00  0.00    -0.089 HD
ATOM     10  H   UNL     1      35.562 -18.342 -23.554  0.00  0.00    -0.089 HD
ATOM     11  H   UNL     1      36.674 -17.113 -23.397  0.00  0.00    -0.089 HD
ENDBRANCH   7   8
ENDBRANCH   6   7
ENDBRANCH   4   6
ENDBRANCH   1   3
BRANCH   1  12
ATOM     12  C   UNL     1      35.253 -21.606 -19.010  0.00  0.00    +0.010 C 
BRANCH  12  13
ATOM     13  CA  UNL     1      33.901 -22.262 -19.305  0.00  0.00    +0.037 C 
BRANCH  13  14
ATOM     14  N   UNL     1      32.957 -21.246 -19.777  0.00  0.00    +0.389 N 
ATOM     15  H1  UNL     1      33.205 -20.964 -20.726  0.00  0.00    -0.088 HD
ATOM     16  H2  UNL     1      32.994 -20.435 -19.161  0.00  0.00    -0.088 HD
ATOM     17  H3  UNL     1      32.012 -21.632 -19.774  0.00  0.00    -0.088 HD
ENDBRANCH  13  14
BRANCH  13  19
ATOM     18  OXT UNL     1      32.128 -22.745 -17.703  0.00  0.00    -0.253 OA
ATOM     19  C   UNL     1      33.297 -22.868 -18.052  0.00  0.00    +0.293 C 
BRANCH  19  20
ATOM     20  O   UNL     1      34.211 -23.558 -17.321  0.00  0.00    -0.482 OA
ATOM     21  H   UNL     1      35.075 -23.690 -17.656  0.00  0.00    +0.295 HD
ENDBRANCH  19  20
ENDBRANCH  13  19
ENDBRANCH  12  13
ENDBRANCH   1  12
TORSDOF 9
ENDMDL
MODEL 8
REMARK VINA RESULT:      -5.7      3.371      4.393
REMARK  Name = 46936619
REMARK  9 active torsions:
REMARK  status: ('A' for Active; 'I' for Inactive)
REMARK    1  A    between atoms: C_1  and  N_3
REMARK    2  A    between atoms: C_1  and  C_12
REMARK    3  A    between atoms: C_4  and  C_6
REMARK    4  A    between atoms: C_6  and  C_7
REMARK    5  A    between atoms: C_7  and  N_8
REMARK    6  A    between atoms: C_12  and  CA_13
REMARK    7  A    between atoms: CA_13  and  N_14
REMARK    8  A    between atoms: CA_13  and  C_19
REMARK    9  A    between atoms: C_19  and  O_20
REMARK                            x       y       z     vdW  Elec       q    Type
REMARK                         _______ _______ _______ _____ _____    ______ ____
ROOT
ATOM      1  C   UNL     1      37.327 -25.832 -14.121  0.00  0.00    +0.088 C 
ENDROOT
BRANCH   1   3
ATOM      2  O   UNL     1      38.375 -23.531 -15.468  0.00  0.00    -0.275 OA
ATOM      3  N   UNL     1      36.562 -24.767 -14.713  0.00  0.00    -0.304 N 
ATOM      4  C   UNL     1      37.163 -23.686 -15.348  0.00  0.00    +0.220 C 
ATOM      5  H   UNL     1      35.580 -24.805 -14.667  0.00  0.00    +0.149 HD
BRANCH   4   6
ATOM      6  C   UNL     1      36.138 -22.705 -15.887  0.00  0.00    +0.061 C 
BRANCH   6   7
ATOM      7  C   UNL     1      36.606 -22.024 -17.168  0.00  0.00    -0.077 C 
BRANCH   7   8
ATOM      8  N   UNL     1      37.373 -20.824 -16.853  0.00  0.00    +0.381 N 
ATOM      9  H   UNL     1      37.846 -20.494 -17.694  0.00  0.00    -0.089 HD
ATOM     10  H   UNL     1      38.064 -21.041 -16.137  0.00  0.00    -0.089 HD
ATOM     11  H   UNL     1      36.743 -20.099 -16.510  0.00  0.00    -0.089 HD
ENDBRANCH   7   8
ENDBRANCH   6   7
ENDBRANCH   4   6
ENDBRANCH   1   3
BRANCH   1  12
ATOM     12  C   UNL     1      37.606 -25.566 -12.643  0.00  0.00    +0.010 C 
BRANCH  12  13
ATOM     13  CA  UNL     1      37.012 -24.241 -12.154  0.00  0.00    +0.037 C 
BRANCH  13  14
ATOM     14  N   UNL     1      38.042 -23.474 -11.449  0.00  0.00    +0.389 N 
ATOM     15  H1  UNL     1      38.534 -22.875 -12.111  0.00  0.00    -0.088 HD
ATOM     16  H2  UNL     1      38.704 -24.115 -11.012  0.00  0.00    -0.088 HD
ATOM     17  H3  UNL     1      37.603 -22.898 -10.730  0.00  0.00    -0.088 HD
ENDBRANCH  13  14
BRANCH  13  19
ATOM     18  OXT UNL     1      35.959 -24.275  -9.956  0.00  0.00    -0.253 OA
ATOM     19  C   UNL     1      35.887 -24.474 -11.164  0.00  0.00    +0.293 C 
BRANCH  19  20
ATOM     20  O   UNL     1      34.768 -24.962 -11.760  0.00  0.00    -0.482 OA
ATOM     21  H   UNL     1      34.726 -25.863 -12.010  0.00  0.00    +0.295 HD
ENDBRANCH  19  20
ENDBRANCH  13  19
ENDBRANCH  12  13
ENDBRANCH   1  12
TORSDOF 9
ENDMDL
MODEL 9
REMARK VINA RESULT:      -5.6      7.464      9.144
REMARK  Name = 46936619
REMARK  9 active torsions:
REMARK  status: ('A' for Active; 'I' for Inactive)
REMARK    1  A    between atoms: C_1  and  N_3
REMARK    2  A    between atoms: C_1  and  C_12
REMARK    3  A    between atoms: C_4  and  C_6
REMARK    4  A    between atoms: C_6  and  C_7
REMARK    5  A    between atoms: C_7  and  N_8
REMARK    6  A    between atoms: C_12  and  CA_13
REMARK    7  A    between atoms: CA_13  and  N_14
REMARK    8  A    between atoms: CA_13  and  C_19
REMARK    9  A    between atoms: C_19  and  O_20
REMARK                            x       y       z     vdW  Elec       q    Type
REMARK                         _______ _______ _______ _____ _____    ______ ____
ROOT
ATOM      1  C   UNL     1      32.969 -20.169 -20.942  0.00  0.00    +0.088 C 
ENDROOT
BRANCH   1   3
ATOM      2  O   UNL     1      34.722 -19.392 -23.071  0.00  0.00    -0.275 OA
ATOM      3  N   UNL     1      33.803 -18.998 -20.977  0.00  0.00    -0.304 N 
ATOM      4  C   UNL     1      34.624 -18.704 -22.059  0.00  0.00    +0.220 C 
ATOM      5  H   UNL     1      33.792 -18.384 -20.207  0.00  0.00    +0.149 HD
BRANCH   4   6
ATOM      6  C   UNL     1      35.399 -17.416 -21.847  0.00  0.00    +0.061 C 
BRANCH   6   7
ATOM      7  C   UNL     1      34.991 -16.326 -22.833  0.00  0.00    -0.077 C 
BRANCH   7   8
ATOM      8  N   UNL     1      35.392 -16.691 -24.187  0.00  0.00    +0.381 N 
ATOM      9  H   UNL     1      34.732 -17.372 -24.563  0.00  0.00    -0.089 HD
ATOM     10  H   UNL     1      36.326 -17.098 -24.166  0.00  0.00    -0.089 HD
ATOM     11  H   UNL     1      35.396 -15.859 -24.776  0.00  0.00    -0.089 HD
ENDBRANCH   7   8
ENDBRANCH   6   7
ENDBRANCH   4   6
ENDBRANCH   1   3
BRANCH   1  12
ATOM     12  C   UNL     1      33.041 -20.869 -19.587  0.00  0.00    +0.010 C 
BRANCH  12  13
ATOM     13  CA  UNL     1      34.038 -22.032 -19.572  0.00  0.00    +0.037 C 
BRANCH  13  14
ATOM     14  N   UNL     1      33.548 -23.086 -18.680  0.00  0.00    +0.389 N 
ATOM     15  H1  UNL     1      34.262 -23.303 -17.985  0.00  0.00    -0.088 HD
ATOM     16  H2  UNL     1      33.338 -23.921 -19.225  0.00  0.00    -0.088 HD
ATOM     17  H3  UNL     1      32.701 -22.766 -18.209  0.00  0.00    -0.088 HD
ENDBRANCH  13  14
BRANCH  13  19
ATOM     18  OXT UNL     1      36.054 -20.665 -19.467  0.00  0.00    -0.253 OA
ATOM     19  C   UNL     1      35.386 -21.595 -19.029  0.00  0.00    +0.293 C 
BRANCH  19  20
ATOM     20  O   UNL     1      35.803 -22.374 -17.997  0.00  0.00    -0.482 OA
ATOM     21  H   UNL     1      35.768 -23.307 -18.070  0.00  0.00    +0.295 HD
ENDBRANCH  19  20
ENDBRANCH  13  19
ENDBRANCH  12  13
ENDBRANCH   1  12
TORSDOF 9
ENDMDL
