MODEL 1
REMARK VINA RESULT:      -9.7      0.000      0.000
REMARK  Name = 46937051
REMARK  7 active torsions:
REMARK  status: ('A' for Active; 'I' for Inactive)
REMARK    1  A    between atoms: C_2  and  N_6
REMARK    2  A    between atoms: C_4  and  O_16
REMARK    3  A    between atoms: C_5  and  C_18
REMARK    4  A    between atoms: C_18  and  O_19
REMARK    5  A    between atoms: O_19  and  P_20
REMARK    6  A    between atoms: P_20  and  O_22
REMARK    7  A    between atoms: P_20  and  O_24
REMARK                            x       y       z     vdW  Elec       q    Type
REMARK                         _______ _______ _______ _____ _____    ______ ____
ROOT
ATOM      1  O   UNL     1      37.628 -23.569 -13.807  0.00  0.00    -0.335 OA
ATOM      2  C   UNL     1      36.328 -22.984 -13.604  0.00  0.00    +0.199 C 
ATOM      3  C   UNL     1      35.716 -23.703 -12.407  0.00  0.00    +0.083 C 
ATOM      4  C   UNL     1      36.936 -24.031 -11.580  0.00  0.00    +0.144 C 
ATOM      5  C   UNL     1      37.996 -24.322 -12.635  0.00  0.00    +0.174 C 
ENDROOT
BRANCH   2   6
ATOM      6  N   UNL     1      35.472 -23.063 -14.843  0.00  0.00    -0.264 N 
ATOM      7  C   UNL     1      35.799 -22.546 -16.076  0.00  0.00    +0.053 C 
ATOM      8  C   UNL     1      34.246 -23.670 -14.896  0.00  0.00    +0.067 C 
ATOM      9  C   UNL     1      34.740 -22.837 -16.938  0.00  0.00    +0.011 C 
ATOM     10  C   UNL     1      33.768 -23.547 -16.181  0.00  0.00    +0.017 C 
ATOM     11  C   UNL     1      36.939 -21.848 -16.490  0.00  0.00    +0.015 C 
ATOM     12  C   UNL     1      34.821 -22.413 -18.280  0.00  0.00    -0.021 C 
ATOM     13  C   UNL     1      36.998 -21.437 -17.824  0.00  0.00    +0.001 C 
ATOM     14  C   UNL     1      35.955 -21.714 -18.707  0.00  0.00    -0.004 C 
ATOM     15  C   UNL     1      33.735 -22.681 -19.273  0.00  0.00    +0.031 C 
ENDBRANCH   2   6
BRANCH   4  16
ATOM     16  O   UNL     1      37.305 -22.873 -10.837  0.00  0.00    -0.382 OA
ATOM     17  H   UNL     1      37.404 -23.106  -9.900  0.00  0.00    +0.210 HD
ENDBRANCH   4  16
BRANCH   5  18
ATOM     18  C   UNL     1      38.055 -25.794 -13.020  0.00  0.00    +0.186 C 
BRANCH  18  19
ATOM     19  O   UNL     1      39.414 -26.185 -13.112  0.00  0.00    -0.271 OA
BRANCH  19  20
ATOM     20  P   UNL     1      40.248 -25.778 -14.439  0.00  0.00    +0.473 P 
ATOM     21  O   UNL     1      41.031 -24.502 -14.329  0.00  0.00    -0.227 OA
BRANCH  20  22
ATOM     22  O   UNL     1      39.138 -25.809 -15.615  0.00  0.00    -0.303 OA
ATOM     23  H   UNL     1      39.561 -26.059 -16.451  0.00  0.00    +0.222 HD
ENDBRANCH  20  22
BRANCH  20  24
ATOM     24  O   UNL     1      41.133 -27.100 -14.728  0.00  0.00    -0.303 OA
ATOM     25  H   UNL     1      40.689 -27.875 -14.350  0.00  0.00    +0.222 HD
ENDBRANCH  20  24
ENDBRANCH  19  20
ENDBRANCH  18  19
ENDBRANCH   5  18
TORSDOF 7
ENDMDL
MODEL 2
REMARK VINA RESULT:      -9.6      1.252      2.231
REMARK  Name = 46937051
REMARK  7 active torsions:
REMARK  status: ('A' for Active; 'I' for Inactive)
REMARK    1  A    between atoms: C_2  and  N_6
REMARK    2  A    between atoms: C_4  and  O_16
REMARK    3  A    between atoms: C_5  and  C_18
REMARK    4  A    between atoms: C_18  and  O_19
REMARK    5  A    between atoms: O_19  and  P_20
REMARK    6  A    between atoms: P_20  and  O_22
REMARK    7  A    between atoms: P_20  and  O_24
REMARK                            x       y       z     vdW  Elec       q    Type
REMARK                         _______ _______ _______ _____ _____    ______ ____
ROOT
ATOM      1  O   UNL     1      36.817 -22.912 -13.043  0.00  0.00    -0.335 OA
ATOM      2  C   UNL     1      35.854 -23.381 -14.005  0.00  0.00    +0.199 C 
ATOM      3  C   UNL     1      35.919 -24.904 -13.970  0.00  0.00    +0.083 C 
ATOM      4  C   UNL     1      36.279 -25.169 -12.527  0.00  0.00    +0.144 C 
ATOM      5  C   UNL     1      37.199 -24.005 -12.183  0.00  0.00    +0.174 C 
ENDROOT
BRANCH   2   6
ATOM      6  N   UNL     1      36.103 -22.810 -15.379  0.00  0.00    -0.264 N 
ATOM      7  C   UNL     1      35.196 -22.792 -16.414  0.00  0.00    +0.053 C 
ATOM      8  C   UNL     1      37.279 -22.229 -15.771  0.00  0.00    +0.067 C 
ATOM      9  C   UNL     1      35.823 -22.177 -17.500  0.00  0.00    +0.011 C 
ATOM     10  C   UNL     1      37.136 -21.827 -17.080  0.00  0.00    +0.017 C 
ATOM     11  C   UNL     1      33.881 -23.268 -16.472  0.00  0.00    +0.015 C 
ATOM     12  C   UNL     1      35.105 -22.029 -18.703  0.00  0.00    -0.021 C 
ATOM     13  C   UNL     1      33.189 -23.111 -17.676  0.00  0.00    +0.001 C 
ATOM     14  C   UNL     1      33.790 -22.501 -18.775  0.00  0.00    -0.004 C 
ATOM     15  C   UNL     1      35.697 -21.382 -19.916  0.00  0.00    +0.031 C 
ENDBRANCH   2   6
BRANCH   4  16
ATOM     16  O   UNL     1      35.092 -25.090 -11.742  0.00  0.00    -0.382 OA
ATOM     17  H   UNL     1      34.606 -24.282 -11.970  0.00  0.00    +0.210 HD
ENDBRANCH   4  16
BRANCH   5  18
ATOM     18  C   UNL     1      38.666 -24.317 -12.444  0.00  0.00    +0.186 C 
BRANCH  18  19
ATOM     19  O   UNL     1      38.759 -25.606 -13.024  0.00  0.00    -0.271 OA
BRANCH  19  20
ATOM     20  P   UNL     1      39.614 -25.780 -14.388  0.00  0.00    +0.473 P 
ATOM     21  O   UNL     1      40.931 -26.482 -14.226  0.00  0.00    -0.227 OA
BRANCH  20  22
ATOM     22  O   UNL     1      39.700 -24.278 -14.982  0.00  0.00    -0.303 OA
ATOM     23  H   UNL     1      39.288 -23.660 -14.357  0.00  0.00    +0.222 HD
ENDBRANCH  20  22
BRANCH  20  24
ATOM     24  O   UNL     1      38.568 -26.513 -15.380  0.00  0.00    -0.303 OA
ATOM     25  H   UNL     1      38.915 -27.383 -15.630  0.00  0.00    +0.222 HD
ENDBRANCH  20  24
ENDBRANCH  19  20
ENDBRANCH  18  19
ENDBRANCH   5  18
TORSDOF 7
ENDMDL
MODEL 3
REMARK VINA RESULT:      -9.2      5.691      7.253
REMARK  Name = 46937051
REMARK  7 active torsions:
REMARK  status: ('A' for Active; 'I' for Inactive)
REMARK    1  A    between atoms: C_2  and  N_6
REMARK    2  A    between atoms: C_4  and  O_16
REMARK    3  A    between atoms: C_5  and  C_18
REMARK    4  A    between atoms: C_18  and  O_19
REMARK    5  A    between atoms: O_19  and  P_20
REMARK    6  A    between atoms: P_20  and  O_22
REMARK    7  A    between atoms: P_20  and  O_24
REMARK                            x       y       z     vdW  Elec       q    Type
REMARK                         _______ _______ _______ _____ _____    ______ ____
ROOT
ATOM      1  O   UNL     1      31.970 -25.372 -14.656  0.00  0.00    -0.335 OA
ATOM      2  C   UNL     1      32.640 -24.370 -13.867  0.00  0.00    +0.199 C 
ATOM      3  C   UNL     1      31.593 -23.312 -13.538  0.00  0.00    +0.083 C 
ATOM      4  C   UNL     1      30.328 -24.135 -13.463  0.00  0.00    +0.144 C 
ATOM      5  C   UNL     1      30.545 -25.195 -14.534  0.00  0.00    +0.174 C 
ENDROOT
BRANCH   2   6
ATOM      6  N   UNL     1      33.848 -23.808 -14.573  0.00  0.00    -0.264 N 
ATOM      7  C   UNL     1      33.872 -23.343 -15.868  0.00  0.00    +0.053 C 
ATOM      8  C   UNL     1      35.087 -23.686 -14.004  0.00  0.00    +0.067 C 
ATOM      9  C   UNL     1      35.176 -22.913 -16.126  0.00  0.00    +0.011 C 
ATOM     10  C   UNL     1      35.931 -23.135 -14.941  0.00  0.00    +0.017 C 
ATOM     11  C   UNL     1      32.852 -23.271 -16.823  0.00  0.00    +0.015 C 
ATOM     12  C   UNL     1      35.477 -22.385 -17.397  0.00  0.00    -0.021 C 
ATOM     13  C   UNL     1      33.174 -22.745 -18.076  0.00  0.00    +0.001 C 
ATOM     14  C   UNL     1      34.466 -22.308 -18.361  0.00  0.00    -0.004 C 
ATOM     15  C   UNL     1      36.845 -21.900 -17.761  0.00  0.00    +0.031 C 
ENDBRANCH   2   6
BRANCH   4  16
ATOM     16  O   UNL     1      30.266 -24.754 -12.181  0.00  0.00    -0.382 OA
ATOM     17  H   UNL     1      29.375 -24.648 -11.812  0.00  0.00    +0.210 HD
ENDBRANCH   4  16
BRANCH   5  18
ATOM     18  C   UNL     1      30.005 -24.777 -15.895  0.00  0.00    +0.186 C 
BRANCH  18  19
ATOM     19  O   UNL     1      28.669 -24.333 -15.736  0.00  0.00    -0.271 OA
BRANCH  19  20
ATOM     20  P   UNL     1      28.208 -22.980 -16.495  0.00  0.00    +0.473 P 
ATOM     21  O   UNL     1      27.435 -22.010 -15.650  0.00  0.00    -0.227 OA
BRANCH  20  22
ATOM     22  O   UNL     1      27.437 -23.520 -17.810  0.00  0.00    -0.303 OA
ATOM     23  H   UNL     1      27.988 -24.179 -18.260  0.00  0.00    +0.222 HD
ENDBRANCH  20  22
BRANCH  20  24
ATOM     24  O   UNL     1      29.600 -22.408 -17.090  0.00  0.00    -0.303 OA
ATOM     25  H   UNL     1      29.492 -22.213 -18.033  0.00  0.00    +0.222 HD
ENDBRANCH  20  24
ENDBRANCH  19  20
ENDBRANCH  18  19
ENDBRANCH   5  18
TORSDOF 7
ENDMDL
MODEL 4
REMARK VINA RESULT:      -9.2      2.299      3.834
REMARK  Name = 46937051
REMARK  7 active torsions:
REMARK  status: ('A' for Active; 'I' for Inactive)
REMARK    1  A    between atoms: C_2  and  N_6
REMARK    2  A    between atoms: C_4  and  O_16
REMARK    3  A    between atoms: C_5  and  C_18
REMARK    4  A    between atoms: C_18  and  O_19
REMARK    5  A    between atoms: O_19  and  P_20
REMARK    6  A    between atoms: P_20  and  O_22
REMARK    7  A    between atoms: P_20  and  O_24
REMARK                            x       y       z     vdW  Elec       q    Type
REMARK                         _______ _______ _______ _____ _____    ______ ____
ROOT
ATOM      1  O   UNL     1      35.435 -24.279 -15.679  0.00  0.00    -0.335 OA
ATOM      2  C   UNL     1      36.021 -23.351 -16.611  0.00  0.00    +0.199 C 
ATOM      3  C   UNL     1      36.777 -22.324 -15.775  0.00  0.00    +0.083 C 
ATOM      4  C   UNL     1      37.220 -23.148 -14.590  0.00  0.00    +0.144 C 
ATOM      5  C   UNL     1      36.058 -24.112 -14.390  0.00  0.00    +0.174 C 
ENDROOT
BRANCH   2   6
ATOM      6  N   UNL     1      34.987 -22.731 -17.517  0.00  0.00    -0.264 N 
ATOM      7  C   UNL     1      35.250 -21.867 -18.557  0.00  0.00    +0.053 C 
ATOM      8  C   UNL     1      33.640 -22.955 -17.418  0.00  0.00    +0.067 C 
ATOM      9  C   UNL     1      34.022 -21.533 -19.134  0.00  0.00    +0.011 C 
ATOM     10  C   UNL     1      33.017 -22.228 -18.406  0.00  0.00    +0.017 C 
ATOM     11  C   UNL     1      36.467 -21.359 -19.025  0.00  0.00    +0.015 C 
ATOM     12  C   UNL     1      34.007 -20.652 -20.233  0.00  0.00    -0.021 C 
ATOM     13  C   UNL     1      36.427 -20.486 -20.115  0.00  0.00    +0.001 C 
ATOM     14  C   UNL     1      35.217 -20.136 -20.711  0.00  0.00    -0.004 C 
ATOM     15  C   UNL     1      32.740 -20.240 -20.914  0.00  0.00    +0.031 C 
ENDBRANCH   2   6
BRANCH   4  16
ATOM     16  O   UNL     1      38.389 -23.875 -14.956  0.00  0.00    -0.382 OA
ATOM     17  H   UNL     1      38.499 -24.633 -14.360  0.00  0.00    +0.210 HD
ENDBRANCH   4  16
BRANCH   5  18
ATOM     18  C   UNL     1      35.007 -23.577 -13.427  0.00  0.00    +0.186 C 
BRANCH  18  19
ATOM     19  O   UNL     1      34.867 -24.493 -12.354  0.00  0.00    -0.271 OA
BRANCH  19  20
ATOM     20  P   UNL     1      36.034 -24.556 -11.233  0.00  0.00    +0.473 P 
ATOM     21  O   UNL     1      36.881 -23.321 -11.131  0.00  0.00    -0.227 OA
BRANCH  20  22
ATOM     22  O   UNL     1      36.834 -25.916 -11.587  0.00  0.00    -0.303 OA
ATOM     23  H   UNL     1      36.361 -26.397 -12.284  0.00  0.00    +0.222 HD
ENDBRANCH  20  22
BRANCH  20  24
ATOM     24  O   UNL     1      35.222 -24.941  -9.889  0.00  0.00    -0.303 OA
ATOM     25  H   UNL     1      34.352 -24.513  -9.903  0.00  0.00    +0.222 HD
ENDBRANCH  20  24
ENDBRANCH  19  20
ENDBRANCH  18  19
ENDBRANCH   5  18
TORSDOF 7
ENDMDL
MODEL 5
REMARK VINA RESULT:      -9.2      5.787      7.331
REMARK  Name = 46937051
REMARK  7 active torsions:
REMARK  status: ('A' for Active; 'I' for Inactive)
REMARK    1  A    between atoms: C_2  and  N_6
REMARK    2  A    between atoms: C_4  and  O_16
REMARK    3  A    between atoms: C_5  and  C_18
REMARK    4  A    between atoms: C_18  and  O_19
REMARK    5  A    between atoms: O_19  and  P_20
REMARK    6  A    between atoms: P_20  and  O_22
REMARK    7  A    between atoms: P_20  and  O_24
REMARK                            x       y       z     vdW  Elec       q    Type
REMARK                         _______ _______ _______ _____ _____    ______ ____
ROOT
ATOM      1  O   UNL     1      31.915 -24.862 -15.343  0.00  0.00    -0.335 OA
ATOM      2  C   UNL     1      32.576 -23.601 -15.129  0.00  0.00    +0.199 C 
ATOM      3  C   UNL     1      31.504 -22.632 -14.641  0.00  0.00    +0.083 C 
ATOM      4  C   UNL     1      30.572 -23.549 -13.886  0.00  0.00    +0.144 C 
ATOM      5  C   UNL     1      30.626 -24.837 -14.696  0.00  0.00    +0.174 C 
ENDROOT
BRANCH   2   6
ATOM      6  N   UNL     1      33.290 -23.119 -16.366  0.00  0.00    -0.264 N 
ATOM      7  C   UNL     1      34.619 -22.764 -16.435  0.00  0.00    +0.053 C 
ATOM      8  C   UNL     1      32.698 -22.975 -17.592  0.00  0.00    +0.067 C 
ATOM      9  C   UNL     1      34.874 -22.381 -17.754  0.00  0.00    +0.011 C 
ATOM     10  C   UNL     1      33.654 -22.520 -18.472  0.00  0.00    +0.017 C 
ATOM     11  C   UNL     1      35.604 -22.752 -15.442  0.00  0.00    +0.015 C 
ATOM     12  C   UNL     1      36.175 -21.966 -18.100  0.00  0.00    -0.021 C 
ATOM     13  C   UNL     1      36.887 -22.336 -15.808  0.00  0.00    +0.001 C 
ATOM     14  C   UNL     1      37.170 -21.948 -17.116  0.00  0.00    -0.004 C 
ATOM     15  C   UNL     1      36.538 -21.540 -19.487  0.00  0.00    +0.031 C 
ENDBRANCH   2   6
BRANCH   4  16
ATOM     16  O   UNL     1      31.114 -23.776 -12.588  0.00  0.00    -0.382 OA
ATOM     17  H   UNL     1      30.715 -23.157 -11.956  0.00  0.00    +0.210 HD
ENDBRANCH   4  16
BRANCH   5  18
ATOM     18  C   UNL     1      29.557 -24.898 -15.778  0.00  0.00    +0.186 C 
BRANCH  18  19
ATOM     19  O   UNL     1      28.504 -24.017 -15.425  0.00  0.00    -0.271 OA
BRANCH  19  20
ATOM     20  P   UNL     1      27.961 -22.977 -16.540  0.00  0.00    +0.473 P 
ATOM     21  O   UNL     1      28.951 -21.933 -16.970  0.00  0.00    -0.227 OA
BRANCH  20  22
ATOM     22  O   UNL     1      26.590 -22.406 -15.897  0.00  0.00    -0.303 OA
ATOM     23  H   UNL     1      26.376 -22.909 -15.096  0.00  0.00    +0.222 HD
ENDBRANCH  20  22
BRANCH  20  24
ATOM     24  O   UNL     1      27.440 -23.952 -17.721  0.00  0.00    -0.303 OA
ATOM     25  H   UNL     1      26.481 -24.070 -17.643  0.00  0.00    +0.222 HD
ENDBRANCH  20  24
ENDBRANCH  19  20
ENDBRANCH  18  19
ENDBRANCH   5  18
TORSDOF 7
ENDMDL
MODEL 6
REMARK VINA RESULT:      -9.1      3.482      4.917
REMARK  Name = 46937051
REMARK  7 active torsions:
REMARK  status: ('A' for Active; 'I' for Inactive)
REMARK    1  A    between atoms: C_2  and  N_6
REMARK    2  A    between atoms: C_4  and  O_16
REMARK    3  A    between atoms: C_5  and  C_18
REMARK    4  A    between atoms: C_18  and  O_19
REMARK    5  A    between atoms: O_19  and  P_20
REMARK    6  A    between atoms: P_20  and  O_22
REMARK    7  A    between atoms: P_20  and  O_24
REMARK                            x       y       z     vdW  Elec       q    Type
REMARK                         _______ _______ _______ _____ _____    ______ ____
ROOT
ATOM      1  O   UNL     1      35.262 -24.521 -15.746  0.00  0.00    -0.335 OA
ATOM      2  C   UNL     1      35.844 -23.411 -16.454  0.00  0.00    +0.199 C 
ATOM      3  C   UNL     1      36.349 -22.440 -15.392  0.00  0.00    +0.083 C 
ATOM      4  C   UNL     1      36.731 -23.375 -14.269  0.00  0.00    +0.144 C 
ATOM      5  C   UNL     1      35.684 -24.476 -14.368  0.00  0.00    +0.174 C 
ENDROOT
BRANCH   2   6
ATOM      6  N   UNL     1      34.869 -22.780 -17.416  0.00  0.00    -0.264 N 
ATOM      7  C   UNL     1      35.200 -21.928 -18.446  0.00  0.00    +0.053 C 
ATOM      8  C   UNL     1      33.516 -22.981 -17.386  0.00  0.00    +0.067 C 
ATOM      9  C   UNL     1      34.010 -21.578 -19.088  0.00  0.00    +0.011 C 
ATOM     10  C   UNL     1      32.956 -22.251 -18.409  0.00  0.00    +0.017 C 
ATOM     11  C   UNL     1      36.448 -21.444 -18.854  0.00  0.00    +0.015 C 
ATOM     12  C   UNL     1      34.066 -20.704 -20.192  0.00  0.00    -0.021 C 
ATOM     13  C   UNL     1      36.479 -20.578 -19.950  0.00  0.00    +0.001 C 
ATOM     14  C   UNL     1      35.307 -20.212 -20.610  0.00  0.00    -0.004 C 
ATOM     15  C   UNL     1      32.843 -20.277 -20.940  0.00  0.00    +0.031 C 
ENDBRANCH   2   6
BRANCH   4  16
ATOM     16  O   UNL     1      38.021 -23.914 -14.548  0.00  0.00    -0.382 OA
ATOM     17  H   UNL     1      37.937 -24.852 -14.781  0.00  0.00    +0.210 HD
ENDBRANCH   4  16
BRANCH   5  18
ATOM     18  C   UNL     1      34.457 -24.200 -13.510  0.00  0.00    +0.186 C 
BRANCH  18  19
ATOM     19  O   UNL     1      33.305 -24.630 -14.214  0.00  0.00    -0.271 OA
BRANCH  19  20
ATOM     20  P   UNL     1      31.879 -23.956 -13.849  0.00  0.00    +0.473 P 
ATOM     21  O   UNL     1      31.127 -23.390 -15.019  0.00  0.00    -0.227 OA
BRANCH  20  22
ATOM     22  O   UNL     1      32.242 -22.896 -12.683  0.00  0.00    -0.303 OA
ATOM     23  H   UNL     1      32.284 -23.357 -11.830  0.00  0.00    +0.222 HD
ENDBRANCH  20  22
BRANCH  20  24
ATOM     24  O   UNL     1      31.114 -25.138 -13.053  0.00  0.00    -0.303 OA
ATOM     25  H   UNL     1      30.496 -25.584 -13.653  0.00  0.00    +0.222 HD
ENDBRANCH  20  24
ENDBRANCH  19  20
ENDBRANCH  18  19
ENDBRANCH   5  18
TORSDOF 7
ENDMDL
MODEL 7
REMARK VINA RESULT:      -8.9      5.753      7.573
REMARK  Name = 46937051
REMARK  7 active torsions:
REMARK  status: ('A' for Active; 'I' for Inactive)
REMARK    1  A    between atoms: C_2  and  N_6
REMARK    2  A    between atoms: C_4  and  O_16
REMARK    3  A    between atoms: C_5  and  C_18
REMARK    4  A    between atoms: C_18  and  O_19
REMARK    5  A    between atoms: O_19  and  P_20
REMARK    6  A    between atoms: P_20  and  O_22
REMARK    7  A    between atoms: P_20  and  O_24
REMARK                            x       y       z     vdW  Elec       q    Type
REMARK                         _______ _______ _______ _____ _____    ______ ____
ROOT
ATOM      1  O   UNL     1      31.715 -25.475 -14.609  0.00  0.00    -0.335 OA
ATOM      2  C   UNL     1      32.412 -24.410 -13.937  0.00  0.00    +0.199 C 
ATOM      3  C   UNL     1      31.373 -23.333 -13.646  0.00  0.00    +0.083 C 
ATOM      4  C   UNL     1      30.120 -24.153 -13.444  0.00  0.00    +0.144 C 
ATOM      5  C   UNL     1      30.296 -25.296 -14.435  0.00  0.00    +0.174 C 
ENDROOT
BRANCH   2   6
ATOM      6  N   UNL     1      33.581 -23.901 -14.742  0.00  0.00    -0.264 N 
ATOM      7  C   UNL     1      34.892 -23.879 -14.323  0.00  0.00    +0.053 C 
ATOM      8  C   UNL     1      33.482 -23.392 -16.009  0.00  0.00    +0.067 C 
ATOM      9  C   UNL     1      35.648 -23.336 -15.365  0.00  0.00    +0.011 C 
ATOM     10  C   UNL     1      34.745 -23.034 -16.422  0.00  0.00    +0.017 C 
ATOM     11  C   UNL     1      35.463 -24.294 -13.115  0.00  0.00    +0.015 C 
ATOM     12  C   UNL     1      37.040 -23.199 -15.194  0.00  0.00    -0.021 C 
ATOM     13  C   UNL     1      36.844 -24.148 -12.967  0.00  0.00    +0.001 C 
ATOM     14  C   UNL     1      37.623 -23.609 -13.990  0.00  0.00    -0.004 C 
ATOM     15  C   UNL     1      37.926 -22.629 -16.256  0.00  0.00    +0.031 C 
ENDBRANCH   2   6
BRANCH   4  16
ATOM     16  O   UNL     1      30.123 -24.665 -12.115  0.00  0.00    -0.382 OA
ATOM     17  H   UNL     1      29.925 -23.950 -11.491  0.00  0.00    +0.210 HD
ENDBRANCH   4  16
BRANCH   5  18
ATOM     18  C   UNL     1      29.690 -24.992 -15.798  0.00  0.00    +0.186 C 
BRANCH  18  19
ATOM     19  O   UNL     1      28.540 -24.184 -15.614  0.00  0.00    -0.271 OA
BRANCH  19  20
ATOM     20  P   UNL     1      28.243 -23.007 -16.685  0.00  0.00    +0.473 P 
ATOM     21  O   UNL     1      27.407 -23.417 -17.863  0.00  0.00    -0.227 OA
BRANCH  20  22
ATOM     22  O   UNL     1      29.713 -22.436 -17.046  0.00  0.00    -0.303 OA
ATOM     23  H   UNL     1      29.631 -21.539 -17.406  0.00  0.00    +0.222 HD
ENDBRANCH  20  22
BRANCH  20  24
ATOM     24  O   UNL     1      27.605 -21.838 -15.768  0.00  0.00    -0.303 OA
ATOM     25  H   UNL     1      28.291 -21.188 -15.548  0.00  0.00    +0.222 HD
ENDBRANCH  20  24
ENDBRANCH  19  20
ENDBRANCH  18  19
ENDBRANCH   5  18
TORSDOF 7
ENDMDL
MODEL 8
REMARK VINA RESULT:      -8.8      2.592      4.691
REMARK  Name = 46937051
REMARK  7 active torsions:
REMARK  status: ('A' for Active; 'I' for Inactive)
REMARK    1  A    between atoms: C_2  and  N_6
REMARK    2  A    between atoms: C_4  and  O_16
REMARK    3  A    between atoms: C_5  and  C_18
REMARK    4  A    between atoms: C_18  and  O_19
REMARK    5  A    between atoms: O_19  and  P_20
REMARK    6  A    between atoms: P_20  and  O_22
REMARK    7  A    between atoms: P_20  and  O_24
REMARK                            x       y       z     vdW  Elec       q    Type
REMARK                         _______ _______ _______ _____ _____    ______ ____
ROOT
ATOM      1  O   UNL     1      35.694 -25.082 -15.616  0.00  0.00    -0.335 OA
ATOM      2  C   UNL     1      35.417 -23.779 -16.163  0.00  0.00    +0.199 C 
ATOM      3  C   UNL     1      36.099 -22.773 -15.242  0.00  0.00    +0.083 C 
ATOM      4  C   UNL     1      37.300 -23.552 -14.760  0.00  0.00    +0.144 C 
ATOM      5  C   UNL     1      36.767 -24.976 -14.659  0.00  0.00    +0.174 C 
ENDROOT
BRANCH   2   6
ATOM      6  N   UNL     1      33.937 -23.533 -16.316  0.00  0.00    -0.264 N 
ATOM      7  C   UNL     1      32.968 -23.892 -15.407  0.00  0.00    +0.053 C 
ATOM      8  C   UNL     1      33.366 -22.910 -17.394  0.00  0.00    +0.067 C 
ATOM      9  C   UNL     1      31.740 -23.481 -15.931  0.00  0.00    +0.011 C 
ATOM     10  C   UNL     1      32.007 -22.863 -17.184  0.00  0.00    +0.017 C 
ATOM     11  C   UNL     1      33.082 -24.543 -14.173  0.00  0.00    +0.015 C 
ATOM     12  C   UNL     1      30.569 -23.731 -15.189  0.00  0.00    -0.021 C 
ATOM     13  C   UNL     1      31.907 -24.781 -13.456  0.00  0.00    +0.001 C 
ATOM     14  C   UNL     1      30.668 -24.381 -13.954  0.00  0.00    -0.004 C 
ATOM     15  C   UNL     1      29.212 -23.325 -15.672  0.00  0.00    +0.031 C 
ENDBRANCH   2   6
BRANCH   4  16
ATOM     16  O   UNL     1      38.312 -23.489 -15.762  0.00  0.00    -0.382 OA
ATOM     17  H   UNL     1      38.970 -22.820 -15.516  0.00  0.00    +0.210 HD
ENDBRANCH   4  16
BRANCH   5  18
ATOM     18  C   UNL     1      36.203 -25.297 -13.282  0.00  0.00    +0.186 C 
BRANCH  18  19
ATOM     19  O   UNL     1      37.016 -24.675 -12.303  0.00  0.00    -0.271 OA
BRANCH  19  20
ATOM     20  P   UNL     1      36.314 -23.686 -11.230  0.00  0.00    +0.473 P 
ATOM     21  O   UNL     1      36.193 -24.241  -9.840  0.00  0.00    -0.227 OA
BRANCH  20  22
ATOM     22  O   UNL     1      34.917 -23.282 -11.937  0.00  0.00    -0.303 OA
ATOM     23  H   UNL     1      34.943 -22.346 -12.192  0.00  0.00    +0.222 HD
ENDBRANCH  20  22
BRANCH  20  24
ATOM     24  O   UNL     1      37.196 -22.336 -11.351  0.00  0.00    -0.303 OA
ATOM     25  H   UNL     1      37.146 -21.841 -10.519  0.00  0.00    +0.222 HD
ENDBRANCH  20  24
ENDBRANCH  19  20
ENDBRANCH  18  19
ENDBRANCH   5  18
TORSDOF 7
ENDMDL
MODEL 9
REMARK VINA RESULT:      -8.7      1.895      3.213
REMARK  Name = 46937051
REMARK  7 active torsions:
REMARK  status: ('A' for Active; 'I' for Inactive)
REMARK    1  A    between atoms: C_2  and  N_6
REMARK    2  A    between atoms: C_4  and  O_16
REMARK    3  A    between atoms: C_5  and  C_18
REMARK    4  A    between atoms: C_18  and  O_19
REMARK    5  A    between atoms: O_19  and  P_20
REMARK    6  A    between atoms: P_20  and  O_22
REMARK    7  A    between atoms: P_20  and  O_24
REMARK                            x       y       z     vdW  Elec       q    Type
REMARK                         _______ _______ _______ _____ _____    ______ ____
ROOT
ATOM      1  O   UNL     1      36.770 -23.632 -14.245  0.00  0.00    -0.335 OA
ATOM      2  C   UNL     1      35.461 -23.580 -13.647  0.00  0.00    +0.199 C 
ATOM      3  C   UNL     1      35.327 -24.839 -12.798  0.00  0.00    +0.083 C 
ATOM      4  C   UNL     1      36.751 -25.072 -12.353  0.00  0.00    +0.144 C 
ATOM      5  C   UNL     1      37.565 -24.620 -13.559  0.00  0.00    +0.174 C 
ENDROOT
BRANCH   2   6
ATOM      6  N   UNL     1      34.372 -23.444 -14.681  0.00  0.00    -0.264 N 
ATOM      7  C   UNL     1      33.021 -23.417 -14.420  0.00  0.00    +0.053 C 
ATOM      8  C   UNL     1      34.596 -23.328 -16.027  0.00  0.00    +0.067 C 
ATOM      9  C   UNL     1      32.368 -23.279 -15.647  0.00  0.00    +0.011 C 
ATOM     10  C   UNL     1      33.374 -23.223 -16.651  0.00  0.00    +0.017 C 
ATOM     11  C   UNL     1      32.332 -23.503 -13.205  0.00  0.00    +0.015 C 
ATOM     12  C   UNL     1      30.960 -23.224 -15.664  0.00  0.00    -0.021 C 
ATOM     13  C   UNL     1      30.937 -23.448 -13.246  0.00  0.00    +0.001 C 
ATOM     14  C   UNL     1      30.259 -23.310 -14.456  0.00  0.00    -0.004 C 
ATOM     15  C   UNL     1      30.178 -23.076 -16.931  0.00  0.00    +0.031 C 
ENDBRANCH   2   6
BRANCH   4  16
ATOM     16  O   UNL     1      37.024 -24.219 -11.245  0.00  0.00    -0.382 OA
ATOM     17  H   UNL     1      36.433 -23.450 -11.273  0.00  0.00    +0.210 HD
ENDBRANCH   4  16
BRANCH   5  18
ATOM     18  C   UNL     1      37.850 -25.754 -14.535  0.00  0.00    +0.186 C 
BRANCH  18  19
ATOM     19  O   UNL     1      38.996 -26.458 -14.089  0.00  0.00    -0.271 OA
BRANCH  19  20
ATOM     20  P   UNL     1      40.457 -25.906 -14.514  0.00  0.00    +0.473 P 
ATOM     21  O   UNL     1      40.839 -24.588 -13.904  0.00  0.00    -0.227 OA
BRANCH  20  22
ATOM     22  O   UNL     1      40.423 -25.935 -16.131  0.00  0.00    -0.303 OA
ATOM     23  H   UNL     1      40.350 -26.853 -16.436  0.00  0.00    +0.222 HD
ENDBRANCH  20  22
BRANCH  20  24
ATOM     24  O   UNL     1      41.432 -27.140 -14.140  0.00  0.00    -0.303 OA
ATOM     25  H   UNL     1      41.025 -27.673 -13.439  0.00  0.00    +0.222 HD
ENDBRANCH  20  24
ENDBRANCH  19  20
ENDBRANCH  18  19
ENDBRANCH   5  18
TORSDOF 7
ENDMDL
