MODEL 1
REMARK VINA RESULT:      -7.6      0.000      0.000
REMARK  Name = 4513
REMARK  10 active torsions:
REMARK  status: ('A' for Active; 'I' for Inactive)
REMARK    1  A    between atoms: S_1  and  C_2
REMARK    2  A    between atoms: S_1  and  C_14
REMARK    3  A    between atoms: C_2  and  C_3
REMARK    4  A    between atoms: C_3  and  N_4
REMARK    5  A    between atoms: N_4  and  C_6
REMARK    6  A    between atoms: C_6  and  N_11
REMARK    7  A    between atoms: C_7  and  N_10
REMARK    8  A    between atoms: C_14  and  C_18
REMARK    9  A    between atoms: C_17  and  C_20
REMARK   10  A    between atoms: C_20  and  N_21
REMARK                            x       y       z     vdW  Elec       q    Type
REMARK                         _______ _______ _______ _____ _____    ______ ____
ROOT
ATOM      1  S   UNL     1      34.213 -23.425 -16.249  0.00  0.00    -0.131 S 
ENDROOT
BRANCH   1   2
ATOM      2  C   UNL     1      32.852 -23.528 -15.046  0.00  0.00    +0.079 C 
BRANCH   2   3
ATOM      3  C   UNL     1      33.243 -24.306 -13.796  0.00  0.00    +0.100 C 
BRANCH   3   4
ATOM      4  N   UNL     1      34.614 -24.757 -13.863  0.00  0.00    -0.319 N 
ATOM      5  H   UNL     1      34.904 -25.166 -14.710  0.00  0.00    +0.148 HD
BRANCH   4   6
ATOM      6  C   UNL     1      35.569 -24.672 -12.847  0.00  0.00    +0.118 C 
ATOM      7  C   UNL     1      35.651 -23.607 -12.020  0.00  0.00    +0.194 C 
BRANCH   7  10
ATOM      8  O   UNL     1      37.718 -23.017 -11.277  0.00  0.00    -0.126 OA
ATOM      9  O   UNL     1      36.352 -24.073  -9.908  0.00  0.00    -0.126 OA
ATOM     10  N   UNL     1      36.638 -23.562 -11.002  0.00  0.00    +0.062 N 
ENDBRANCH   7  10
BRANCH   6  11
ATOM     11  N   UNL     1      36.479 -25.720 -12.670  0.00  0.00    -0.319 N 
ATOM     12  C   UNL     1      37.454 -26.231 -13.604  0.00  0.00    +0.109 C 
ATOM     13  H   UNL     1      36.452 -26.167 -11.793  0.00  0.00    +0.148 HD
ENDBRANCH   6  11
ENDBRANCH   4   6
ENDBRANCH   3   4
ENDBRANCH   2   3
ENDBRANCH   1   2
BRANCH   1  14
ATOM     14  C   UNL     1      33.226 -23.104 -17.729  0.00  0.00    +0.113 C 
BRANCH  14  18
ATOM     15  S   UNL     1      35.643 -20.881 -20.009  0.00  0.00    -0.082 S 
ATOM     16  N   UNL     1      33.161 -21.313 -19.428  0.00  0.00    -0.409 NA
ATOM     17  C   UNL     1      33.961 -20.585 -20.176  0.00  0.00    +0.113 C 
ATOM     18  C   UNL     1      33.926 -22.172 -18.663  0.00  0.00    +0.109 C 
ATOM     19  C   UNL     1      35.291 -22.085 -18.840  0.00  0.00    +0.119 C 
BRANCH  17  20
ATOM     20  C   UNL     1      33.503 -19.550 -21.128  0.00  0.00    -0.010 C 
BRANCH  20  21
ATOM     21  N   UNL     1      34.626 -18.826 -21.737  0.00  0.00    +0.389 N 
ATOM     22  C   UNL     1      34.538 -17.402 -21.424  0.00  0.00    -0.100 C 
ATOM     23  C   UNL     1      34.638 -19.036 -23.182  0.00  0.00    -0.100 C 
ATOM     24  H   UNL     1      35.500 -19.186 -21.352  0.00  0.00    -0.079 HD
ENDBRANCH  20  21
ENDBRANCH  17  20
ENDBRANCH  14  18
ENDBRANCH   1  14
TORSDOF 10
ENDMDL
MODEL 2
REMARK VINA RESULT:      -7.4      1.725      2.132
REMARK  Name = 4513
REMARK  10 active torsions:
REMARK  status: ('A' for Active; 'I' for Inactive)
REMARK    1  A    between atoms: S_1  and  C_2
REMARK    2  A    between atoms: S_1  and  C_14
REMARK    3  A    between atoms: C_2  and  C_3
REMARK    4  A    between atoms: C_3  and  N_4
REMARK    5  A    between atoms: N_4  and  C_6
REMARK    6  A    between atoms: C_6  and  N_11
REMARK    7  A    between atoms: C_7  and  N_10
REMARK    8  A    between atoms: C_14  and  C_18
REMARK    9  A    between atoms: C_17  and  C_20
REMARK   10  A    between atoms: C_20  and  N_21
REMARK                            x       y       z     vdW  Elec       q    Type
REMARK                         _______ _______ _______ _____ _____    ______ ____
ROOT
ATOM      1  S   UNL     1      36.793 -21.682 -17.433  0.00  0.00    -0.131 S 
ENDROOT
BRANCH   1   2
ATOM      2  C   UNL     1      36.753 -22.749 -15.961  0.00  0.00    +0.079 C 
BRANCH   2   3
ATOM      3  C   UNL     1      35.337 -22.971 -15.445  0.00  0.00    +0.100 C 
BRANCH   3   4
ATOM      4  N   UNL     1      35.190 -24.281 -14.855  0.00  0.00    -0.319 N 
ATOM      5  H   UNL     1      34.710 -24.955 -15.388  0.00  0.00    +0.148 HD
BRANCH   4   6
ATOM      6  C   UNL     1      35.660 -24.687 -13.604  0.00  0.00    +0.118 C 
ATOM      7  C   UNL     1      35.496 -23.937 -12.492  0.00  0.00    +0.194 C 
BRANCH   7  10
ATOM      8  O   UNL     1      37.138 -24.046 -10.923  0.00  0.00    -0.126 OA
ATOM      9  O   UNL     1      35.238 -25.097 -10.553  0.00  0.00    -0.126 OA
ATOM     10  N   UNL     1      35.990 -24.389 -11.241  0.00  0.00    +0.062 N 
ENDBRANCH   7  10
BRANCH   6  11
ATOM     11  N   UNL     1      36.325 -25.912 -13.484  0.00  0.00    -0.319 N 
ATOM     12  C   UNL     1      37.450 -26.402 -14.245  0.00  0.00    +0.109 C 
ATOM     13  H   UNL     1      35.982 -26.520 -12.789  0.00  0.00    +0.148 HD
ENDBRANCH   6  11
ENDBRANCH   4   6
ENDBRANCH   3   4
ENDBRANCH   2   3
ENDBRANCH   1   2
BRANCH   1  14
ATOM     14  C   UNL     1      35.315 -22.319 -18.255  0.00  0.00    +0.113 C 
BRANCH  14  18
ATOM     15  S   UNL     1      33.339 -19.994 -20.840  0.00  0.00    -0.082 S 
ATOM     16  N   UNL     1      35.689 -20.508 -19.892  0.00  0.00    -0.409 NA
ATOM     17  C   UNL     1      35.034 -19.746 -20.740  0.00  0.00    +0.113 C 
ATOM     18  C   UNL     1      34.793 -21.354 -19.269  0.00  0.00    +0.109 C 
ATOM     19  C   UNL     1      33.474 -21.224 -19.652  0.00  0.00    +0.119 C 
BRANCH  17  20
ATOM     20  C   UNL     1      35.661 -18.713 -21.593  0.00  0.00    -0.010 C 
BRANCH  20  21
ATOM     21  N   UNL     1      34.715 -17.653 -21.962  0.00  0.00    +0.389 N 
ATOM     22  C   UNL     1      34.951 -17.222 -23.337  0.00  0.00    -0.100 C 
ATOM     23  C   UNL     1      34.834 -16.526 -21.041  0.00  0.00    -0.100 C 
ATOM     24  H   UNL     1      33.765 -18.021 -21.899  0.00  0.00    -0.079 HD
ENDBRANCH  20  21
ENDBRANCH  17  20
ENDBRANCH  14  18
ENDBRANCH   1  14
TORSDOF 10
ENDMDL
MODEL 3
REMARK VINA RESULT:      -7.2      5.036      6.133
REMARK  Name = 4513
REMARK  10 active torsions:
REMARK  status: ('A' for Active; 'I' for Inactive)
REMARK    1  A    between atoms: S_1  and  C_2
REMARK    2  A    between atoms: S_1  and  C_14
REMARK    3  A    between atoms: C_2  and  C_3
REMARK    4  A    between atoms: C_3  and  N_4
REMARK    5  A    between atoms: N_4  and  C_6
REMARK    6  A    between atoms: C_6  and  N_11
REMARK    7  A    between atoms: C_7  and  N_10
REMARK    8  A    between atoms: C_14  and  C_18
REMARK    9  A    between atoms: C_17  and  C_20
REMARK   10  A    between atoms: C_20  and  N_21
REMARK                            x       y       z     vdW  Elec       q    Type
REMARK                         _______ _______ _______ _____ _____    ______ ____
ROOT
ATOM      1  S   UNL     1      35.274 -23.201 -15.317  0.00  0.00    -0.131 S 
ENDROOT
BRANCH   1   2
ATOM      2  C   UNL     1      36.801 -23.079 -14.336  0.00  0.00    +0.079 C 
BRANCH   2   3
ATOM      3  C   UNL     1      36.701 -23.829 -13.014  0.00  0.00    +0.100 C 
BRANCH   3   4
ATOM      4  N   UNL     1      37.950 -24.469 -12.676  0.00  0.00    -0.319 N 
ATOM      5  H   UNL     1      38.340 -24.244 -11.800  0.00  0.00    +0.148 HD
BRANCH   4   6
ATOM      6  C   UNL     1      38.663 -25.374 -13.466  0.00  0.00    +0.118 C 
ATOM      7  C   UNL     1      39.924 -25.129 -13.884  0.00  0.00    +0.194 C 
BRANCH   7  10
ATOM      8  O   UNL     1      41.281 -26.942 -14.103  0.00  0.00    -0.126 OA
ATOM      9  O   UNL     1      40.496 -25.970 -15.918  0.00  0.00    -0.126 OA
ATOM     10  N   UNL     1      40.612 -26.076 -14.687  0.00  0.00    +0.062 N 
ENDBRANCH   7  10
BRANCH   6  11
ATOM     11  N   UNL     1      38.061 -26.578 -13.846  0.00  0.00    -0.319 N 
ATOM     12  C   UNL     1      37.206 -26.837 -14.980  0.00  0.00    +0.109 C 
ATOM     13  H   UNL     1      38.246 -27.351 -13.265  0.00  0.00    +0.148 HD
ENDBRANCH   6  11
ENDBRANCH   4   6
ENDBRANCH   3   4
ENDBRANCH   2   3
ENDBRANCH   1   2
BRANCH   1  14
ATOM     14  C   UNL     1      34.468 -24.520 -14.380  0.00  0.00    +0.113 C 
BRANCH  14  18
ATOM     15  S   UNL     1      30.495 -24.535 -13.935  0.00  0.00    -0.082 S 
ATOM     16  N   UNL     1      32.412 -23.612 -15.404  0.00  0.00    -0.409 NA
ATOM     17  C   UNL     1      31.106 -23.621 -15.253  0.00  0.00    +0.113 C 
ATOM     18  C   UNL     1      32.982 -24.383 -14.409  0.00  0.00    +0.109 C 
ATOM     19  C   UNL     1      32.102 -24.964 -13.519  0.00  0.00    +0.119 C 
BRANCH  17  20
ATOM     20  C   UNL     1      30.158 -22.905 -16.134  0.00  0.00    -0.010 C 
BRANCH  20  21
ATOM     21  N   UNL     1      28.770 -23.329 -15.909  0.00  0.00    +0.389 N 
ATOM     22  C   UNL     1      28.340 -24.231 -16.975  0.00  0.00    -0.100 C 
ATOM     23  C   UNL     1      27.892 -22.165 -15.834  0.00  0.00    -0.100 C 
ATOM     24  H   UNL     1      28.716 -23.831 -15.022  0.00  0.00    -0.079 HD
ENDBRANCH  20  21
ENDBRANCH  17  20
ENDBRANCH  14  18
ENDBRANCH   1  14
TORSDOF 10
ENDMDL
MODEL 4
REMARK VINA RESULT:      -7.0      5.787      9.691
REMARK  Name = 4513
REMARK  10 active torsions:
REMARK  status: ('A' for Active; 'I' for Inactive)
REMARK    1  A    between atoms: S_1  and  C_2
REMARK    2  A    between atoms: S_1  and  C_14
REMARK    3  A    between atoms: C_2  and  C_3
REMARK    4  A    between atoms: C_3  and  N_4
REMARK    5  A    between atoms: N_4  and  C_6
REMARK    6  A    between atoms: C_6  and  N_11
REMARK    7  A    between atoms: C_7  and  N_10
REMARK    8  A    between atoms: C_14  and  C_18
REMARK    9  A    between atoms: C_17  and  C_20
REMARK   10  A    between atoms: C_20  and  N_21
REMARK                            x       y       z     vdW  Elec       q    Type
REMARK                         _______ _______ _______ _____ _____    ______ ____
ROOT
ATOM      1  S   UNL     1      35.282 -21.676 -19.202  0.00  0.00    -0.131 S 
ENDROOT
BRANCH   1   2
ATOM      2  C   UNL     1      34.678 -20.404 -20.354  0.00  0.00    +0.079 C 
BRANCH   2   3
ATOM      3  C   UNL     1      35.815 -19.619 -20.997  0.00  0.00    +0.100 C 
BRANCH   3   4
ATOM      4  N   UNL     1      35.712 -18.209 -20.703  0.00  0.00    -0.319 N 
ATOM      5  H   UNL     1      36.004 -17.921 -19.808  0.00  0.00    +0.148 HD
BRANCH   4   6
ATOM      6  C   UNL     1      35.239 -17.212 -21.560  0.00  0.00    +0.118 C 
ATOM      7  C   UNL     1      34.438 -16.212 -21.132  0.00  0.00    +0.194 C 
BRANCH   7  10
ATOM      8  O   UNL     1      32.753 -15.096 -22.175  0.00  0.00    -0.126 OA
ATOM      9  O   UNL     1      34.838 -14.549 -22.631  0.00  0.00    -0.126 OA
ATOM     10  N   UNL     1      33.980 -15.221 -22.038  0.00  0.00    +0.062 N 
ENDBRANCH   7  10
BRANCH   6  11
ATOM     11  N   UNL     1      35.600 -17.239 -22.912  0.00  0.00    -0.319 N 
ATOM     12  C   UNL     1      34.916 -17.879 -24.011  0.00  0.00    +0.109 C 
ATOM     13  H   UNL     1      36.427 -16.759 -23.144  0.00  0.00    +0.148 HD
ENDBRANCH   6  11
ENDBRANCH   4   6
ENDBRANCH   3   4
ENDBRANCH   2   3
ENDBRANCH   1   2
BRANCH   1  14
ATOM     14  C   UNL     1      33.821 -22.739 -19.201  0.00  0.00    +0.113 C 
BRANCH  14  18
ATOM     15  S   UNL     1      33.065 -23.447 -15.338  0.00  0.00    -0.082 S 
ATOM     16  N   UNL     1      31.950 -22.845 -17.592  0.00  0.00    -0.409 NA
ATOM     17  C   UNL     1      31.708 -23.078 -16.321  0.00  0.00    +0.113 C 
ATOM     18  C   UNL     1      33.308 -22.964 -17.816  0.00  0.00    +0.109 C 
ATOM     19  C   UNL     1      34.075 -23.285 -16.715  0.00  0.00    +0.119 C 
BRANCH  17  20
ATOM     20  C   UNL     1      30.363 -23.043 -15.706  0.00  0.00    -0.010 C 
BRANCH  20  21
ATOM     21  N   UNL     1      29.570 -24.232 -16.047  0.00  0.00    +0.389 N 
ATOM     22  C   UNL     1      28.360 -23.841 -16.766  0.00  0.00    -0.100 C 
ATOM     23  C   UNL     1      29.232 -24.977 -14.837  0.00  0.00    -0.100 C 
ATOM     24  H   UNL     1      30.124 -24.836 -16.654  0.00  0.00    -0.079 HD
ENDBRANCH  20  21
ENDBRANCH  17  20
ENDBRANCH  14  18
ENDBRANCH   1  14
TORSDOF 10
ENDMDL
MODEL 5
REMARK VINA RESULT:      -6.9      8.904     12.478
REMARK  Name = 4513
REMARK  10 active torsions:
REMARK  status: ('A' for Active; 'I' for Inactive)
REMARK    1  A    between atoms: S_1  and  C_2
REMARK    2  A    between atoms: S_1  and  C_14
REMARK    3  A    between atoms: C_2  and  C_3
REMARK    4  A    between atoms: C_3  and  N_4
REMARK    5  A    between atoms: N_4  and  C_6
REMARK    6  A    between atoms: C_6  and  N_11
REMARK    7  A    between atoms: C_7  and  N_10
REMARK    8  A    between atoms: C_14  and  C_18
REMARK    9  A    between atoms: C_17  and  C_20
REMARK   10  A    between atoms: C_20  and  N_21
REMARK                            x       y       z     vdW  Elec       q    Type
REMARK                         _______ _______ _______ _____ _____    ______ ____
ROOT
ATOM      1  S   UNL     1      33.590 -13.043 -23.792  0.00  0.00    -0.131 S 
ENDROOT
BRANCH   1   2
ATOM      2  C   UNL     1      33.331 -14.362 -25.018  0.00  0.00    +0.079 C 
BRANCH   2   3
ATOM      3  C   UNL     1      33.881 -15.703 -24.550  0.00  0.00    +0.100 C 
BRANCH   3   4
ATOM      4  N   UNL     1      34.735 -15.548 -23.395  0.00  0.00    -0.319 N 
ATOM      5  H   UNL     1      35.339 -14.771 -23.394  0.00  0.00    +0.148 HD
BRANCH   4   6
ATOM      6  C   UNL     1      34.791 -16.391 -22.283  0.00  0.00    +0.118 C 
ATOM      7  C   UNL     1      35.030 -17.716 -22.392  0.00  0.00    +0.194 C 
BRANCH   7  10
ATOM      8  O   UNL     1      34.020 -19.071 -20.870  0.00  0.00    -0.126 OA
ATOM      9  O   UNL     1      36.175 -18.656 -20.666  0.00  0.00    -0.126 OA
ATOM     10  N   UNL     1      35.078 -18.535 -21.234  0.00  0.00    +0.062 N 
ENDBRANCH   7  10
BRANCH   6  11
ATOM     11  N   UNL     1      34.595 -15.856 -21.005  0.00  0.00    -0.319 N 
ATOM     12  C   UNL     1      33.491 -15.059 -20.524  0.00  0.00    +0.109 C 
ATOM     13  H   UNL     1      35.302 -16.048 -20.347  0.00  0.00    +0.148 HD
ENDBRANCH   6  11
ENDBRANCH   4   6
ENDBRANCH   3   4
ENDBRANCH   2   3
ENDBRANCH   1   2
BRANCH   1  14
ATOM     14  C   UNL     1      34.062 -11.721 -24.930  0.00  0.00    +0.113 C 
BRANCH  14  18
ATOM     15  S   UNL     1      34.445  -8.015 -23.478  0.00  0.00    -0.082 S 
ATOM     16  N   UNL     1      32.932 -10.111 -23.436  0.00  0.00    -0.409 NA
ATOM     17  C   UNL     1      33.063  -8.892 -22.962  0.00  0.00    +0.113 C 
ATOM     18  C   UNL     1      33.999 -10.382 -24.271  0.00  0.00    +0.109 C 
ATOM     19  C   UNL     1      34.922  -9.367 -24.419  0.00  0.00    +0.119 C 
BRANCH  17  20
ATOM     20  C   UNL     1      32.110  -8.250 -22.031  0.00  0.00    -0.010 C 
BRANCH  20  21
ATOM     21  N   UNL     1      32.627  -8.206 -20.657  0.00  0.00    +0.389 N 
ATOM     22  C   UNL     1      32.035  -9.279 -19.861  0.00  0.00    -0.100 C 
ATOM     23  C   UNL     1      32.351  -6.905 -20.054  0.00  0.00    -0.100 C 
ATOM     24  H   UNL     1      33.638  -8.343 -20.679  0.00  0.00    -0.079 HD
ENDBRANCH  20  21
ENDBRANCH  17  20
ENDBRANCH  14  18
ENDBRANCH   1  14
TORSDOF 10
ENDMDL
MODEL 6
REMARK VINA RESULT:      -6.9      2.412      3.123
REMARK  Name = 4513
REMARK  10 active torsions:
REMARK  status: ('A' for Active; 'I' for Inactive)
REMARK    1  A    between atoms: S_1  and  C_2
REMARK    2  A    between atoms: S_1  and  C_14
REMARK    3  A    between atoms: C_2  and  C_3
REMARK    4  A    between atoms: C_3  and  N_4
REMARK    5  A    between atoms: N_4  and  C_6
REMARK    6  A    between atoms: C_6  and  N_11
REMARK    7  A    between atoms: C_7  and  N_10
REMARK    8  A    between atoms: C_14  and  C_18
REMARK    9  A    between atoms: C_17  and  C_20
REMARK   10  A    between atoms: C_20  and  N_21
REMARK                            x       y       z     vdW  Elec       q    Type
REMARK                         _______ _______ _______ _____ _____    ______ ____
ROOT
ATOM      1  S   UNL     1      35.778 -22.082 -18.236  0.00  0.00    -0.131 S 
ENDROOT
BRANCH   1   2
ATOM      2  C   UNL     1      37.179 -21.912 -17.088  0.00  0.00    +0.079 C 
BRANCH   2   3
ATOM      3  C   UNL     1      36.909 -22.575 -15.743  0.00  0.00    +0.100 C 
BRANCH   3   4
ATOM      4  N   UNL     1      37.696 -23.776 -15.581  0.00  0.00    -0.319 N 
ATOM      5  H   UNL     1      38.154 -24.116 -16.383  0.00  0.00    +0.148 HD
BRANCH   4   6
ATOM      6  C   UNL     1      37.871 -24.503 -14.401  0.00  0.00    +0.118 C 
ATOM      7  C   UNL     1      37.145 -24.261 -13.289  0.00  0.00    +0.194 C 
BRANCH   7  10
ATOM      8  O   UNL     1      36.773 -26.115 -12.025  0.00  0.00    -0.126 OA
ATOM      9  O   UNL     1      38.111 -24.545 -11.250  0.00  0.00    -0.126 OA
ATOM     10  N   UNL     1      37.357 -25.024 -12.111  0.00  0.00    +0.062 N 
ENDBRANCH   7  10
BRANCH   6  11
ATOM     11  N   UNL     1      38.830 -25.521 -14.358  0.00  0.00    -0.319 N 
ATOM     12  C   UNL     1      40.248 -25.431 -14.614  0.00  0.00    +0.109 C 
ATOM     13  H   UNL     1      38.495 -26.416 -14.120  0.00  0.00    +0.148 HD
ENDBRANCH   6  11
ENDBRANCH   4   6
ENDBRANCH   3   4
ENDBRANCH   2   3
ENDBRANCH   1   2
BRANCH   1  14
ATOM     14  C   UNL     1      36.447 -21.112 -19.606  0.00  0.00    +0.113 C 
BRANCH  14  18
ATOM     15  S   UNL     1      33.179 -19.391 -21.137  0.00  0.00    -0.082 S 
ATOM     16  N   UNL     1      35.762 -19.278 -21.111  0.00  0.00    -0.409 NA
ATOM     17  C   UNL     1      34.684 -18.716 -21.611  0.00  0.00    +0.113 C 
ATOM     18  C   UNL     1      35.381 -20.321 -20.290  0.00  0.00    +0.109 C 
ATOM     19  C   UNL     1      34.023 -20.536 -20.179  0.00  0.00    +0.119 C 
BRANCH  17  20
ATOM     20  C   UNL     1      34.695 -17.563 -22.538  0.00  0.00    -0.010 C 
BRANCH  20  21
ATOM     21  N   UNL     1      35.274 -17.910 -23.842  0.00  0.00    +0.389 N 
ATOM     22  C   UNL     1      34.920 -16.900 -24.836  0.00  0.00    -0.100 C 
ATOM     23  C   UNL     1      34.815 -19.231 -24.264  0.00  0.00    -0.100 C 
ATOM     24  H   UNL     1      36.291 -17.935 -23.757  0.00  0.00    -0.079 HD
ENDBRANCH  20  21
ENDBRANCH  17  20
ENDBRANCH  14  18
ENDBRANCH   1  14
TORSDOF 10
ENDMDL
MODEL 7
REMARK VINA RESULT:      -6.8      8.524     12.233
REMARK  Name = 4513
REMARK  10 active torsions:
REMARK  status: ('A' for Active; 'I' for Inactive)
REMARK    1  A    between atoms: S_1  and  C_2
REMARK    2  A    between atoms: S_1  and  C_14
REMARK    3  A    between atoms: C_2  and  C_3
REMARK    4  A    between atoms: C_3  and  N_4
REMARK    5  A    between atoms: N_4  and  C_6
REMARK    6  A    between atoms: C_6  and  N_11
REMARK    7  A    between atoms: C_7  and  N_10
REMARK    8  A    between atoms: C_14  and  C_18
REMARK    9  A    between atoms: C_17  and  C_20
REMARK   10  A    between atoms: C_20  and  N_21
REMARK                            x       y       z     vdW  Elec       q    Type
REMARK                         _______ _______ _______ _____ _____    ______ ____
ROOT
ATOM      1  S   UNL     1      32.635 -13.111 -23.226  0.00  0.00    -0.131 S 
ENDROOT
BRANCH   1   2
ATOM      2  C   UNL     1      33.730 -14.433 -22.623  0.00  0.00    +0.079 C 
BRANCH   2   3
ATOM      3  C   UNL     1      34.191 -15.359 -23.743  0.00  0.00    +0.100 C 
BRANCH   3   4
ATOM      4  N   UNL     1      35.385 -16.080 -23.371  0.00  0.00    -0.319 N 
ATOM      5  H   UNL     1      36.245 -15.635 -23.551  0.00  0.00    +0.148 HD
BRANCH   4   6
ATOM      6  C   UNL     1      35.444 -17.346 -22.784  0.00  0.00    +0.118 C 
ATOM      7  C   UNL     1      35.276 -17.536 -21.457  0.00  0.00    +0.194 C 
BRANCH   7  10
ATOM      8  O   UNL     1      34.300 -19.508 -20.884  0.00  0.00    -0.126 OA
ATOM      9  O   UNL     1      36.446 -19.220 -20.474  0.00  0.00    -0.126 OA
ATOM     10  N   UNL     1      35.345 -18.840 -20.903  0.00  0.00    +0.062 N 
ENDBRANCH   7  10
BRANCH   6  11
ATOM     11  N   UNL     1      35.685 -18.466 -23.587  0.00  0.00    -0.319 N 
ATOM     12  C   UNL     1      34.771 -19.154 -24.467  0.00  0.00    +0.109 C 
ATOM     13  H   UNL     1      36.598 -18.833 -23.548  0.00  0.00    +0.148 HD
ENDBRANCH   6  11
ENDBRANCH   4   6
ENDBRANCH   3   4
ENDBRANCH   2   3
ENDBRANCH   1   2
BRANCH   1  14
ATOM     14  C   UNL     1      33.823 -12.253 -24.282  0.00  0.00    +0.113 C 
BRANCH  14  18
ATOM     15  S   UNL     1      34.426  -8.323 -23.855  0.00  0.00    -0.082 S 
ATOM     16  N   UNL     1      32.739 -10.225 -23.381  0.00  0.00    -0.409 NA
ATOM     17  C   UNL     1      32.943  -8.933 -23.243  0.00  0.00    +0.113 C 
ATOM     18  C   UNL     1      33.832 -10.783 -24.017  0.00  0.00    +0.109 C 
ATOM     19  C   UNL     1      34.846  -9.910 -24.351  0.00  0.00    +0.119 C 
BRANCH  17  20
ATOM     20  C   UNL     1      31.989  -8.000 -22.606  0.00  0.00    -0.010 C 
BRANCH  20  21
ATOM     21  N   UNL     1      32.548  -7.382 -21.396  0.00  0.00    +0.389 N 
ATOM     22  C   UNL     1      32.402  -8.284 -20.256  0.00  0.00    -0.100 C 
ATOM     23  C   UNL     1      31.891  -6.105 -21.131  0.00  0.00    -0.100 C 
ATOM     24  H   UNL     1      33.543  -7.208 -21.543  0.00  0.00    -0.079 HD
ENDBRANCH  20  21
ENDBRANCH  17  20
ENDBRANCH  14  18
ENDBRANCH   1  14
TORSDOF 10
ENDMDL
MODEL 8
REMARK VINA RESULT:      -6.8      4.002      5.545
REMARK  Name = 4513
REMARK  10 active torsions:
REMARK  status: ('A' for Active; 'I' for Inactive)
REMARK    1  A    between atoms: S_1  and  C_2
REMARK    2  A    between atoms: S_1  and  C_14
REMARK    3  A    between atoms: C_2  and  C_3
REMARK    4  A    between atoms: C_3  and  N_4
REMARK    5  A    between atoms: N_4  and  C_6
REMARK    6  A    between atoms: C_6  and  N_11
REMARK    7  A    between atoms: C_7  and  N_10
REMARK    8  A    between atoms: C_14  and  C_18
REMARK    9  A    between atoms: C_17  and  C_20
REMARK   10  A    between atoms: C_20  and  N_21
REMARK                            x       y       z     vdW  Elec       q    Type
REMARK                         _______ _______ _______ _____ _____    ______ ____
ROOT
ATOM      1  S   UNL     1      34.953 -22.644 -15.268  0.00  0.00    -0.131 S 
ENDROOT
BRANCH   1   2
ATOM      2  C   UNL     1      36.302 -22.670 -16.488  0.00  0.00    +0.079 C 
BRANCH   2   3
ATOM      3  C   UNL     1      37.672 -22.798 -15.834  0.00  0.00    +0.100 C 
BRANCH   3   4
ATOM      4  N   UNL     1      37.969 -24.171 -15.499  0.00  0.00    -0.319 N 
ATOM      5  H   UNL     1      38.086 -24.794 -16.253  0.00  0.00    +0.148 HD
BRANCH   4   6
ATOM      6  C   UNL     1      38.105 -24.705 -14.216  0.00  0.00    +0.118 C 
ATOM      7  C   UNL     1      37.113 -24.649 -13.301  0.00  0.00    +0.194 C 
BRANCH   7  10
ATOM      8  O   UNL     1      36.940 -26.379 -11.835  0.00  0.00    -0.126 OA
ATOM      9  O   UNL     1      37.797 -24.472 -11.140  0.00  0.00    -0.126 OA
ATOM     10  N   UNL     1      37.295 -25.203 -12.008  0.00  0.00    +0.062 N 
ENDBRANCH   7  10
BRANCH   6  11
ATOM     11  N   UNL     1      39.308 -25.322 -13.852  0.00  0.00    -0.319 N 
ATOM     12  C   UNL     1      40.369 -25.797 -14.708  0.00  0.00    +0.109 C 
ATOM     13  H   UNL     1      39.449 -25.448 -12.886  0.00  0.00    +0.148 HD
ENDBRANCH   6  11
ENDBRANCH   4   6
ENDBRANCH   3   4
ENDBRANCH   2   3
ENDBRANCH   1   2
BRANCH   1  14
ATOM     14  C   UNL     1      33.693 -23.482 -16.257  0.00  0.00    +0.113 C 
BRANCH  14  18
ATOM     15  S   UNL     1      30.550 -24.190 -13.890  0.00  0.00    -0.082 S 
ATOM     16  N   UNL     1      31.319 -22.866 -15.973  0.00  0.00    -0.409 NA
ATOM     17  C   UNL     1      30.288 -23.103 -15.191  0.00  0.00    +0.113 C 
ATOM     18  C   UNL     1      32.401 -23.594 -15.518  0.00  0.00    +0.109 C 
ATOM     19  C   UNL     1      32.177 -24.371 -14.400  0.00  0.00    +0.119 C 
BRANCH  17  20
ATOM     20  C   UNL     1      28.949 -22.500 -15.367  0.00  0.00    -0.010 C 
BRANCH  20  21
ATOM     21  N   UNL     1      28.392 -22.773 -16.698  0.00  0.00    +0.389 N 
ATOM     22  C   UNL     1      27.111 -22.091 -16.858  0.00  0.00    -0.100 C 
ATOM     23  C   UNL     1      28.238 -24.212 -16.896  0.00  0.00    -0.100 C 
ATOM     24  H   UNL     1      29.036 -22.418 -17.406  0.00  0.00    -0.079 HD
ENDBRANCH  20  21
ENDBRANCH  17  20
ENDBRANCH  14  18
ENDBRANCH   1  14
TORSDOF 10
ENDMDL
MODEL 9
REMARK VINA RESULT:      -6.8      2.031      2.745
REMARK  Name = 4513
REMARK  10 active torsions:
REMARK  status: ('A' for Active; 'I' for Inactive)
REMARK    1  A    between atoms: S_1  and  C_2
REMARK    2  A    between atoms: S_1  and  C_14
REMARK    3  A    between atoms: C_2  and  C_3
REMARK    4  A    between atoms: C_3  and  N_4
REMARK    5  A    between atoms: N_4  and  C_6
REMARK    6  A    between atoms: C_6  and  N_11
REMARK    7  A    between atoms: C_7  and  N_10
REMARK    8  A    between atoms: C_14  and  C_18
REMARK    9  A    between atoms: C_17  and  C_20
REMARK   10  A    between atoms: C_20  and  N_21
REMARK                            x       y       z     vdW  Elec       q    Type
REMARK                         _______ _______ _______ _____ _____    ______ ____
ROOT
ATOM      1  S   UNL     1      34.063 -22.937 -17.623  0.00  0.00    -0.131 S 
ENDROOT
BRANCH   1   2
ATOM      2  C   UNL     1      35.020 -23.207 -16.099  0.00  0.00    +0.079 C 
BRANCH   2   3
ATOM      3  C   UNL     1      34.288 -24.103 -15.108  0.00  0.00    +0.100 C 
BRANCH   3   4
ATOM      4  N   UNL     1      35.028 -25.316 -14.849  0.00  0.00    -0.319 N 
ATOM      5  H   UNL     1      34.619 -26.157 -15.156  0.00  0.00    +0.148 HD
BRANCH   4   6
ATOM      6  C   UNL     1      36.264 -25.416 -14.206  0.00  0.00    +0.118 C 
ATOM      7  C   UNL     1      37.435 -25.336 -14.875  0.00  0.00    +0.194 C 
BRANCH   7  10
ATOM      8  O   UNL     1      39.185 -26.569 -14.106  0.00  0.00    -0.126 OA
ATOM      9  O   UNL     1      39.142 -24.405 -13.696  0.00  0.00    -0.126 OA
ATOM     10  N   UNL     1      38.668 -25.444 -14.181  0.00  0.00    +0.062 N 
ENDBRANCH   7  10
BRANCH   6  11
ATOM     11  N   UNL     1      36.305 -25.605 -12.820  0.00  0.00    -0.319 N 
ATOM     12  C   UNL     1      36.015 -24.653 -11.774  0.00  0.00    +0.109 C 
ATOM     13  H   UNL     1      36.564 -26.506 -12.518  0.00  0.00    +0.148 HD
ENDBRANCH   6  11
ENDBRANCH   4   6
ENDBRANCH   3   4
ENDBRANCH   2   3
ENDBRANCH   1   2
BRANCH   1  14
ATOM     14  C   UNL     1      35.346 -22.111 -18.591  0.00  0.00    +0.113 C 
BRANCH  14  18
ATOM     15  S   UNL     1      33.208 -19.753 -21.012  0.00  0.00    -0.082 S 
ATOM     16  N   UNL     1      35.615 -20.283 -20.229  0.00  0.00    -0.409 NA
ATOM     17  C   UNL     1      34.907 -19.510 -21.023  0.00  0.00    +0.113 C 
ATOM     18  C   UNL     1      34.760 -21.134 -19.557  0.00  0.00    +0.109 C 
ATOM     19  C   UNL     1      33.419 -20.996 -19.849  0.00  0.00    +0.119 C 
BRANCH  17  20
ATOM     20  C   UNL     1      35.479 -18.469 -21.905  0.00  0.00    -0.010 C 
BRANCH  20  21
ATOM     21  N   UNL     1      34.622 -17.279 -21.981  0.00  0.00    +0.389 N 
ATOM     22  C   UNL     1      34.890 -16.543 -23.214  0.00  0.00    -0.100 C 
ATOM     23  C   UNL     1      34.838 -16.426 -20.815  0.00  0.00    -0.100 C 
ATOM     24  H   UNL     1      33.646 -17.574 -21.988  0.00  0.00    -0.079 HD
ENDBRANCH  20  21
ENDBRANCH  17  20
ENDBRANCH  14  18
ENDBRANCH   1  14
TORSDOF 10
ENDMDL
