MODEL 1
REMARK VINA RESULT:      -9.6      0.000      0.000
REMARK  Name = 5327155
REMARK  5 active torsions:
REMARK  status: ('A' for Active; 'I' for Inactive)
REMARK    1  A    between atoms: C_3  and  C_15
REMARK    2  A    between atoms: C_9  and  O_24
REMARK    3  A    between atoms: C_11  and  N_18
REMARK    4  A    between atoms: N_18  and  S_20
REMARK    5  A    between atoms: O_24  and  C_25
REMARK                            x       y       z     vdW  Elec       q    Type
REMARK                         _______ _______ _______ _____ _____    ______ ____
ROOT
ATOM      1  O   UNL     1      33.169 -24.652 -13.066  0.00  0.00    -0.226 OA
ATOM      2  N   UNL     1      34.108 -23.912 -15.067  0.00  0.00    -0.235 N 
ATOM      3  C   UNL     1      35.467 -23.858 -14.529  0.00  0.00    +0.159 C 
ATOM      4  C   UNL     1      36.216 -22.599 -14.955  0.00  0.00    +0.055 C 
ATOM      5  C   UNL     1      33.915 -23.637 -16.499  0.00  0.00    +0.124 C 
ATOM      6  C   UNL     1      36.068 -22.290 -16.420  0.00  0.00    -0.022 C 
ATOM      7  C   UNL     1      34.965 -22.771 -17.141  0.00  0.00    -0.005 C 
ATOM      8  C   UNL     1      34.839 -22.446 -18.500  0.00  0.00    +0.013 C 
ATOM      9  C   UNL     1      33.066 -24.405 -14.266  0.00  0.00    +0.405 C 
ATOM     10  C   UNL     1      37.011 -21.472 -17.058  0.00  0.00    -0.003 C 
ATOM     11  C   UNL     1      35.789 -21.644 -19.131  0.00  0.00    +0.065 C 
ATOM     12  C   UNL     1      36.874 -21.156 -18.409  0.00  0.00    +0.016 C 
ENDROOT
BRANCH   3  15
ATOM     13  O   UNL     1      35.601 -25.953 -15.670  0.00  0.00    -0.273 OA
ATOM     14  N   UNL     1      37.444 -25.212 -14.458  0.00  0.00    -0.301 N 
ATOM     15  C   UNL     1      36.159 -25.119 -14.962  0.00  0.00    +0.241 C 
ATOM     16  C   UNL     1      38.313 -26.339 -14.710  0.00  0.00    +0.111 C 
ATOM     17  H   UNL     1      37.783 -24.475 -13.900  0.00  0.00    +0.150 HD
ENDBRANCH   3  15
BRANCH  11  18
ATOM     18  N   UNL     1      35.647 -21.321 -20.514  0.00  0.00    -0.213 N 
ATOM     19  H   UNL     1      35.971 -21.925 -21.221  0.00  0.00    +0.174 HD
BRANCH  18  20
ATOM     20  S   UNL     1      34.877 -19.814 -20.887  0.00  0.00    +0.091 S 
ATOM     21  O   UNL     1      34.839 -19.769 -22.517  0.00  0.00    -0.050 OA
ATOM     22  O   UNL     1      33.506 -19.860 -20.413  0.00  0.00    -0.050 OA
ATOM     23  O   UNL     1      35.758 -18.745 -20.451  0.00  0.00    -0.050 OA
ENDBRANCH  18  20
ENDBRANCH  11  18
BRANCH   9  24
ATOM     24  O   UNL     1      31.906 -24.591 -14.973  0.00  0.00    -0.442 OA
BRANCH  24  25
ATOM     25  C   UNL     1      30.747 -23.917 -14.469  0.00  0.00    +0.138 C 
ATOM     26  C   UNL     1      30.411 -24.490 -13.092  0.00  0.00    +0.044 C 
ATOM     27  C   UNL     1      29.604 -24.172 -15.450  0.00  0.00    +0.044 C 
ATOM     28  C   UNL     1      31.054 -22.423 -14.377  0.00  0.00    +0.044 C 
ENDBRANCH  24  25
ENDBRANCH   9  24
TORSDOF 5
ENDMDL
MODEL 2
REMARK VINA RESULT:      -7.3      9.440     12.628
REMARK  Name = 5327155
REMARK  5 active torsions:
REMARK  status: ('A' for Active; 'I' for Inactive)
REMARK    1  A    between atoms: C_3  and  C_15
REMARK    2  A    between atoms: C_9  and  O_24
REMARK    3  A    between atoms: C_11  and  N_18
REMARK    4  A    between atoms: N_18  and  S_20
REMARK    5  A    between atoms: O_24  and  C_25
REMARK                            x       y       z     vdW  Elec       q    Type
REMARK                         _______ _______ _______ _____ _____    ______ ____
ROOT
ATOM      1  O   UNL     1      31.258 -10.849 -22.972  0.00  0.00    -0.226 OA
ATOM      2  N   UNL     1      32.742 -12.630 -23.223  0.00  0.00    -0.235 N 
ATOM      3  C   UNL     1      32.696 -12.596 -24.685  0.00  0.00    +0.159 C 
ATOM      4  C   UNL     1      32.597 -13.989 -25.300  0.00  0.00    +0.055 C 
ATOM      5  C   UNL     1      33.676 -13.564 -22.576  0.00  0.00    +0.124 C 
ATOM      6  C   UNL     1      33.554 -14.975 -24.686  0.00  0.00    -0.022 C 
ATOM      7  C   UNL     1      34.047 -14.776 -23.388  0.00  0.00    -0.005 C 
ATOM      8  C   UNL     1      34.917 -15.726 -22.831  0.00  0.00    +0.013 C 
ATOM      9  C   UNL     1      32.050 -11.656 -22.487  0.00  0.00    +0.405 C 
ATOM     10  C   UNL     1      33.915 -16.129 -25.396  0.00  0.00    -0.003 C 
ATOM     11  C   UNL     1      35.282 -16.864 -23.550  0.00  0.00    +0.065 C 
ATOM     12  C   UNL     1      34.780 -17.066 -24.832  0.00  0.00    +0.016 C 
ENDROOT
BRANCH   3  15
ATOM     13  O   UNL     1      34.567 -12.205 -26.118  0.00  0.00    -0.273 OA
ATOM     14  N   UNL     1      34.193 -10.757 -24.334  0.00  0.00    -0.301 N 
ATOM     15  C   UNL     1      33.915 -11.845 -25.142  0.00  0.00    +0.241 C 
ATOM     16  C   UNL     1      35.325  -9.884 -24.547  0.00  0.00    +0.111 C 
ATOM     17  H   UNL     1      33.593 -10.569 -23.578  0.00  0.00    +0.150 HD
ENDBRANCH   3  15
BRANCH  11  18
ATOM     18  N   UNL     1      36.168 -17.821 -22.970  0.00  0.00    -0.213 N 
ATOM     19  H   UNL     1      37.025 -18.055 -23.393  0.00  0.00    +0.174 HD
BRANCH  18  20
ATOM     20  S   UNL     1      35.659 -18.552 -21.483  0.00  0.00    +0.091 S 
ATOM     21  O   UNL     1      36.994 -19.300 -20.919  0.00  0.00    -0.050 OA
ATOM     22  O   UNL     1      35.309 -17.503 -20.543  0.00  0.00    -0.050 OA
ATOM     23  O   UNL     1      34.693 -19.587 -21.804  0.00  0.00    -0.050 OA
ENDBRANCH  18  20
ENDBRANCH  11  18
BRANCH   9  24
ATOM     24  O   UNL     1      32.358 -11.691 -21.152  0.00  0.00    -0.442 OA
BRANCH  24  25
ATOM     25  C   UNL     1      31.578 -10.843 -20.302  0.00  0.00    +0.138 C 
ATOM     26  C   UNL     1      31.858 -11.220 -18.847  0.00  0.00    +0.044 C 
ATOM     27  C   UNL     1      30.107 -11.076 -20.643  0.00  0.00    +0.044 C 
ATOM     28  C   UNL     1      31.968  -9.391 -20.574  0.00  0.00    +0.044 C 
ENDBRANCH  24  25
ENDBRANCH   9  24
TORSDOF 5
ENDMDL
MODEL 3
REMARK VINA RESULT:      -7.1     11.713     14.676
REMARK  Name = 5327155
REMARK  5 active torsions:
REMARK  status: ('A' for Active; 'I' for Inactive)
REMARK    1  A    between atoms: C_3  and  C_15
REMARK    2  A    between atoms: C_9  and  O_24
REMARK    3  A    between atoms: C_11  and  N_18
REMARK    4  A    between atoms: N_18  and  S_20
REMARK    5  A    between atoms: O_24  and  C_25
REMARK                            x       y       z     vdW  Elec       q    Type
REMARK                         _______ _______ _______ _____ _____    ______ ____
ROOT
ATOM      1  O   UNL     1      34.489 -14.690 -23.275  0.00  0.00    -0.226 OA
ATOM      2  N   UNL     1      33.509 -12.584 -23.480  0.00  0.00    -0.235 N 
ATOM      3  C   UNL     1      34.446 -12.135 -24.509  0.00  0.00    +0.159 C 
ATOM      4  C   UNL     1      34.928 -10.706 -24.278  0.00  0.00    +0.055 C 
ATOM      5  C   UNL     1      32.392 -11.698 -23.119  0.00  0.00    +0.124 C 
ATOM      6  C   UNL     1      33.815  -9.755 -23.930  0.00  0.00    -0.022 C 
ATOM      7  C   UNL     1      32.622 -10.231 -23.365  0.00  0.00    -0.005 C 
ATOM      8  C   UNL     1      31.611  -9.319 -23.026  0.00  0.00    +0.013 C 
ATOM      9  C   UNL     1      33.581 -13.904 -23.008  0.00  0.00    +0.405 C 
ATOM     10  C   UNL     1      33.989  -8.377 -24.123  0.00  0.00    -0.003 C 
ATOM     11  C   UNL     1      31.787  -7.952 -23.235  0.00  0.00    +0.065 C 
ATOM     12  C   UNL     1      32.977  -7.481 -23.782  0.00  0.00    +0.016 C 
ENDROOT
BRANCH   3  15
ATOM     13  O   UNL     1      33.650 -11.381 -26.632  0.00  0.00    -0.273 OA
ATOM     14  N   UNL     1      33.265 -13.589 -26.005  0.00  0.00    -0.301 N 
ATOM     15  C   UNL     1      33.756 -12.307 -25.833  0.00  0.00    +0.241 C 
ATOM     16  C   UNL     1      32.541 -14.006 -27.184  0.00  0.00    +0.111 C 
ATOM     17  H   UNL     1      33.415 -14.248 -25.290  0.00  0.00    +0.150 HD
ENDBRANCH   3  15
BRANCH  11  18
ATOM     18  N   UNL     1      30.749  -7.036 -22.885  0.00  0.00    -0.213 N 
ATOM     19  H   UNL     1      29.805  -7.224 -23.088  0.00  0.00    +0.174 HD
BRANCH  18  20
ATOM     20  S   UNL     1      31.236  -5.577 -22.086  0.00  0.00    +0.091 S 
ATOM     21  O   UNL     1      29.841  -4.923 -21.550  0.00  0.00    -0.050 OA
ATOM     22  O   UNL     1      32.036  -5.924 -20.926  0.00  0.00    -0.050 OA
ATOM     23  O   UNL     1      31.771  -4.677 -23.091  0.00  0.00    -0.050 OA
ENDBRANCH  18  20
ENDBRANCH  11  18
BRANCH   9  24
ATOM     24  O   UNL     1      32.515 -14.235 -22.212  0.00  0.00    -0.442 OA
BRANCH  24  25
ATOM     25  C   UNL     1      32.819 -14.539 -20.846  0.00  0.00    +0.138 C 
ATOM     26  C   UNL     1      32.085 -15.822 -20.457  0.00  0.00    +0.044 C 
ATOM     27  C   UNL     1      32.338 -13.366 -19.995  0.00  0.00    +0.044 C 
ATOM     28  C   UNL     1      34.331 -14.715 -20.712  0.00  0.00    +0.044 C 
ENDBRANCH  24  25
ENDBRANCH   9  24
TORSDOF 5
ENDMDL
MODEL 4
REMARK VINA RESULT:      -6.9      3.808      5.762
REMARK  Name = 5327155
REMARK  5 active torsions:
REMARK  status: ('A' for Active; 'I' for Inactive)
REMARK    1  A    between atoms: C_3  and  C_15
REMARK    2  A    between atoms: C_9  and  O_24
REMARK    3  A    between atoms: C_11  and  N_18
REMARK    4  A    between atoms: N_18  and  S_20
REMARK    5  A    between atoms: O_24  and  C_25
REMARK                            x       y       z     vdW  Elec       q    Type
REMARK                         _______ _______ _______ _____ _____    ______ ____
ROOT
ATOM      1  O   UNL     1      37.818 -22.889 -13.823  0.00  0.00    -0.226 OA
ATOM      2  N   UNL     1      35.577 -23.265 -14.349  0.00  0.00    -0.235 N 
ATOM      3  C   UNL     1      35.864 -23.687 -15.720  0.00  0.00    +0.159 C 
ATOM      4  C   UNL     1      34.890 -23.091 -16.732  0.00  0.00    +0.055 C 
ATOM      5  C   UNL     1      34.191 -23.352 -13.868  0.00  0.00    +0.124 C 
ATOM      6  C   UNL     1      33.454 -23.180 -16.293  0.00  0.00    -0.022 C 
ATOM      7  C   UNL     1      33.129 -23.286 -14.933  0.00  0.00    -0.005 C 
ATOM      8  C   UNL     1      31.780 -23.341 -14.551  0.00  0.00    +0.013 C 
ATOM      9  C   UNL     1      36.640 -22.975 -13.478  0.00  0.00    +0.405 C 
ATOM     10  C   UNL     1      32.429 -23.104 -17.247  0.00  0.00    -0.003 C 
ATOM     11  C   UNL     1      30.767 -23.279 -15.507  0.00  0.00    +0.065 C 
ATOM     12  C   UNL     1      31.092 -23.159 -16.855  0.00  0.00    +0.016 C 
ENDROOT
BRANCH   3  15
ATOM     13  O   UNL     1      34.900 -25.831 -16.153  0.00  0.00    -0.273 OA
ATOM     14  N   UNL     1      37.013 -25.721 -15.182  0.00  0.00    -0.301 N 
ATOM     15  C   UNL     1      35.856 -25.190 -15.724  0.00  0.00    +0.241 C 
ATOM     16  C   UNL     1      37.244 -27.142 -15.050  0.00  0.00    +0.111 C 
ATOM     17  H   UNL     1      37.712 -25.103 -14.872  0.00  0.00    +0.150 HD
ENDBRANCH   3  15
BRANCH  11  18
ATOM     18  N   UNL     1      29.399 -23.336 -15.104  0.00  0.00    -0.213 N 
ATOM     19  H   UNL     1      29.143 -23.501 -14.167  0.00  0.00    +0.174 HD
BRANCH  18  20
ATOM     20  S   UNL     1      28.211 -23.101 -16.343  0.00  0.00    +0.091 S 
ATOM     21  O   UNL     1      26.833 -22.781 -15.531  0.00  0.00    -0.050 OA
ATOM     22  O   UNL     1      28.560 -21.915 -17.105  0.00  0.00    -0.050 OA
ATOM     23  O   UNL     1      28.021 -24.369 -17.024  0.00  0.00    -0.050 OA
ENDBRANCH  18  20
ENDBRANCH  11  18
BRANCH   9  24
ATOM     24  O   UNL     1      36.224 -22.802 -12.184  0.00  0.00    -0.442 OA
BRANCH  24  25
ATOM     25  C   UNL     1      36.548 -23.857 -11.272  0.00  0.00    +0.138 C 
ATOM     26  C   UNL     1      35.415 -24.883 -11.293  0.00  0.00    +0.044 C 
ATOM     27  C   UNL     1      36.687 -23.239  -9.882  0.00  0.00    +0.044 C 
ATOM     28  C   UNL     1      37.866 -24.493 -11.712  0.00  0.00    +0.044 C 
ENDBRANCH  24  25
ENDBRANCH   9  24
TORSDOF 5
ENDMDL
MODEL 5
REMARK VINA RESULT:      -6.8      3.460      6.332
REMARK  Name = 5327155
REMARK  5 active torsions:
REMARK  status: ('A' for Active; 'I' for Inactive)
REMARK    1  A    between atoms: C_3  and  C_15
REMARK    2  A    between atoms: C_9  and  O_24
REMARK    3  A    between atoms: C_11  and  N_18
REMARK    4  A    between atoms: N_18  and  S_20
REMARK    5  A    between atoms: O_24  and  C_25
REMARK                            x       y       z     vdW  Elec       q    Type
REMARK                         _______ _______ _______ _____ _____    ______ ____
ROOT
ATOM      1  O   UNL     1      36.558 -25.268 -15.158  0.00  0.00    -0.226 OA
ATOM      2  N   UNL     1      34.432 -24.311 -15.124  0.00  0.00    -0.235 N 
ATOM      3  C   UNL     1      33.995 -25.077 -13.957  0.00  0.00    +0.159 C 
ATOM      4  C   UNL     1      32.577 -25.619 -14.111  0.00  0.00    +0.055 C 
ATOM      5  C   UNL     1      33.527 -23.287 -15.665  0.00  0.00    +0.124 C 
ATOM      6  C   UNL     1      31.607 -24.598 -14.639  0.00  0.00    -0.022 C 
ATOM      7  C   UNL     1      32.063 -23.505 -15.391  0.00  0.00    -0.005 C 
ATOM      8  C   UNL     1      31.134 -22.581 -15.893  0.00  0.00    +0.013 C 
ATOM      9  C   UNL     1      35.757 -24.433 -15.573  0.00  0.00    +0.405 C 
ATOM     10  C   UNL     1      30.232 -24.767 -14.425  0.00  0.00    -0.003 C 
ATOM     11  C   UNL     1      29.769 -22.749 -15.663  0.00  0.00    +0.065 C 
ATOM     12  C   UNL     1      29.318 -23.843 -14.930  0.00  0.00    +0.016 C 
ENDROOT
BRANCH   3  15
ATOM     13  O   UNL     1      33.273 -23.370 -12.447  0.00  0.00    -0.273 OA
ATOM     14  N   UNL     1      35.353 -24.361 -12.115  0.00  0.00    -0.301 N 
ATOM     15  C   UNL     1      34.144 -24.176 -12.763  0.00  0.00    +0.241 C 
ATOM     16  C   UNL     1      35.750 -23.602 -10.951  0.00  0.00    +0.111 C 
ATOM     17  H   UNL     1      35.972 -25.042 -12.464  0.00  0.00    +0.150 HD
ENDBRANCH   3  15
BRANCH  11  18
ATOM     18  N   UNL     1      28.835 -21.802 -16.182  0.00  0.00    -0.213 N 
ATOM     19  H   UNL     1      29.041 -20.840 -16.216  0.00  0.00    +0.174 HD
BRANCH  18  20
ATOM     20  S   UNL     1      27.321 -22.430 -16.746  0.00  0.00    +0.091 S 
ATOM     21  O   UNL     1      26.740 -21.266 -17.730  0.00  0.00    -0.050 OA
ATOM     22  O   UNL     1      27.577 -23.607 -17.556  0.00  0.00    -0.050 OA
ATOM     23  O   UNL     1      26.423 -22.515 -15.608  0.00  0.00    -0.050 OA
ENDBRANCH  18  20
ENDBRANCH  11  18
BRANCH   9  24
ATOM     24  O   UNL     1      36.072 -23.505 -16.531  0.00  0.00    -0.442 OA
BRANCH  24  25
ATOM     25  C   UNL     1      37.066 -22.540 -16.172  0.00  0.00    +0.138 C 
ATOM     26  C   UNL     1      37.010 -21.385 -17.172  0.00  0.00    +0.044 C 
ATOM     27  C   UNL     1      38.425 -23.235 -16.230  0.00  0.00    +0.044 C 
ATOM     28  C   UNL     1      36.776 -22.047 -14.755  0.00  0.00    +0.044 C 
ENDBRANCH  24  25
ENDBRANCH   9  24
TORSDOF 5
ENDMDL
MODEL 6
REMARK VINA RESULT:      -6.6      1.695      4.638
REMARK  Name = 5327155
REMARK  5 active torsions:
REMARK  status: ('A' for Active; 'I' for Inactive)
REMARK    1  A    between atoms: C_3  and  C_15
REMARK    2  A    between atoms: C_9  and  O_24
REMARK    3  A    between atoms: C_11  and  N_18
REMARK    4  A    between atoms: N_18  and  S_20
REMARK    5  A    between atoms: O_24  and  C_25
REMARK                            x       y       z     vdW  Elec       q    Type
REMARK                         _______ _______ _______ _____ _____    ______ ____
ROOT
ATOM      1  O   UNL     1      35.696 -25.733 -14.283  0.00  0.00    -0.226 OA
ATOM      2  N   UNL     1      35.655 -23.966 -15.804  0.00  0.00    -0.235 N 
ATOM      3  C   UNL     1      34.217 -24.071 -16.044  0.00  0.00    +0.159 C 
ATOM      4  C   UNL     1      33.859 -23.942 -17.522  0.00  0.00    +0.055 C 
ATOM      5  C   UNL     1      36.389 -22.858 -16.434  0.00  0.00    +0.124 C 
ATOM      6  C   UNL     1      34.567 -22.804 -18.205  0.00  0.00    -0.022 C 
ATOM      7  C   UNL     1      35.775 -22.307 -17.693  0.00  0.00    -0.005 C 
ATOM      8  C   UNL     1      36.427 -21.261 -18.365  0.00  0.00    +0.013 C 
ATOM      9  C   UNL     1      36.258 -24.793 -14.843  0.00  0.00    +0.405 C 
ATOM     10  C   UNL     1      34.044 -22.269 -19.391  0.00  0.00    -0.003 C 
ATOM     11  C   UNL     1      35.892 -20.726 -19.536  0.00  0.00    +0.065 C 
ATOM     12  C   UNL     1      34.701 -21.231 -20.050  0.00  0.00    +0.016 C 
ENDROOT
BRANCH   3  15
ATOM     13  O   UNL     1      34.206 -22.193 -14.567  0.00  0.00    -0.273 OA
ATOM     14  N   UNL     1      32.175 -23.136 -15.204  0.00  0.00    -0.301 N 
ATOM     15  C   UNL     1      33.555 -23.023 -15.194  0.00  0.00    +0.241 C 
ATOM     16  C   UNL     1      31.306 -22.262 -14.449  0.00  0.00    +0.111 C 
ATOM     17  H   UNL     1      31.767 -23.845 -15.750  0.00  0.00    +0.150 HD
ENDBRANCH   3  15
BRANCH  11  18
ATOM     18  N   UNL     1      36.567 -19.663 -20.209  0.00  0.00    -0.213 N 
ATOM     19  H   UNL     1      37.523 -19.482 -20.060  0.00  0.00    +0.174 HD
BRANCH  18  20
ATOM     20  S   UNL     1      35.620 -18.708 -21.301  0.00  0.00    +0.091 S 
ATOM     21  O   UNL     1      36.661 -18.293 -22.487  0.00  0.00    -0.050 OA
ATOM     22  O   UNL     1      34.593 -19.549 -21.888  0.00  0.00    -0.050 OA
ATOM     23  O   UNL     1      35.247 -17.485 -20.613  0.00  0.00    -0.050 OA
ENDBRANCH  18  20
ENDBRANCH  11  18
BRANCH   9  24
ATOM     24  O   UNL     1      37.555 -24.434 -14.583  0.00  0.00    -0.442 OA
BRANCH  24  25
ATOM     25  C   UNL     1      38.476 -25.510 -14.371  0.00  0.00    +0.138 C 
ATOM     26  C   UNL     1      37.887 -26.783 -14.979  0.00  0.00    +0.044 C 
ATOM     27  C   UNL     1      38.659 -25.670 -12.863  0.00  0.00    +0.044 C 
ATOM     28  C   UNL     1      39.803 -25.152 -15.038  0.00  0.00    +0.044 C 
ENDBRANCH  24  25
ENDBRANCH   9  24
TORSDOF 5
ENDMDL
