MODEL 1
REMARK VINA RESULT:      -7.6      0.000      0.000
REMARK  Name = 46936435
REMARK  8 active torsions:
REMARK  status: ('A' for Active; 'I' for Inactive)
REMARK    1  A    between atoms: C_2  and  O_7
REMARK    2  A    between atoms: C_3  and  C_13
REMARK    3  A    between atoms: C_4  and  O_9
REMARK    4  A    between atoms: C_6  and  O_11
REMARK    5  A    between atoms: C_13  and  O_14
REMARK    6  A    between atoms: O_14  and  P_15
REMARK    7  A    between atoms: P_15  and  O_17
REMARK    8  A    between atoms: P_15  and  O_19
REMARK                            x       y       z     vdW  Elec       q    Type
REMARK                         _______ _______ _______ _____ _____    ______ ____
ROOT
ATOM      1  O   UNL     1      35.925 -24.655 -14.735  0.00  0.00    -0.328 OA
ATOM      2  C   UNL     1      36.656 -25.704 -12.662  0.00  0.00    +0.167 C 
ATOM      3  C   UNL     1      37.058 -25.205 -14.056  0.00  0.00    +0.177 C 
ATOM      4  C   UNL     1      35.973 -24.595 -11.861  0.00  0.00    +0.145 C 
ATOM      5  C   UNL     1      34.865 -23.945 -12.682  0.00  0.00    +0.093 C 
ATOM      6  C   UNL     1      35.378 -23.525 -14.055  0.00  0.00    +0.234 C 
ENDROOT
BRANCH   2   7
ATOM      7  O   UNL     1      37.806 -26.130 -11.936  0.00  0.00    -0.379 OA
ATOM      8  H   UNL     1      38.402 -25.376 -11.803  0.00  0.00    +0.211 HD
ENDBRANCH   2   7
BRANCH   4   9
ATOM      9  O   UNL     1      35.400 -25.135 -10.674  0.00  0.00    -0.382 OA
ATOM     10  H   UNL     1      35.869 -25.947 -10.428  0.00  0.00    +0.210 HD
ENDBRANCH   4   9
BRANCH   6  11
ATOM     11  O   UNL     1      34.280 -22.989 -14.788  0.00  0.00    -0.360 OA
ATOM     12  H   UNL     1      34.482 -23.014 -15.737  0.00  0.00    +0.213 HD
ENDBRANCH   6  11
BRANCH   3  13
ATOM     13  C   UNL     1      37.609 -26.325 -14.932  0.00  0.00    +0.186 C 
BRANCH  13  14
ATOM     14  O   UNL     1      38.811 -26.801 -14.355  0.00  0.00    -0.271 OA
BRANCH  14  15
ATOM     15  P   UNL     1      40.150 -25.901 -14.505  0.00  0.00    +0.473 P 
ATOM     16  O   UNL     1      40.138 -24.614 -13.734  0.00  0.00    -0.227 OA
BRANCH  15  17
ATOM     17  O   UNL     1      40.330 -25.747 -16.105  0.00  0.00    -0.303 OA
ATOM     18  H   UNL     1      41.272 -25.662 -16.317  0.00  0.00    +0.222 HD
ENDBRANCH  15  17
BRANCH  15  19
ATOM     19  O   UNL     1      41.326 -26.931 -14.096  0.00  0.00    -0.303 OA
ATOM     20  H   UNL     1      41.169 -27.261 -13.197  0.00  0.00    +0.222 HD
ENDBRANCH  15  19
ENDBRANCH  14  15
ENDBRANCH  13  14
ENDBRANCH   3  13
TORSDOF 8
ENDMDL
MODEL 2
REMARK VINA RESULT:      -7.3      1.738      3.070
REMARK  Name = 46936435
REMARK  8 active torsions:
REMARK  status: ('A' for Active; 'I' for Inactive)
REMARK    1  A    between atoms: C_2  and  O_7
REMARK    2  A    between atoms: C_3  and  C_13
REMARK    3  A    between atoms: C_4  and  O_9
REMARK    4  A    between atoms: C_6  and  O_11
REMARK    5  A    between atoms: C_13  and  O_14
REMARK    6  A    between atoms: O_14  and  P_15
REMARK    7  A    between atoms: P_15  and  O_17
REMARK    8  A    between atoms: P_15  and  O_19
REMARK                            x       y       z     vdW  Elec       q    Type
REMARK                         _______ _______ _______ _____ _____    ______ ____
ROOT
ATOM      1  O   UNL     1      35.819 -24.787 -14.151  0.00  0.00    -0.328 OA
ATOM      2  C   UNL     1      37.580 -23.459 -15.183  0.00  0.00    +0.167 C 
ATOM      3  C   UNL     1      37.118 -24.855 -14.746  0.00  0.00    +0.177 C 
ATOM      4  C   UNL     1      36.547 -22.805 -16.102  0.00  0.00    +0.145 C 
ATOM      5  C   UNL     1      35.155 -22.885 -15.486  0.00  0.00    +0.093 C 
ATOM      6  C   UNL     1      34.827 -24.312 -15.061  0.00  0.00    +0.234 C 
ENDROOT
BRANCH   2   7
ATOM      7  O   UNL     1      38.812 -23.543 -15.893  0.00  0.00    -0.379 OA
ATOM      8  H   UNL     1      39.094 -22.653 -16.160  0.00  0.00    +0.211 HD
ENDBRANCH   2   7
BRANCH   4   9
ATOM      9  O   UNL     1      36.875 -21.433 -16.304  0.00  0.00    -0.382 OA
ATOM     10  H   UNL     1      37.353 -21.335 -17.140  0.00  0.00    +0.210 HD
ENDBRANCH   4   9
BRANCH   6  11
ATOM     11  O   UNL     1      33.546 -24.301 -14.438  0.00  0.00    -0.360 OA
ATOM     12  H   UNL     1      33.601 -23.824 -13.594  0.00  0.00    +0.213 HD
ENDBRANCH   6  11
BRANCH   3  13
ATOM     13  C   UNL     1      38.055 -25.474 -13.714  0.00  0.00    +0.186 C 
BRANCH  13  14
ATOM     14  O   UNL     1      38.859 -26.445 -14.359  0.00  0.00    -0.271 OA
BRANCH  14  15
ATOM     15  P   UNL     1      40.431 -26.124 -14.581  0.00  0.00    +0.473 P 
ATOM     16  O   UNL     1      41.373 -27.137 -14.000  0.00  0.00    -0.227 OA
BRANCH  15  17
ATOM     17  O   UNL     1      40.598 -24.619 -14.015  0.00  0.00    -0.303 OA
ATOM     18  H   UNL     1      40.946 -24.046 -14.716  0.00  0.00    +0.222 HD
ENDBRANCH  15  17
BRANCH  15  19
ATOM     19  O   UNL     1      40.538 -25.933 -16.183  0.00  0.00    -0.303 OA
ATOM     20  H   UNL     1      39.655 -25.766 -16.549  0.00  0.00    +0.222 HD
ENDBRANCH  15  19
ENDBRANCH  14  15
ENDBRANCH  13  14
ENDBRANCH   3  13
TORSDOF 8
ENDMDL
MODEL 3
REMARK VINA RESULT:      -7.3      1.503      1.887
REMARK  Name = 46936435
REMARK  8 active torsions:
REMARK  status: ('A' for Active; 'I' for Inactive)
REMARK    1  A    between atoms: C_2  and  O_7
REMARK    2  A    between atoms: C_3  and  C_13
REMARK    3  A    between atoms: C_4  and  O_9
REMARK    4  A    between atoms: C_6  and  O_11
REMARK    5  A    between atoms: C_13  and  O_14
REMARK    6  A    between atoms: O_14  and  P_15
REMARK    7  A    between atoms: P_15  and  O_17
REMARK    8  A    between atoms: P_15  and  O_19
REMARK                            x       y       z     vdW  Elec       q    Type
REMARK                         _______ _______ _______ _____ _____    ______ ____
ROOT
ATOM      1  O   UNL     1      36.068 -24.453 -14.290  0.00  0.00    -0.328 OA
ATOM      2  C   UNL     1      37.446 -23.740 -12.413  0.00  0.00    +0.167 C 
ATOM      3  C   UNL     1      37.133 -23.577 -13.906  0.00  0.00    +0.177 C 
ATOM      4  C   UNL     1      36.188 -23.541 -11.566  0.00  0.00    +0.145 C 
ATOM      5  C   UNL     1      35.042 -24.390 -12.103  0.00  0.00    +0.093 C 
ATOM      6  C   UNL     1      34.852 -24.167 -13.599  0.00  0.00    +0.234 C 
ENDROOT
BRANCH   2   7
ATOM      7  O   UNL     1      38.413 -22.777 -12.001  0.00  0.00    -0.379 OA
ATOM      8  H   UNL     1      39.176 -23.231 -11.611  0.00  0.00    +0.211 HD
ENDBRANCH   2   7
BRANCH   4   9
ATOM      9  O   UNL     1      36.444 -23.926 -10.218  0.00  0.00    -0.382 OA
ATOM     10  H   UNL     1      36.104 -23.247  -9.617  0.00  0.00    +0.210 HD
ENDBRANCH   4   9
BRANCH   6  11
ATOM     11  O   UNL     1      33.814 -25.035 -14.044  0.00  0.00    -0.360 OA
ATOM     12  H   UNL     1      33.127 -25.095 -13.360  0.00  0.00    +0.213 HD
ENDBRANCH   6  11
BRANCH   3  13
ATOM     13  C   UNL     1      38.332 -23.912 -14.786  0.00  0.00    +0.186 C 
BRANCH  13  14
ATOM     14  O   UNL     1      39.289 -24.601 -14.001  0.00  0.00    -0.271 OA
BRANCH  14  15
ATOM     15  P   UNL     1      39.898 -25.991 -14.568  0.00  0.00    +0.473 P 
ATOM     16  O   UNL     1      41.061 -26.536 -13.792  0.00  0.00    -0.227 OA
BRANCH  15  17
ATOM     17  O   UNL     1      40.194 -25.673 -16.125  0.00  0.00    -0.303 OA
ATOM     18  H   UNL     1      41.067 -26.020 -16.367  0.00  0.00    +0.222 HD
ENDBRANCH  15  17
BRANCH  15  19
ATOM     19  O   UNL     1      38.603 -26.958 -14.626  0.00  0.00    -0.303 OA
ATOM     20  H   UNL     1      37.818 -26.433 -14.847  0.00  0.00    +0.222 HD
ENDBRANCH  15  19
ENDBRANCH  14  15
ENDBRANCH  13  14
ENDBRANCH   3  13
TORSDOF 8
ENDMDL
MODEL 4
REMARK VINA RESULT:      -7.2      1.358      2.488
REMARK  Name = 46936435
REMARK  8 active torsions:
REMARK  status: ('A' for Active; 'I' for Inactive)
REMARK    1  A    between atoms: C_2  and  O_7
REMARK    2  A    between atoms: C_3  and  C_13
REMARK    3  A    between atoms: C_4  and  O_9
REMARK    4  A    between atoms: C_6  and  O_11
REMARK    5  A    between atoms: C_13  and  O_14
REMARK    6  A    between atoms: O_14  and  P_15
REMARK    7  A    between atoms: P_15  and  O_17
REMARK    8  A    between atoms: P_15  and  O_19
REMARK                            x       y       z     vdW  Elec       q    Type
REMARK                         _______ _______ _______ _____ _____    ______ ____
ROOT
ATOM      1  O   UNL     1      36.235 -24.373 -12.513  0.00  0.00    -0.328 OA
ATOM      2  C   UNL     1      36.660 -24.886 -14.855  0.00  0.00    +0.167 C 
ATOM      3  C   UNL     1      36.871 -25.304 -13.394  0.00  0.00    +0.177 C 
ATOM      4  C   UNL     1      35.172 -24.708 -15.162  0.00  0.00    +0.145 C 
ATOM      5  C   UNL     1      34.510 -23.823 -14.113  0.00  0.00    +0.093 C 
ATOM      6  C   UNL     1      34.822 -24.318 -12.705  0.00  0.00    +0.234 C 
ENDROOT
BRANCH   2   7
ATOM      7  O   UNL     1      37.177 -25.880 -15.735  0.00  0.00    -0.379 OA
ATOM      8  H   UNL     1      37.918 -26.337 -15.308  0.00  0.00    +0.211 HD
ENDBRANCH   2   7
BRANCH   4   9
ATOM      9  O   UNL     1      35.009 -24.097 -16.439  0.00  0.00    -0.382 OA
ATOM     10  H   UNL     1      35.592 -23.326 -16.505  0.00  0.00    +0.210 HD
ENDBRANCH   4   9
BRANCH   6  11
ATOM     11  O   UNL     1      34.230 -23.410 -11.780  0.00  0.00    -0.360 OA
ATOM     12  H   UNL     1      33.414 -23.798 -11.425  0.00  0.00    +0.213 HD
ENDBRANCH   6  11
BRANCH   3  13
ATOM     13  C   UNL     1      38.348 -25.347 -13.016  0.00  0.00    +0.186 C 
BRANCH  13  14
ATOM     14  O   UNL     1      39.013 -26.235 -13.895  0.00  0.00    -0.271 OA
BRANCH  14  15
ATOM     15  P   UNL     1      40.461 -25.803 -14.481  0.00  0.00    +0.473 P 
ATOM     16  O   UNL     1      40.976 -24.484 -13.986  0.00  0.00    -0.227 OA
BRANCH  15  17
ATOM     17  O   UNL     1      40.274 -25.915 -16.083  0.00  0.00    -0.303 OA
ATOM     18  H   UNL     1      39.505 -25.392 -16.357  0.00  0.00    +0.222 HD
ENDBRANCH  15  17
BRANCH  15  19
ATOM     19  O   UNL     1      41.390 -27.077 -14.125  0.00  0.00    -0.303 OA
ATOM     20  H   UNL     1      42.141 -27.110 -14.738  0.00  0.00    +0.222 HD
ENDBRANCH  15  19
ENDBRANCH  14  15
ENDBRANCH  13  14
ENDBRANCH   3  13
TORSDOF 8
ENDMDL
MODEL 5
REMARK VINA RESULT:      -7.2      1.327      2.013
REMARK  Name = 46936435
REMARK  8 active torsions:
REMARK  status: ('A' for Active; 'I' for Inactive)
REMARK    1  A    between atoms: C_2  and  O_7
REMARK    2  A    between atoms: C_3  and  C_13
REMARK    3  A    between atoms: C_4  and  O_9
REMARK    4  A    between atoms: C_6  and  O_11
REMARK    5  A    between atoms: C_13  and  O_14
REMARK    6  A    between atoms: O_14  and  P_15
REMARK    7  A    between atoms: P_15  and  O_17
REMARK    8  A    between atoms: P_15  and  O_19
REMARK                            x       y       z     vdW  Elec       q    Type
REMARK                         _______ _______ _______ _____ _____    ______ ____
ROOT
ATOM      1  O   UNL     1      37.456 -24.365 -14.562  0.00  0.00    -0.328 OA
ATOM      2  C   UNL     1      36.089 -25.071 -12.675  0.00  0.00    +0.167 C 
ATOM      3  C   UNL     1      37.452 -24.546 -13.142  0.00  0.00    +0.177 C 
ATOM      4  C   UNL     1      34.959 -24.158 -13.153  0.00  0.00    +0.145 C 
ATOM      5  C   UNL     1      35.090 -23.881 -14.646  0.00  0.00    +0.093 C 
ATOM      6  C   UNL     1      36.495 -23.400 -14.991  0.00  0.00    +0.234 C 
ENDROOT
BRANCH   2   7
ATOM      7  O   UNL     1      36.040 -25.126 -11.252  0.00  0.00    -0.379 OA
ATOM      8  H   UNL     1      35.465 -25.856 -10.975  0.00  0.00    +0.211 HD
ENDBRANCH   2   7
BRANCH   4   9
ATOM      9  O   UNL     1      33.699 -24.780 -12.917  0.00  0.00    -0.382 OA
ATOM     10  H   UNL     1      33.155 -24.723 -13.716  0.00  0.00    +0.210 HD
ENDBRANCH   4   9
BRANCH   6  11
ATOM     11  O   UNL     1      36.565 -23.225 -16.403  0.00  0.00    -0.360 OA
ATOM     12  H   UNL     1      37.396 -22.779 -16.633  0.00  0.00    +0.213 HD
ENDBRANCH   6  11
BRANCH   3  13
ATOM     13  C   UNL     1      38.586 -25.510 -12.808  0.00  0.00    +0.186 C 
BRANCH  13  14
ATOM     14  O   UNL     1      38.982 -26.170 -13.996  0.00  0.00    -0.271 OA
BRANCH  14  15
ATOM     15  P   UNL     1      40.521 -26.029 -14.483  0.00  0.00    +0.473 P 
ATOM     16  O   UNL     1      41.443 -27.102 -13.983  0.00  0.00    -0.227 OA
BRANCH  15  17
ATOM     17  O   UNL     1      40.921 -24.521 -14.059  0.00  0.00    -0.303 OA
ATOM     18  H   UNL     1      41.855 -24.495 -13.800  0.00  0.00    +0.222 HD
ENDBRANCH  15  17
BRANCH  15  19
ATOM     19  O   UNL     1      40.386 -25.940 -16.092  0.00  0.00    -0.303 OA
ATOM     20  H   UNL     1      40.004 -26.765 -16.430  0.00  0.00    +0.222 HD
ENDBRANCH  15  19
ENDBRANCH  14  15
ENDBRANCH  13  14
ENDBRANCH   3  13
TORSDOF 8
ENDMDL
MODEL 6
REMARK VINA RESULT:      -7.1      3.374      5.329
REMARK  Name = 46936435
REMARK  8 active torsions:
REMARK  status: ('A' for Active; 'I' for Inactive)
REMARK    1  A    between atoms: C_2  and  O_7
REMARK    2  A    between atoms: C_3  and  C_13
REMARK    3  A    between atoms: C_4  and  O_9
REMARK    4  A    between atoms: C_6  and  O_11
REMARK    5  A    between atoms: C_13  and  O_14
REMARK    6  A    between atoms: O_14  and  P_15
REMARK    7  A    between atoms: P_15  and  O_17
REMARK    8  A    between atoms: P_15  and  O_19
REMARK                            x       y       z     vdW  Elec       q    Type
REMARK                         _______ _______ _______ _____ _____    ______ ____
ROOT
ATOM      1  O   UNL     1      32.701 -24.285 -13.268  0.00  0.00    -0.328 OA
ATOM      2  C   UNL     1      33.391 -23.414 -15.435  0.00  0.00    +0.167 C 
ATOM      3  C   UNL     1      33.737 -24.331 -14.255  0.00  0.00    +0.177 C 
ATOM      4  C   UNL     1      32.016 -23.760 -16.010  0.00  0.00    +0.145 C 
ATOM      5  C   UNL     1      30.976 -23.839 -14.900  0.00  0.00    +0.093 C 
ATOM      6  C   UNL     1      31.449 -24.748 -13.771  0.00  0.00    +0.234 C 
ENDROOT
BRANCH   2   7
ATOM      7  O   UNL     1      34.354 -23.560 -16.476  0.00  0.00    -0.379 OA
ATOM      8  H   UNL     1      34.441 -24.498 -16.707  0.00  0.00    +0.211 HD
ENDBRANCH   2   7
BRANCH   4   9
ATOM      9  O   UNL     1      31.612 -22.759 -16.940  0.00  0.00    -0.382 OA
ATOM     10  H   UNL     1      31.995 -22.951 -17.809  0.00  0.00    +0.210 HD
ENDBRANCH   4   9
BRANCH   6  11
ATOM     11  O   UNL     1      30.462 -24.723 -12.744  0.00  0.00    -0.360 OA
ATOM     12  H   UNL     1      30.749 -25.283 -12.006  0.00  0.00    +0.213 HD
ENDBRANCH   6  11
BRANCH   3  13
ATOM     13  C   UNL     1      35.034 -23.918 -13.567  0.00  0.00    +0.186 C 
BRANCH  13  14
ATOM     14  O   UNL     1      34.808 -23.873 -12.169  0.00  0.00    -0.271 OA
BRANCH  14  15
ATOM     15  P   UNL     1      36.045 -24.201 -11.175  0.00  0.00    +0.473 P 
ATOM     16  O   UNL     1      37.081 -23.120 -11.076  0.00  0.00    -0.227 OA
BRANCH  15  17
ATOM     17  O   UNL     1      36.585 -25.633 -11.696  0.00  0.00    -0.303 OA
ATOM     18  H   UNL     1      36.424 -25.712 -12.649  0.00  0.00    +0.222 HD
ENDBRANCH  15  17
BRANCH  15  19
ATOM     19  O   UNL     1      35.305 -24.565  -9.785  0.00  0.00    -0.303 OA
ATOM     20  H   UNL     1      35.960 -24.880  -9.142  0.00  0.00    +0.222 HD
ENDBRANCH  15  19
ENDBRANCH  14  15
ENDBRANCH  13  14
ENDBRANCH   3  13
TORSDOF 8
ENDMDL
MODEL 7
REMARK VINA RESULT:      -7.0      2.899      4.546
REMARK  Name = 46936435
REMARK  8 active torsions:
REMARK  status: ('A' for Active; 'I' for Inactive)
REMARK    1  A    between atoms: C_2  and  O_7
REMARK    2  A    between atoms: C_3  and  C_13
REMARK    3  A    between atoms: C_4  and  O_9
REMARK    4  A    between atoms: C_6  and  O_11
REMARK    5  A    between atoms: C_13  and  O_14
REMARK    6  A    between atoms: O_14  and  P_15
REMARK    7  A    between atoms: P_15  and  O_17
REMARK    8  A    between atoms: P_15  and  O_19
REMARK                            x       y       z     vdW  Elec       q    Type
REMARK                         _______ _______ _______ _____ _____    ______ ____
ROOT
ATOM      1  O   UNL     1      34.547 -24.003 -16.450  0.00  0.00    -0.328 OA
ATOM      2  C   UNL     1      33.269 -23.874 -14.381  0.00  0.00    +0.167 C 
ATOM      3  C   UNL     1      34.628 -23.667 -15.061  0.00  0.00    +0.177 C 
ATOM      4  C   UNL     1      32.170 -23.098 -15.110  0.00  0.00    +0.145 C 
ATOM      5  C   UNL     1      32.217 -23.381 -16.607  0.00  0.00    +0.093 C 
ATOM      6  C   UNL     1      33.624 -23.176 -17.157  0.00  0.00    +0.234 C 
ENDROOT
BRANCH   2   7
ATOM      7  O   UNL     1      33.313 -23.416 -13.033  0.00  0.00    -0.379 OA
ATOM      8  H   UNL     1      33.355 -22.447 -13.021  0.00  0.00    +0.211 HD
ENDBRANCH   2   7
BRANCH   4   9
ATOM      9  O   UNL     1      30.892 -23.486 -14.615  0.00  0.00    -0.382 OA
ATOM     10  H   UNL     1      30.966 -23.728 -13.680  0.00  0.00    +0.210 HD
ENDBRANCH   4   9
BRANCH   6  11
ATOM     11  O   UNL     1      33.609 -23.520 -18.540  0.00  0.00    -0.360 OA
ATOM     12  H   UNL     1      34.511 -23.472 -18.895  0.00  0.00    +0.213 HD
ENDBRANCH   6  11
BRANCH   3  13
ATOM     13  C   UNL     1      35.717 -24.543 -14.448  0.00  0.00    +0.186 C 
BRANCH  13  14
ATOM     14  O   UNL     1      36.171 -23.929 -13.255  0.00  0.00    -0.271 OA
BRANCH  14  15
ATOM     15  P   UNL     1      36.535 -24.873 -11.990  0.00  0.00    +0.473 P 
ATOM     16  O   UNL     1      37.701 -24.408 -11.168  0.00  0.00    -0.227 OA
BRANCH  15  17
ATOM     17  O   UNL     1      36.691 -26.344 -12.642  0.00  0.00    -0.303 OA
ATOM     18  H   UNL     1      36.643 -26.277 -13.609  0.00  0.00    +0.222 HD
ENDBRANCH  15  17
BRANCH  15  19
ATOM     19  O   UNL     1      35.131 -24.967 -11.193  0.00  0.00    -0.303 OA
ATOM     20  H   UNL     1      35.279 -24.772 -10.254  0.00  0.00    +0.222 HD
ENDBRANCH  15  19
ENDBRANCH  14  15
ENDBRANCH  13  14
ENDBRANCH   3  13
TORSDOF 8
ENDMDL
MODEL 8
REMARK VINA RESULT:      -6.9      2.653      4.051
REMARK  Name = 46936435
REMARK  8 active torsions:
REMARK  status: ('A' for Active; 'I' for Inactive)
REMARK    1  A    between atoms: C_2  and  O_7
REMARK    2  A    between atoms: C_3  and  C_13
REMARK    3  A    between atoms: C_4  and  O_9
REMARK    4  A    between atoms: C_6  and  O_11
REMARK    5  A    between atoms: C_13  and  O_14
REMARK    6  A    between atoms: O_14  and  P_15
REMARK    7  A    between atoms: P_15  and  O_17
REMARK    8  A    between atoms: P_15  and  O_19
REMARK                            x       y       z     vdW  Elec       q    Type
REMARK                         _______ _______ _______ _____ _____    ______ ____
ROOT
ATOM      1  O   UNL     1      34.504 -24.105 -16.344  0.00  0.00    -0.328 OA
ATOM      2  C   UNL     1      33.163 -23.885 -14.324  0.00  0.00    +0.167 C 
ATOM      3  C   UNL     1      34.554 -23.755 -14.957  0.00  0.00    +0.177 C 
ATOM      4  C   UNL     1      32.131 -23.064 -15.100  0.00  0.00    +0.145 C 
ATOM      5  C   UNL     1      32.216 -23.369 -16.591  0.00  0.00    +0.093 C 
ATOM      6  C   UNL     1      33.649 -23.242 -17.093  0.00  0.00    +0.234 C 
ENDROOT
BRANCH   2   7
ATOM      7  O   UNL     1      33.183 -23.411 -12.980  0.00  0.00    -0.379 OA
ATOM      8  H   UNL     1      34.099 -23.242 -12.710  0.00  0.00    +0.211 HD
ENDBRANCH   2   7
BRANCH   4   9
ATOM      9  O   UNL     1      30.818 -23.380 -14.647  0.00  0.00    -0.382 OA
ATOM     10  H   UNL     1      30.488 -24.156 -15.125  0.00  0.00    +0.210 HD
ENDBRANCH   4   9
BRANCH   6  11
ATOM     11  O   UNL     1      33.665 -23.602 -18.472  0.00  0.00    -0.360 OA
ATOM     12  H   UNL     1      34.524 -23.369 -18.857  0.00  0.00    +0.213 HD
ENDBRANCH   6  11
BRANCH   3  13
ATOM     13  C   UNL     1      35.575 -24.676 -14.297  0.00  0.00    +0.186 C 
BRANCH  13  14
ATOM     14  O   UNL     1      36.531 -25.059 -15.268  0.00  0.00    -0.271 OA
BRANCH  14  15
ATOM     15  P   UNL     1      37.347 -26.441 -15.047  0.00  0.00    +0.473 P 
ATOM     16  O   UNL     1      37.184 -27.063 -13.691  0.00  0.00    -0.227 OA
BRANCH  15  17
ATOM     17  O   UNL     1      38.864 -26.061 -15.456  0.00  0.00    -0.303 OA
ATOM     18  H   UNL     1      39.483 -26.543 -14.886  0.00  0.00    +0.222 HD
ENDBRANCH  15  17
BRANCH  15  19
ATOM     19  O   UNL     1      36.847 -27.358 -16.282  0.00  0.00    -0.303 OA
ATOM     20  H   UNL     1      37.058 -28.287 -16.101  0.00  0.00    +0.222 HD
ENDBRANCH  15  19
ENDBRANCH  14  15
ENDBRANCH  13  14
ENDBRANCH   3  13
TORSDOF 8
ENDMDL
MODEL 9
REMARK VINA RESULT:      -6.9      2.890      3.927
REMARK  Name = 46936435
REMARK  8 active torsions:
REMARK  status: ('A' for Active; 'I' for Inactive)
REMARK    1  A    between atoms: C_2  and  O_7
REMARK    2  A    between atoms: C_3  and  C_13
REMARK    3  A    between atoms: C_4  and  O_9
REMARK    4  A    between atoms: C_6  and  O_11
REMARK    5  A    between atoms: C_13  and  O_14
REMARK    6  A    between atoms: O_14  and  P_15
REMARK    7  A    between atoms: P_15  and  O_17
REMARK    8  A    between atoms: P_15  and  O_19
REMARK                            x       y       z     vdW  Elec       q    Type
REMARK                         _______ _______ _______ _____ _____    ______ ____
ROOT
ATOM      1  O   UNL     1      33.205 -23.493 -16.130  0.00  0.00    -0.328 OA
ATOM      2  C   UNL     1      33.227 -24.631 -13.978  0.00  0.00    +0.167 C 
ATOM      3  C   UNL     1      33.959 -23.675 -14.928  0.00  0.00    +0.177 C 
ATOM      4  C   UNL     1      31.802 -24.148 -13.708  0.00  0.00    +0.145 C 
ATOM      5  C   UNL     1      31.087 -23.831 -15.016  0.00  0.00    +0.093 C 
ATOM      6  C   UNL     1      31.927 -22.904 -15.887  0.00  0.00    +0.234 C 
ENDROOT
BRANCH   2   7
ATOM      7  O   UNL     1      33.911 -24.711 -12.730  0.00  0.00    -0.379 OA
ATOM      8  H   UNL     1      33.273 -24.899 -12.023  0.00  0.00    +0.211 HD
ENDBRANCH   2   7
BRANCH   4   9
ATOM      9  O   UNL     1      31.067 -25.158 -13.023  0.00  0.00    -0.382 OA
ATOM     10  H   UNL     1      31.404 -26.031 -13.276  0.00  0.00    +0.210 HD
ENDBRANCH   4   9
BRANCH   6  11
ATOM     11  O   UNL     1      31.232 -22.704 -17.114  0.00  0.00    -0.360 OA
ATOM     12  H   UNL     1      31.204 -23.538 -17.609  0.00  0.00    +0.213 HD
ENDBRANCH   6  11
BRANCH   3  13
ATOM     13  C   UNL     1      35.331 -24.205 -15.333  0.00  0.00    +0.186 C 
BRANCH  13  14
ATOM     14  O   UNL     1      35.424 -25.563 -14.943  0.00  0.00    -0.271 OA
BRANCH  14  15
ATOM     15  P   UNL     1      36.882 -26.268 -14.936  0.00  0.00    +0.473 P 
ATOM     16  O   UNL     1      37.242 -26.965 -13.657  0.00  0.00    -0.227 OA
BRANCH  15  17
ATOM     17  O   UNL     1      37.884 -25.080 -15.382  0.00  0.00    -0.303 OA
ATOM     18  H   UNL     1      37.373 -24.276 -15.562  0.00  0.00    +0.222 HD
ENDBRANCH  15  17
BRANCH  15  19
ATOM     19  O   UNL     1      36.830 -27.221 -16.241  0.00  0.00    -0.303 OA
ATOM     20  H   UNL     1      36.326 -26.780 -16.943  0.00  0.00    +0.222 HD
ENDBRANCH  15  19
ENDBRANCH  14  15
ENDBRANCH  13  14
ENDBRANCH   3  13
TORSDOF 8
ENDMDL
