MODEL 1
REMARK VINA RESULT:     -10.0      0.000      0.000
REMARK  Name = 11291
REMARK  1 active torsions:
REMARK  status: ('A' for Active; 'I' for Inactive)
REMARK    1  A    between atoms: C_2  and  C_16
REMARK                            x       y       z     vdW  Elec       q    Type
REMARK                         _______ _______ _______ _____ _____    ______ ____
ROOT
ATOM      1  N   UNL     1      31.684 -24.424 -14.600  0.00  0.00    +0.388 N 
ATOM      2  C   UNL     1      35.280 -23.007 -15.219  0.00  0.00    +0.060 C 
ATOM      3  C   UNL     1      33.810 -23.375 -15.303  0.00  0.00    -0.062 C 
ATOM      4  C   UNL     1      33.291 -23.171 -16.526  0.00  0.00    -0.034 C 
ATOM      5  C   UNL     1      32.981 -23.864 -14.158  0.00  0.00    -0.054 C 
ATOM      6  C   UNL     1      35.524 -22.547 -16.640  0.00  0.00    -0.015 C 
ATOM      7  C   UNL     1      31.861 -23.392 -16.861  0.00  0.00    +0.003 C 
ATOM      8  C   UNL     1      34.339 -22.656 -17.389  0.00  0.00    -0.008 C 
ATOM      9  C   UNL     1      31.018 -23.549 -15.579  0.00  0.00    -0.072 C 
ATOM     10  C   UNL     1      36.690 -22.060 -17.208  0.00  0.00    -0.004 C 
ATOM     11  C   UNL     1      34.305 -22.290 -18.724  0.00  0.00    -0.001 C 
ATOM     12  C   UNL     1      30.819 -24.681 -13.451  0.00  0.00    -0.100 C 
ATOM     13  C   UNL     1      36.661 -21.692 -18.554  0.00  0.00    -0.000 C 
ATOM     14  C   UNL     1      35.480 -21.807 -19.306  0.00  0.00    -0.000 C 
ATOM     15  H   UNL     1      31.873 -25.312 -15.068  0.00  0.00    -0.079 HD
ENDROOT
BRANCH   2  16
ATOM     16  C   UNL     1      36.177 -24.140 -14.772  0.00  0.00    -0.015 C 
ATOM     17  C   UNL     1      37.207 -23.899 -13.861  0.00  0.00    -0.004 C 
ATOM     18  C   UNL     1      35.975 -25.429 -15.269  0.00  0.00    -0.004 C 
ATOM     19  C   UNL     1      38.035 -24.943 -13.450  0.00  0.00    -0.000 C 
ATOM     20  C   UNL     1      36.803 -26.473 -14.856  0.00  0.00    -0.000 C 
ATOM     21  C   UNL     1      37.833 -26.230 -13.947  0.00  0.00    -0.000 C 
ENDBRANCH   2  16
TORSDOF 1
ENDMDL
MODEL 2
REMARK VINA RESULT:      -9.4      1.633      4.625
REMARK  Name = 11291
REMARK  1 active torsions:
REMARK  status: ('A' for Active; 'I' for Inactive)
REMARK    1  A    between atoms: C_2  and  C_16
REMARK                            x       y       z     vdW  Elec       q    Type
REMARK                         _______ _______ _______ _____ _____    ______ ____
ROOT
ATOM      1  N   UNL     1      36.366 -24.123 -13.619  0.00  0.00    +0.388 N 
ATOM      2  C   UNL     1      33.920 -23.777 -16.654  0.00  0.00    +0.060 C 
ATOM      3  C   UNL     1      35.116 -23.761 -15.721  0.00  0.00    -0.062 C 
ATOM      4  C   UNL     1      36.108 -22.967 -16.159  0.00  0.00    -0.034 C 
ATOM      5  C   UNL     1      35.238 -24.568 -14.467  0.00  0.00    -0.054 C 
ATOM      6  C   UNL     1      34.405 -22.831 -17.730  0.00  0.00    -0.015 C 
ATOM      7  C   UNL     1      37.413 -22.820 -15.466  0.00  0.00    +0.003 C 
ATOM      8  C   UNL     1      35.694 -22.365 -17.414  0.00  0.00    -0.008 C 
ATOM      9  C   UNL     1      37.596 -23.925 -14.406  0.00  0.00    -0.072 C 
ATOM     10  C   UNL     1      33.763 -22.434 -18.892  0.00  0.00    -0.004 C 
ATOM     11  C   UNL     1      36.357 -21.485 -18.252  0.00  0.00    -0.001 C 
ATOM     12  C   UNL     1      36.590 -25.069 -12.526  0.00  0.00    -0.100 C 
ATOM     13  C   UNL     1      34.428 -21.545 -19.739  0.00  0.00    -0.000 C 
ATOM     14  C   UNL     1      35.713 -21.074 -19.422  0.00  0.00    -0.000 C 
ATOM     15  H   UNL     1      36.115 -23.219 -13.217  0.00  0.00    -0.079 HD
ENDROOT
BRANCH   2  16
ATOM     16  C   UNL     1      32.620 -23.360 -16.001  0.00  0.00    -0.015 C 
ATOM     17  C   UNL     1      32.568 -23.142 -14.623  0.00  0.00    -0.004 C 
ATOM     18  C   UNL     1      31.472 -23.192 -16.776  0.00  0.00    -0.004 C 
ATOM     19  C   UNL     1      31.369 -22.758 -14.022  0.00  0.00    -0.000 C 
ATOM     20  C   UNL     1      30.273 -22.808 -16.174  0.00  0.00    -0.000 C 
ATOM     21  C   UNL     1      30.222 -22.591 -14.797  0.00  0.00    -0.000 C 
ENDBRANCH   2  16
TORSDOF 1
ENDMDL
MODEL 3
REMARK VINA RESULT:      -9.2     14.313     17.172
REMARK  Name = 11291
REMARK  1 active torsions:
REMARK  status: ('A' for Active; 'I' for Inactive)
REMARK    1  A    between atoms: C_2  and  C_16
REMARK                            x       y       z     vdW  Elec       q    Type
REMARK                         _______ _______ _______ _____ _____    ______ ____
ROOT
ATOM      1  N   UNL     1      32.005  -5.578 -23.467  0.00  0.00    +0.388 N 
ATOM      2  C   UNL     1      31.851  -9.479 -23.204  0.00  0.00    +0.060 C 
ATOM      3  C   UNL     1      31.798  -7.986 -22.945  0.00  0.00    -0.062 C 
ATOM      4  C   UNL     1      31.754  -7.685 -21.636  0.00  0.00    -0.034 C 
ATOM      5  C   UNL     1      31.745  -6.932 -24.005  0.00  0.00    -0.054 C 
ATOM      6  C   UNL     1      31.832 -10.000 -21.784  0.00  0.00    -0.015 C 
ATOM      7  C   UNL     1      31.635  -6.301 -21.112  0.00  0.00    +0.003 C 
ATOM      8  C   UNL     1      31.778  -8.925 -20.879  0.00  0.00    -0.008 C 
ATOM      9  C   UNL     1      31.237  -5.323 -22.236  0.00  0.00    -0.072 C 
ATOM     10  C   UNL     1      31.845 -11.313 -21.339  0.00  0.00    -0.004 C 
ATOM     11  C   UNL     1      31.746  -9.145 -19.513  0.00  0.00    -0.001 C 
ATOM     12  C   UNL     1      31.725  -4.561 -24.480  0.00  0.00    -0.100 C 
ATOM     13  C   UNL     1      31.815 -11.539 -19.961  0.00  0.00    -0.000 C 
ATOM     14  C   UNL     1      31.767 -10.465 -19.056  0.00  0.00    -0.000 C 
ATOM     15  H   UNL     1      32.995  -5.526 -23.222  0.00  0.00    -0.079 HD
ENDROOT
BRANCH   2  16
ATOM     16  C   UNL     1      33.051  -9.926 -24.012  0.00  0.00    -0.015 C 
ATOM     17  C   UNL     1      34.225  -9.171 -23.994  0.00  0.00    -0.004 C 
ATOM     18  C   UNL     1      32.984 -11.092 -24.774  0.00  0.00    -0.004 C 
ATOM     19  C   UNL     1      35.331  -9.582 -24.740  0.00  0.00    -0.000 C 
ATOM     20  C   UNL     1      34.090 -11.503 -25.519  0.00  0.00    -0.000 C 
ATOM     21  C   UNL     1      35.263 -10.748 -25.501  0.00  0.00    -0.000 C 
ENDBRANCH   2  16
TORSDOF 1
ENDMDL
MODEL 4
REMARK VINA RESULT:      -8.9     10.119     13.533
REMARK  Name = 11291
REMARK  1 active torsions:
REMARK  status: ('A' for Active; 'I' for Inactive)
REMARK    1  A    between atoms: C_2  and  C_16
REMARK                            x       y       z     vdW  Elec       q    Type
REMARK                         _______ _______ _______ _____ _____    ______ ____
ROOT
ATOM      1  N   UNL     1      34.298 -16.452 -21.813  0.00  0.00    +0.388 N 
ATOM      2  C   UNL     1      33.830 -12.870 -23.317  0.00  0.00    +0.060 C 
ATOM      3  C   UNL     1      33.826 -14.108 -22.440  0.00  0.00    -0.062 C 
ATOM      4  C   UNL     1      32.940 -14.030 -21.433  0.00  0.00    -0.034 C 
ATOM      5  C   UNL     1      34.732 -15.286 -22.614  0.00  0.00    -0.054 C 
ATOM      6  C   UNL     1      32.766 -12.046 -22.626  0.00  0.00    -0.015 C 
ATOM      7  C   UNL     1      32.778 -15.079 -20.395  0.00  0.00    +0.003 C 
ATOM      8  C   UNL     1      32.255 -12.752 -21.522  0.00  0.00    -0.008 C 
ATOM      9  C   UNL     1      33.959 -16.070 -20.431  0.00  0.00    -0.072 C 
ATOM     10  C   UNL     1      32.307 -10.777 -22.942  0.00  0.00    -0.004 C 
ATOM     11  C   UNL     1      31.267 -12.204 -20.722  0.00  0.00    -0.001 C 
ATOM     12  C   UNL     1      35.321 -17.496 -21.832  0.00  0.00    -0.100 C 
ATOM     13  C   UNL     1      31.310 -10.221 -22.139  0.00  0.00    -0.000 C 
ATOM     14  C   UNL     1      30.793 -10.928 -21.039  0.00  0.00    -0.000 C 
ATOM     15  H   UNL     1      33.449 -16.824 -22.241  0.00  0.00    -0.079 HD
ENDROOT
BRANCH   2  16
ATOM     16  C   UNL     1      33.549 -13.145 -24.779  0.00  0.00    -0.015 C 
ATOM     17  C   UNL     1      33.034 -14.382 -25.170  0.00  0.00    -0.004 C 
ATOM     18  C   UNL     1      33.804 -12.162 -25.736  0.00  0.00    -0.004 C 
ATOM     19  C   UNL     1      32.776 -14.636 -26.518  0.00  0.00    -0.000 C 
ATOM     20  C   UNL     1      33.546 -12.417 -27.083  0.00  0.00    -0.000 C 
ATOM     21  C   UNL     1      33.031 -13.653 -27.474  0.00  0.00    -0.000 C 
ENDBRANCH   2  16
TORSDOF 1
ENDMDL
MODEL 5
REMARK VINA RESULT:      -8.6     15.628     18.223
REMARK  Name = 11291
REMARK  1 active torsions:
REMARK  status: ('A' for Active; 'I' for Inactive)
REMARK    1  A    between atoms: C_2  and  C_16
REMARK                            x       y       z     vdW  Elec       q    Type
REMARK                         _______ _______ _______ _____ _____    ______ ____
ROOT
ATOM      1  N   UNL     1      31.933  -7.942 -20.761  0.00  0.00    +0.388 N 
ATOM      2  C   UNL     1      34.353  -7.517 -23.807  0.00  0.00    +0.060 C 
ATOM      3  C   UNL     1      33.292  -7.341 -22.737  0.00  0.00    -0.062 C 
ATOM      4  C   UNL     1      32.414  -6.367 -23.029  0.00  0.00    -0.034 C 
ATOM      5  C   UNL     1      33.228  -8.112 -21.457  0.00  0.00    -0.054 C 
ATOM      6  C   UNL     1      33.922  -6.452 -24.792  0.00  0.00    -0.015 C 
ATOM      7  C   UNL     1      31.315  -5.949 -22.123  0.00  0.00    +0.003 C 
ATOM      8  C   UNL     1      32.777  -5.791 -24.313  0.00  0.00    -0.008 C 
ATOM      9  C   UNL     1      31.523  -6.528 -20.709  0.00  0.00    -0.072 C 
ATOM     10  C   UNL     1      34.507  -6.094 -25.996  0.00  0.00    -0.004 C 
ATOM     11  C   UNL     1      32.190  -4.767 -25.037  0.00  0.00    -0.001 C 
ATOM     12  C   UNL     1      31.991  -8.521 -19.420  0.00  0.00    -0.100 C 
ATOM     13  C   UNL     1      33.918  -5.063 -26.730  0.00  0.00    -0.000 C 
ATOM     14  C   UNL     1      32.770  -4.406 -26.256  0.00  0.00    -0.000 C 
ATOM     15  H   UNL     1      31.224  -8.442 -21.298  0.00  0.00    -0.079 HD
ENDROOT
BRANCH   2  16
ATOM     16  C   UNL     1      34.417  -8.912 -24.392  0.00  0.00    -0.015 C 
ATOM     17  C   UNL     1      35.374  -9.220 -25.359  0.00  0.00    -0.004 C 
ATOM     18  C   UNL     1      33.520  -9.891 -23.963  0.00  0.00    -0.004 C 
ATOM     19  C   UNL     1      35.432 -10.506 -25.899  0.00  0.00    -0.000 C 
ATOM     20  C   UNL     1      33.579 -11.176 -24.502  0.00  0.00    -0.000 C 
ATOM     21  C   UNL     1      34.535 -11.483 -25.469  0.00  0.00    -0.000 C 
ENDBRANCH   2  16
TORSDOF 1
ENDMDL
MODEL 6
REMARK VINA RESULT:      -8.5      1.816      5.538
REMARK  Name = 11291
REMARK  1 active torsions:
REMARK  status: ('A' for Active; 'I' for Inactive)
REMARK    1  A    between atoms: C_2  and  C_16
REMARK                            x       y       z     vdW  Elec       q    Type
REMARK                         _______ _______ _______ _____ _____    ______ ____
ROOT
ATOM      1  N   UNL     1      38.327 -25.151 -15.096  0.00  0.00    +0.388 N 
ATOM      2  C   UNL     1      35.326 -22.683 -15.567  0.00  0.00    +0.060 C 
ATOM      3  C   UNL     1      36.254 -23.804 -15.138  0.00  0.00    -0.062 C 
ATOM      4  C   UNL     1      35.610 -24.798 -14.502  0.00  0.00    -0.034 C 
ATOM      5  C   UNL     1      37.736 -23.815 -15.336  0.00  0.00    -0.054 C 
ATOM      6  C   UNL     1      34.005 -23.216 -15.059  0.00  0.00    -0.015 C 
ATOM      7  C   UNL     1      36.291 -25.984 -13.926  0.00  0.00    +0.003 C 
ATOM      8  C   UNL     1      34.198 -24.463 -14.439  0.00  0.00    -0.008 C 
ATOM      9  C   UNL     1      37.816 -25.758 -13.856  0.00  0.00    -0.072 C 
ATOM     10  C   UNL     1      32.748 -22.635 -15.127  0.00  0.00    -0.004 C 
ATOM     11  C   UNL     1      33.134 -25.156 -13.886  0.00  0.00    -0.001 C 
ATOM     12  C   UNL     1      39.786 -25.070 -15.079  0.00  0.00    -0.100 C 
ATOM     13  C   UNL     1      31.672 -23.331 -14.573  0.00  0.00    -0.000 C 
ATOM     14  C   UNL     1      31.863 -24.581 -13.959  0.00  0.00    -0.000 C 
ATOM     15  H   UNL     1      38.046 -25.757 -15.868  0.00  0.00    -0.079 HD
ENDROOT
BRANCH   2  16
ATOM     16  C   UNL     1      35.348 -22.395 -17.053  0.00  0.00    -0.015 C 
ATOM     17  C   UNL     1      36.452 -21.762 -17.626  0.00  0.00    -0.004 C 
ATOM     18  C   UNL     1      34.264 -22.764 -17.851  0.00  0.00    -0.004 C 
ATOM     19  C   UNL     1      36.471 -21.497 -18.996  0.00  0.00    -0.000 C 
ATOM     20  C   UNL     1      34.284 -22.498 -19.221  0.00  0.00    -0.000 C 
ATOM     21  C   UNL     1      35.387 -21.865 -19.793  0.00  0.00    -0.000 C 
ENDBRANCH   2  16
TORSDOF 1
ENDMDL
MODEL 7
REMARK VINA RESULT:      -8.5      1.500      4.657
REMARK  Name = 11291
REMARK  1 active torsions:
REMARK  status: ('A' for Active; 'I' for Inactive)
REMARK    1  A    between atoms: C_2  and  C_16
REMARK                            x       y       z     vdW  Elec       q    Type
REMARK                         _______ _______ _______ _____ _____    ______ ____
ROOT
ATOM      1  N   UNL     1      30.350 -22.794 -15.904  0.00  0.00    +0.388 N 
ATOM      2  C   UNL     1      34.035 -23.598 -16.949  0.00  0.00    +0.060 C 
ATOM      3  C   UNL     1      32.737 -23.366 -16.197  0.00  0.00    -0.062 C 
ATOM      4  C   UNL     1      32.919 -23.235 -14.872  0.00  0.00    -0.034 C 
ATOM      5  C   UNL     1      31.378 -23.334 -16.821  0.00  0.00    -0.054 C 
ATOM      6  C   UNL     1      35.019 -23.574 -15.800  0.00  0.00    -0.015 C 
ATOM      7  C   UNL     1      31.809 -23.062 -13.902  0.00  0.00    +0.003 C 
ATOM      8  C   UNL     1      34.338 -23.356 -14.589  0.00  0.00    -0.008 C 
ATOM      9  C   UNL     1      30.452 -23.388 -14.559  0.00  0.00    -0.072 C 
ATOM     10  C   UNL     1      36.394 -23.748 -15.829  0.00  0.00    -0.004 C 
ATOM     11  C   UNL     1      35.023 -23.297 -13.387  0.00  0.00    -0.001 C 
ATOM     12  C   UNL     1      29.013 -22.987 -16.462  0.00  0.00    -0.100 C 
ATOM     13  C   UNL     1      37.089 -23.688 -14.620  0.00  0.00    -0.000 C 
ATOM     14  C   UNL     1      36.411 -23.463 -13.410  0.00  0.00    -0.000 C 
ATOM     15  H   UNL     1      30.518 -21.792 -15.805  0.00  0.00    -0.079 HD
ENDROOT
BRANCH   2  16
ATOM     16  C   UNL     1      34.317 -22.574 -18.027  0.00  0.00    -0.015 C 
ATOM     17  C   UNL     1      33.270 -22.063 -18.796  0.00  0.00    -0.004 C 
ATOM     18  C   UNL     1      35.624 -22.141 -18.254  0.00  0.00    -0.004 C 
ATOM     19  C   UNL     1      33.531 -21.121 -19.792  0.00  0.00    -0.000 C 
ATOM     20  C   UNL     1      35.883 -21.198 -19.249  0.00  0.00    -0.000 C 
ATOM     21  C   UNL     1      34.837 -20.688 -20.017  0.00  0.00    -0.000 C 
ENDBRANCH   2  16
TORSDOF 1
ENDMDL
MODEL 8
REMARK VINA RESULT:      -8.5     13.844     16.870
REMARK  Name = 11291
REMARK  1 active torsions:
REMARK  status: ('A' for Active; 'I' for Inactive)
REMARK    1  A    between atoms: C_2  and  C_16
REMARK                            x       y       z     vdW  Elec       q    Type
REMARK                         _______ _______ _______ _____ _____    ______ ____
ROOT
ATOM      1  N   UNL     1      33.416 -11.981 -25.456  0.00  0.00    +0.388 N 
ATOM      2  C   UNL     1      33.255  -9.166 -22.742  0.00  0.00    +0.060 C 
ATOM      3  C   UNL     1      33.213 -10.477 -23.504  0.00  0.00    -0.062 C 
ATOM      4  C   UNL     1      32.542 -11.439 -22.848  0.00  0.00    -0.034 C 
ATOM      5  C   UNL     1      33.879 -10.727 -24.820  0.00  0.00    -0.054 C 
ATOM      6  C   UNL     1      32.472  -9.548 -21.505  0.00  0.00    -0.015 C 
ATOM      7  C   UNL     1      32.405 -12.832 -23.344  0.00  0.00    +0.003 C 
ATOM      8  C   UNL     1      32.061 -10.890 -21.593  0.00  0.00    -0.008 C 
ATOM      9  C   UNL     1      33.391 -13.100 -24.499  0.00  0.00    -0.072 C 
ATOM     10  C   UNL     1      32.168  -8.775 -20.396  0.00  0.00    -0.004 C 
ATOM     11  C   UNL     1      31.328 -11.478 -20.576  0.00  0.00    -0.001 C 
ATOM     12  C   UNL     1      34.244 -12.302 -26.618  0.00  0.00    -0.100 C 
ATOM     13  C   UNL     1      31.428  -9.363 -19.368  0.00  0.00    -0.000 C 
ATOM     14  C   UNL     1      31.011 -10.702 -19.458  0.00  0.00    -0.000 C 
ATOM     15  H   UNL     1      32.457 -11.833 -25.774  0.00  0.00    -0.079 HD
ENDROOT
BRANCH   2  16
ATOM     16  C   UNL     1      32.680  -7.990 -23.501  0.00  0.00    -0.015 C 
ATOM     17  C   UNL     1      33.529  -7.008 -24.016  0.00  0.00    -0.004 C 
ATOM     18  C   UNL     1      31.301  -7.885 -23.687  0.00  0.00    -0.004 C 
ATOM     19  C   UNL     1      32.998  -5.923 -24.715  0.00  0.00    -0.000 C 
ATOM     20  C   UNL     1      30.772  -6.800 -24.387  0.00  0.00    -0.000 C 
ATOM     21  C   UNL     1      31.620  -5.820 -24.900  0.00  0.00    -0.000 C 
ENDBRANCH   2  16
TORSDOF 1
ENDMDL
MODEL 9
REMARK VINA RESULT:      -8.1     10.594     13.714
REMARK  Name = 11291
REMARK  1 active torsions:
REMARK  status: ('A' for Active; 'I' for Inactive)
REMARK    1  A    between atoms: C_2  and  C_16
REMARK                            x       y       z     vdW  Elec       q    Type
REMARK                         _______ _______ _______ _____ _____    ______ ____
ROOT
ATOM      1  N   UNL     1      32.150 -12.088 -20.862  0.00  0.00    +0.388 N 
ATOM      2  C   UNL     1      32.963 -13.516 -24.414  0.00  0.00    +0.060 C 
ATOM      3  C   UNL     1      32.699 -13.323 -22.933  0.00  0.00    -0.062 C 
ATOM      4  C   UNL     1      33.131 -14.355 -22.188  0.00  0.00    -0.034 C 
ATOM      5  C   UNL     1      31.992 -12.150 -22.333  0.00  0.00    -0.054 C 
ATOM      6  C   UNL     1      33.639 -14.870 -24.394  0.00  0.00    -0.015 C 
ATOM      7  C   UNL     1      32.942 -14.446 -20.718  0.00  0.00    +0.003 C 
ATOM      8  C   UNL     1      33.729 -15.341 -23.072  0.00  0.00    -0.008 C 
ATOM      9  C   UNL     1      31.918 -13.400 -20.233  0.00  0.00    -0.072 C 
ATOM     10  C   UNL     1      34.115 -15.620 -25.457  0.00  0.00    -0.004 C 
ATOM     11  C   UNL     1      34.307 -16.567 -22.791  0.00  0.00    -0.001 C 
ATOM     12  C   UNL     1      31.269 -11.070 -20.294  0.00  0.00    -0.100 C 
ATOM     13  C   UNL     1      34.701 -16.856 -25.178  0.00  0.00    -0.000 C 
ATOM     14  C   UNL     1      34.797 -17.325 -23.857  0.00  0.00    -0.000 C 
ATOM     15  H   UNL     1      33.117 -11.825 -20.665  0.00  0.00    -0.079 HD
ENDROOT
BRANCH   2  16
ATOM     16  C   UNL     1      33.792 -12.419 -25.044  0.00  0.00    -0.015 C 
ATOM     17  C   UNL     1      34.085 -12.460 -26.408  0.00  0.00    -0.004 C 
ATOM     18  C   UNL     1      34.264 -11.364 -24.262  0.00  0.00    -0.004 C 
ATOM     19  C   UNL     1      34.851 -11.448 -26.988  0.00  0.00    -0.000 C 
ATOM     20  C   UNL     1      35.029 -10.352 -24.843  0.00  0.00    -0.000 C 
ATOM     21  C   UNL     1      35.322 -10.394 -26.206  0.00  0.00    -0.000 C 
ENDBRANCH   2  16
TORSDOF 1
ENDMDL
