MODEL 1
REMARK VINA RESULT:      -5.4      0.000      0.000
REMARK  Name = 446637
REMARK  1 active torsions:
REMARK  status: ('A' for Active; 'I' for Inactive)
REMARK    1  A    between atoms: C_4  and  O_10
REMARK                            x       y       z     vdW  Elec       q    Type
REMARK                         _______ _______ _______ _____ _____    ______ ____
ROOT
ATOM      1  O   UNL     1      36.696 -27.245 -16.074  0.00  0.00    -0.252 OA
ATOM      2  N   UNL     1      36.437 -26.397 -13.958  0.00  0.00    -0.263 N 
ATOM      3  N   UNL     1      38.307 -25.828 -15.258  0.00  0.00    -0.267 N 
ATOM      4  C   UNL     1      36.877 -25.595 -12.824  0.00  0.00    +0.214 C 
ATOM      5  C   UNL     1      38.165 -24.894 -13.100  0.00  0.00    +0.040 C 
ATOM      6  C   UNL     1      37.120 -26.538 -15.158  0.00  0.00    +0.306 C 
ATOM      7  C   UNL     1      38.804 -25.032 -14.264  0.00  0.00    +0.065 C 
ATOM      8  H   UNL     1      35.584 -26.880 -13.865  0.00  0.00    +0.153 HD
ATOM      9  H   UNL     1      38.821 -25.901 -16.094  0.00  0.00    +0.156 HD
ENDROOT
BRANCH   4  10
ATOM     10  O   UNL     1      37.028 -26.447 -11.699  0.00  0.00    -0.364 OA
ATOM     11  H   UNL     1      37.614 -27.186 -11.930  0.00  0.00    +0.213 HD
ENDBRANCH   4  10
TORSDOF 1
ENDMDL
MODEL 2
REMARK VINA RESULT:      -5.4      1.572      2.229
REMARK  Name = 446637
REMARK  1 active torsions:
REMARK  status: ('A' for Active; 'I' for Inactive)
REMARK    1  A    between atoms: C_4  and  O_10
REMARK                            x       y       z     vdW  Elec       q    Type
REMARK                         _______ _______ _______ _____ _____    ______ ____
ROOT
ATOM      1  O   UNL     1      36.687 -27.303 -16.118  0.00  0.00    -0.252 OA
ATOM      2  N   UNL     1      37.883 -25.505 -15.340  0.00  0.00    -0.263 N 
ATOM      3  N   UNL     1      36.824 -26.978 -13.850  0.00  0.00    -0.267 N 
ATOM      4  C   UNL     1      38.398 -24.661 -14.271  0.00  0.00    +0.214 C 
ATOM      5  C   UNL     1      38.014 -25.169 -12.922  0.00  0.00    +0.040 C 
ATOM      6  C   UNL     1      37.102 -26.639 -15.166  0.00  0.00    +0.306 C 
ATOM      7  C   UNL     1      37.271 -26.268 -12.771  0.00  0.00    +0.065 C 
ATOM      8  H   UNL     1      38.107 -25.249 -16.265  0.00  0.00    +0.153 HD
ATOM      9  H   UNL     1      36.273 -27.776 -13.683  0.00  0.00    +0.156 HD
ENDROOT
BRANCH   4  10
ATOM     10  O   UNL     1      37.893 -23.347 -14.448  0.00  0.00    -0.364 OA
ATOM     11  H   UNL     1      37.631 -22.982 -13.588  0.00  0.00    +0.213 HD
ENDBRANCH   4  10
TORSDOF 1
ENDMDL
MODEL 3
REMARK VINA RESULT:      -5.3      2.499      3.065
REMARK  Name = 446637
REMARK  1 active torsions:
REMARK  status: ('A' for Active; 'I' for Inactive)
REMARK    1  A    between atoms: C_4  and  O_10
REMARK                            x       y       z     vdW  Elec       q    Type
REMARK                         _______ _______ _______ _____ _____    ______ ____
ROOT
ATOM      1  O   UNL     1      40.906 -26.124 -15.263  0.00  0.00    -0.252 OA
ATOM      2  N   UNL     1      39.089 -24.729 -15.395  0.00  0.00    -0.263 N 
ATOM      3  N   UNL     1      39.466 -26.030 -13.478  0.00  0.00    -0.267 N 
ATOM      4  C   UNL     1      37.866 -24.146 -14.861  0.00  0.00    +0.214 C 
ATOM      5  C   UNL     1      37.560 -24.645 -13.488  0.00  0.00    +0.040 C 
ATOM      6  C   UNL     1      39.887 -25.660 -14.747  0.00  0.00    +0.306 C 
ATOM      7  C   UNL     1      38.345 -25.533 -12.874  0.00  0.00    +0.065 C 
ATOM      8  H   UNL     1      39.372 -24.439 -16.293  0.00  0.00    +0.153 HD
ATOM      9  H   UNL     1      40.005 -26.689 -12.984  0.00  0.00    +0.156 HD
ENDROOT
BRANCH   4  10
ATOM     10  O   UNL     1      36.793 -24.464 -15.734  0.00  0.00    -0.364 OA
ATOM     11  H   UNL     1      36.365 -23.646 -16.033  0.00  0.00    +0.213 HD
ENDBRANCH   4  10
TORSDOF 1
ENDMDL
MODEL 4
REMARK VINA RESULT:      -5.2      7.708      8.314
REMARK  Name = 446637
REMARK  1 active torsions:
REMARK  status: ('A' for Active; 'I' for Inactive)
REMARK    1  A    between atoms: C_4  and  O_10
REMARK                            x       y       z     vdW  Elec       q    Type
REMARK                         _______ _______ _______ _____ _____    ______ ____
ROOT
ATOM      1  O   UNL     1      32.252 -19.953 -20.764  0.00  0.00    -0.252 OA
ATOM      2  N   UNL     1      32.996 -21.724 -19.510  0.00  0.00    -0.263 N 
ATOM      3  N   UNL     1      34.513 -20.201 -20.455  0.00  0.00    -0.267 N 
ATOM      4  C   UNL     1      34.050 -22.532 -18.914  0.00  0.00    +0.214 C 
ATOM      5  C   UNL     1      35.407 -21.979 -19.194  0.00  0.00    +0.040 C 
ATOM      6  C   UNL     1      33.191 -20.584 -20.278  0.00  0.00    +0.306 C 
ATOM      7  C   UNL     1      35.578 -20.875 -19.926  0.00  0.00    +0.065 C 
ATOM      8  H   UNL     1      32.066 -22.011 -19.357  0.00  0.00    +0.153 HD
ATOM      9  H   UNL     1      34.693 -19.397 -20.993  0.00  0.00    +0.156 HD
ENDROOT
BRANCH   4  10
ATOM     10  O   UNL     1      33.957 -23.851 -19.429  0.00  0.00    -0.364 OA
ATOM     11  H   UNL     1      33.498 -24.417 -18.788  0.00  0.00    +0.213 HD
ENDBRANCH   4  10
TORSDOF 1
ENDMDL
MODEL 5
REMARK VINA RESULT:      -5.1      2.261      2.440
REMARK  Name = 446637
REMARK  1 active torsions:
REMARK  status: ('A' for Active; 'I' for Inactive)
REMARK    1  A    between atoms: C_4  and  O_10
REMARK                            x       y       z     vdW  Elec       q    Type
REMARK                         _______ _______ _______ _____ _____    ______ ____
ROOT
ATOM      1  O   UNL     1      40.944 -25.586 -14.848  0.00  0.00    -0.252 OA
ATOM      2  N   UNL     1      39.192 -26.065 -13.446  0.00  0.00    -0.263 N 
ATOM      3  N   UNL     1      38.902 -24.632 -15.283  0.00  0.00    -0.267 N 
ATOM      4  C   UNL     1      37.808 -25.927 -13.014  0.00  0.00    +0.214 C 
ATOM      5  C   UNL     1      37.025 -25.035 -13.918  0.00  0.00    +0.040 C 
ATOM      6  C   UNL     1      39.759 -25.436 -14.546  0.00  0.00    +0.306 C 
ATOM      7  C   UNL     1      37.583 -24.446 -14.979  0.00  0.00    +0.065 C 
ATOM      8  H   UNL     1      39.775 -26.652 -12.912  0.00  0.00    +0.153 HD
ATOM      9  H   UNL     1      39.266 -24.168 -16.071  0.00  0.00    +0.156 HD
ENDROOT
BRANCH   4  10
ATOM     10  O   UNL     1      37.795 -25.401 -11.696  0.00  0.00    -0.364 OA
ATOM     11  H   UNL     1      38.445 -25.874 -11.152  0.00  0.00    +0.213 HD
ENDBRANCH   4  10
TORSDOF 1
ENDMDL
MODEL 6
REMARK VINA RESULT:      -5.0      8.095      8.554
REMARK  Name = 446637
REMARK  1 active torsions:
REMARK  status: ('A' for Active; 'I' for Inactive)
REMARK    1  A    between atoms: C_4  and  O_10
REMARK                            x       y       z     vdW  Elec       q    Type
REMARK                         _______ _______ _______ _____ _____    ______ ____
ROOT
ATOM      1  O   UNL     1      27.604 -23.601 -17.578  0.00  0.00    -0.252 OA
ATOM      2  N   UNL     1      28.551 -24.472 -15.678  0.00  0.00    -0.263 N 
ATOM      3  N   UNL     1      29.674 -22.842 -16.940  0.00  0.00    -0.267 N 
ATOM      4  C   UNL     1      29.630 -24.582 -14.706  0.00  0.00    +0.214 C 
ATOM      5  C   UNL     1      30.759 -23.657 -15.014  0.00  0.00    +0.040 C 
ATOM      6  C   UNL     1      28.548 -23.636 -16.786  0.00  0.00    +0.306 C 
ATOM      7  C   UNL     1      30.736 -22.852 -16.079  0.00  0.00    +0.065 C 
ATOM      8  H   UNL     1      27.757 -25.037 -15.537  0.00  0.00    +0.153 HD
ATOM      9  H   UNL     1      29.711 -22.235 -17.714  0.00  0.00    +0.156 HD
ENDROOT
BRANCH   4  10
ATOM     10  O   UNL     1      30.099 -25.921 -14.700  0.00  0.00    -0.364 OA
ATOM     11  H   UNL     1      29.417 -26.505 -15.069  0.00  0.00    +0.213 HD
ENDBRANCH   4  10
TORSDOF 1
ENDMDL
MODEL 7
REMARK VINA RESULT:      -4.9     12.643     13.272
REMARK  Name = 446637
REMARK  1 active torsions:
REMARK  status: ('A' for Active; 'I' for Inactive)
REMARK    1  A    between atoms: C_4  and  O_10
REMARK                            x       y       z     vdW  Elec       q    Type
REMARK                         _______ _______ _______ _____ _____    ______ ____
ROOT
ATOM      1  O   UNL     1      34.522 -16.399 -25.946  0.00  0.00    -0.252 OA
ATOM      2  N   UNL     1      35.315 -16.562 -23.799  0.00  0.00    -0.263 N 
ATOM      3  N   UNL     1      34.472 -18.449 -24.914  0.00  0.00    -0.267 N 
ATOM      4  C   UNL     1      35.604 -17.307 -22.582  0.00  0.00    +0.214 C 
ATOM      5  C   UNL     1      35.250 -18.750 -22.711  0.00  0.00    +0.040 C 
ATOM      6  C   UNL     1      34.752 -17.091 -24.953  0.00  0.00    +0.306 C 
ATOM      7  C   UNL     1      34.719 -19.246 -23.831  0.00  0.00    +0.065 C 
ATOM      8  H   UNL     1      35.536 -15.602 -23.805  0.00  0.00    +0.153 HD
ATOM      9  H   UNL     1      34.073 -18.862 -25.712  0.00  0.00    +0.156 HD
ENDROOT
BRANCH   4  10
ATOM     10  O   UNL     1      34.871 -16.729 -21.513  0.00  0.00    -0.364 OA
ATOM     11  H   UNL     1      35.406 -16.754 -20.703  0.00  0.00    +0.213 HD
ENDBRANCH   4  10
TORSDOF 1
ENDMDL
MODEL 8
REMARK VINA RESULT:      -4.9      2.126      2.493
REMARK  Name = 446637
REMARK  1 active torsions:
REMARK  status: ('A' for Active; 'I' for Inactive)
REMARK    1  A    between atoms: C_4  and  O_10
REMARK                            x       y       z     vdW  Elec       q    Type
REMARK                         _______ _______ _______ _____ _____    ______ ____
ROOT
ATOM      1  O   UNL     1      38.113 -26.557 -13.709  0.00  0.00    -0.252 OA
ATOM      2  N   UNL     1      36.344 -25.613 -12.594  0.00  0.00    -0.263 N 
ATOM      3  N   UNL     1      38.439 -24.554 -12.636  0.00  0.00    -0.267 N 
ATOM      4  C   UNL     1      35.742 -24.572 -11.772  0.00  0.00    +0.214 C 
ATOM      5  C   UNL     1      36.709 -23.482 -11.451  0.00  0.00    +0.040 C 
ATOM      6  C   UNL     1      37.663 -25.637 -13.024  0.00  0.00    +0.306 C 
ATOM      7  C   UNL     1      37.972 -23.515 -11.882  0.00  0.00    +0.065 C 
ATOM      8  H   UNL     1      35.767 -26.363 -12.866  0.00  0.00    +0.153 HD
ATOM      9  H   UNL     1      39.381 -24.534 -12.922  0.00  0.00    +0.156 HD
ENDROOT
BRANCH   4  10
ATOM     10  O   UNL     1      35.269 -25.160 -10.570  0.00  0.00    -0.364 OA
ATOM     11  H   UNL     1      35.493 -26.104 -10.563  0.00  0.00    +0.213 HD
ENDBRANCH   4  10
TORSDOF 1
ENDMDL
MODEL 9
REMARK VINA RESULT:      -4.9     11.842     12.603
REMARK  Name = 446637
REMARK  1 active torsions:
REMARK  status: ('A' for Active; 'I' for Inactive)
REMARK    1  A    between atoms: C_4  and  O_10
REMARK                            x       y       z     vdW  Elec       q    Type
REMARK                         _______ _______ _______ _____ _____    ______ ____
ROOT
ATOM      1  O   UNL     1      34.844 -15.654 -20.178  0.00  0.00    -0.252 OA
ATOM      2  N   UNL     1      34.566 -16.308 -22.359  0.00  0.00    -0.263 N 
ATOM      3  N   UNL     1      35.479 -17.778 -20.773  0.00  0.00    -0.267 N 
ATOM      4  C   UNL     1      34.680 -17.274 -23.443  0.00  0.00    +0.214 C 
ATOM      5  C   UNL     1      35.252 -18.571 -22.980  0.00  0.00    +0.040 C 
ATOM      6  C   UNL     1      34.957 -16.522 -21.045  0.00  0.00    +0.306 C 
ATOM      7  C   UNL     1      35.614 -18.765 -21.709  0.00  0.00    +0.065 C 
ATOM      8  H   UNL     1      34.180 -15.428 -22.577  0.00  0.00    +0.153 HD
ATOM      9  H   UNL     1      35.768 -17.970 -19.852  0.00  0.00    +0.156 HD
ENDROOT
BRANCH   4  10
ATOM     10  O   UNL     1      35.506 -16.722 -24.456  0.00  0.00    -0.364 OA
ATOM     11  H   UNL     1      36.334 -16.405 -24.061  0.00  0.00    +0.213 HD
ENDBRANCH   4  10
TORSDOF 1
ENDMDL
