MODEL 1
REMARK VINA RESULT:      -5.9      0.000      0.000
REMARK  Name = 3037556
REMARK  10 active torsions:
REMARK  status: ('A' for Active; 'I' for Inactive)
REMARK    1  A    between atoms: C_1  and  O_2
REMARK    2  A    between atoms: C_1  and  C_4
REMARK    3  A    between atoms: C_1  and  C_12
REMARK    4  A    between atoms: C_4  and  O_5
REMARK    5  A    between atoms: C_4  and  C_7
REMARK    6  A    between atoms: C_7  and  O_8
REMARK    7  A    between atoms: C_7  and  C_11
REMARK    8  A    between atoms: C_12  and  O_13
REMARK    9  A    between atoms: C_12  and  C_15
REMARK   10  A    between atoms: C_15  and  O_16
REMARK                            x       y       z     vdW  Elec       q    Type
REMARK                         _______ _______ _______ _____ _____    ______ ____
ROOT
ATOM      1  C   UNL     1      37.979 -25.984 -14.251  0.00  0.00    +0.169 C 
ENDROOT
BRANCH   1   2
ATOM      2  O   UNL     1      38.905 -27.013 -14.614  0.00  0.00    -0.379 OA
ATOM      3  H   UNL     1      39.699 -26.612 -15.003  0.00  0.00    +0.211 HD
ENDBRANCH   1   2
BRANCH   1   4
ATOM      4  C   UNL     1      37.997 -25.785 -12.725  0.00  0.00    +0.174 C 
BRANCH   4   5
ATOM      5  O   UNL     1      36.884 -26.510 -12.190  0.00  0.00    -0.379 OA
ATOM      6  H   UNL     1      36.097 -25.943 -12.192  0.00  0.00    +0.211 HD
ENDBRANCH   4   5
BRANCH   4   7
ATOM      7  C   UNL     1      37.968 -24.340 -12.211  0.00  0.00    +0.205 C 
BRANCH   7   8
ATOM      8  O   UNL     1      38.120 -23.473 -13.331  0.00  0.00    -0.375 OA
ATOM      9  H   UNL     1      37.611 -23.820 -14.080  0.00  0.00    +0.211 HD
ENDBRANCH   7   8
BRANCH   7  11
ATOM     10  O   UNL     1      36.461 -24.149 -10.317  0.00  0.00    -0.286 OA
ATOM     11  C   UNL     1      36.679 -23.964 -11.511  0.00  0.00    +0.239 C 
ENDBRANCH   7  11
ENDBRANCH   4   7
ENDBRANCH   1   4
BRANCH   1  12
ATOM     12  C   UNL     1      36.619 -26.360 -14.856  0.00  0.00    +0.169 C 
BRANCH  12  13
ATOM     13  O   UNL     1      36.864 -27.100 -16.062  0.00  0.00    -0.379 OA
ATOM     14  H   UNL     1      36.346 -26.716 -16.787  0.00  0.00    +0.211 HD
ENDBRANCH  12  13
BRANCH  12  15
ATOM     15  C   UNL     1      35.754 -25.164 -15.235  0.00  0.00    +0.169 C 
BRANCH  15  16
ATOM     16  O   UNL     1      36.586 -24.151 -15.791  0.00  0.00    -0.379 OA
ATOM     17  H   UNL     1      36.070 -23.611 -16.410  0.00  0.00    +0.211 HD
ENDBRANCH  15  16
ENDBRANCH  12  15
ENDBRANCH   1  12
TORSDOF 10
ENDMDL
MODEL 2
REMARK VINA RESULT:      -5.9      1.648      2.908
REMARK  Name = 3037556
REMARK  10 active torsions:
REMARK  status: ('A' for Active; 'I' for Inactive)
REMARK    1  A    between atoms: C_1  and  O_2
REMARK    2  A    between atoms: C_1  and  C_4
REMARK    3  A    between atoms: C_1  and  C_12
REMARK    4  A    between atoms: C_4  and  O_5
REMARK    5  A    between atoms: C_4  and  C_7
REMARK    6  A    between atoms: C_7  and  O_8
REMARK    7  A    between atoms: C_7  and  C_11
REMARK    8  A    between atoms: C_12  and  O_13
REMARK    9  A    between atoms: C_12  and  C_15
REMARK   10  A    between atoms: C_15  and  O_16
REMARK                            x       y       z     vdW  Elec       q    Type
REMARK                         _______ _______ _______ _____ _____    ______ ____
ROOT
ATOM      1  C   UNL     1      37.795 -25.729 -14.343  0.00  0.00    +0.169 C 
ENDROOT
BRANCH   1   2
ATOM      2  O   UNL     1      37.495 -26.216 -15.655  0.00  0.00    -0.379 OA
ATOM      3  H   UNL     1      38.181 -25.919 -16.275  0.00  0.00    +0.211 HD
ENDBRANCH   1   2
BRANCH   1   4
ATOM      4  C   UNL     1      36.590 -24.946 -13.793  0.00  0.00    +0.174 C 
BRANCH   4   5
ATOM      5  O   UNL     1      36.777 -23.572 -14.150  0.00  0.00    -0.379 OA
ATOM      6  H   UNL     1      36.892 -23.042 -13.346  0.00  0.00    +0.211 HD
ENDBRANCH   4   5
BRANCH   4   7
ATOM      7  C   UNL     1      36.316 -25.056 -12.287  0.00  0.00    +0.205 C 
BRANCH   7   8
ATOM      8  O   UNL     1      37.040 -26.178 -11.792  0.00  0.00    -0.375 OA
ATOM      9  H   UNL     1      37.988 -25.975 -11.787  0.00  0.00    +0.211 HD
ENDBRANCH   7   8
BRANCH   7  11
ATOM     10  O   UNL     1      37.916 -23.463 -11.393  0.00  0.00    -0.286 OA
ATOM     11  C   UNL     1      36.753 -23.842 -11.494  0.00  0.00    +0.239 C 
ENDBRANCH   7  11
ENDBRANCH   4   7
ENDBRANCH   1   4
BRANCH   1  12
ATOM     12  C   UNL     1      39.110 -24.942 -14.439  0.00  0.00    +0.169 C 
BRANCH  12  13
ATOM     13  O   UNL     1      39.019 -24.070 -15.575  0.00  0.00    -0.379 OA
ATOM     14  H   UNL     1      38.095 -24.014 -15.866  0.00  0.00    +0.211 HD
ENDBRANCH  12  13
BRANCH  12  15
ATOM     15  C   UNL     1      40.344 -25.814 -14.644  0.00  0.00    +0.169 C 
BRANCH  15  16
ATOM     16  O   UNL     1      40.538 -26.016 -16.041  0.00  0.00    -0.379 OA
ATOM     17  H   UNL     1      40.473 -26.963 -16.243  0.00  0.00    +0.211 HD
ENDBRANCH  15  16
ENDBRANCH  12  15
ENDBRANCH   1  12
TORSDOF 10
ENDMDL
MODEL 3
REMARK VINA RESULT:      -5.7      1.692      2.919
REMARK  Name = 3037556
REMARK  10 active torsions:
REMARK  status: ('A' for Active; 'I' for Inactive)
REMARK    1  A    between atoms: C_1  and  O_2
REMARK    2  A    between atoms: C_1  and  C_4
REMARK    3  A    between atoms: C_1  and  C_12
REMARK    4  A    between atoms: C_4  and  O_5
REMARK    5  A    between atoms: C_4  and  C_7
REMARK    6  A    between atoms: C_7  and  O_8
REMARK    7  A    between atoms: C_7  and  C_11
REMARK    8  A    between atoms: C_12  and  O_13
REMARK    9  A    between atoms: C_12  and  C_15
REMARK   10  A    between atoms: C_15  and  O_16
REMARK                            x       y       z     vdW  Elec       q    Type
REMARK                         _______ _______ _______ _____ _____    ______ ____
ROOT
ATOM      1  C   UNL     1      37.593 -25.886 -14.576  0.00  0.00    +0.169 C 
ENDROOT
BRANCH   1   2
ATOM      2  O   UNL     1      37.618 -26.555 -15.842  0.00  0.00    -0.379 OA
ATOM      3  H   UNL     1      36.709 -26.741 -16.128  0.00  0.00    +0.211 HD
ENDBRANCH   1   2
BRANCH   1   4
ATOM      4  C   UNL     1      36.253 -25.149 -14.408  0.00  0.00    +0.174 C 
BRANCH   4   5
ATOM      5  O   UNL     1      35.912 -24.590 -15.681  0.00  0.00    -0.379 OA
ATOM      6  H   UNL     1      36.060 -25.252 -16.375  0.00  0.00    +0.211 HD
ENDBRANCH   4   5
BRANCH   4   7
ATOM      7  C   UNL     1      36.191 -24.057 -13.331  0.00  0.00    +0.205 C 
BRANCH   7   8
ATOM      8  O   UNL     1      35.359 -23.008 -13.817  0.00  0.00    -0.375 OA
ATOM      9  H   UNL     1      35.888 -22.204 -13.933  0.00  0.00    +0.211 HD
ENDBRANCH   7   8
BRANCH   7  11
ATOM     10  O   UNL     1      36.068 -25.455 -11.349  0.00  0.00    -0.286 OA
ATOM     11  C   UNL     1      35.612 -24.529 -12.013  0.00  0.00    +0.239 C 
ENDBRANCH   7  11
ENDBRANCH   4   7
ENDBRANCH   1   4
BRANCH   1  12
ATOM     12  C   UNL     1      38.850 -25.007 -14.500  0.00  0.00    +0.169 C 
BRANCH  12  13
ATOM     13  O   UNL     1      38.791 -24.061 -15.579  0.00  0.00    -0.379 OA
ATOM     14  H   UNL     1      39.042 -23.183 -15.252  0.00  0.00    +0.211 HD
ENDBRANCH  12  13
BRANCH  12  15
ATOM     15  C   UNL     1      40.157 -25.776 -14.652  0.00  0.00    +0.169 C 
BRANCH  15  16
ATOM     16  O   UNL     1      40.431 -25.949 -16.039  0.00  0.00    -0.379 OA
ATOM     17  H   UNL     1      40.830 -25.140 -16.394  0.00  0.00    +0.211 HD
ENDBRANCH  15  16
ENDBRANCH  12  15
ENDBRANCH   1  12
TORSDOF 10
ENDMDL
MODEL 4
REMARK VINA RESULT:      -5.7      1.567      2.534
REMARK  Name = 3037556
REMARK  10 active torsions:
REMARK  status: ('A' for Active; 'I' for Inactive)
REMARK    1  A    between atoms: C_1  and  O_2
REMARK    2  A    between atoms: C_1  and  C_4
REMARK    3  A    between atoms: C_1  and  C_12
REMARK    4  A    between atoms: C_4  and  O_5
REMARK    5  A    between atoms: C_4  and  C_7
REMARK    6  A    between atoms: C_7  and  O_8
REMARK    7  A    between atoms: C_7  and  C_11
REMARK    8  A    between atoms: C_12  and  O_13
REMARK    9  A    between atoms: C_12  and  C_15
REMARK   10  A    between atoms: C_15  and  O_16
REMARK                            x       y       z     vdW  Elec       q    Type
REMARK                         _______ _______ _______ _____ _____    ______ ____
ROOT
ATOM      1  C   UNL     1      37.859 -24.912 -13.893  0.00  0.00    +0.169 C 
ENDROOT
BRANCH   1   2
ATOM      2  O   UNL     1      38.212 -23.564 -14.222  0.00  0.00    -0.379 OA
ATOM      3  H   UNL     1      37.416 -23.078 -14.489  0.00  0.00    +0.211 HD
ENDBRANCH   1   2
BRANCH   1   4
ATOM      4  C   UNL     1      37.873 -25.093 -12.366  0.00  0.00    +0.174 C 
BRANCH   4   5
ATOM      5  O   UNL     1      37.214 -26.332 -12.078  0.00  0.00    -0.379 OA
ATOM      6  H   UNL     1      36.264 -26.174 -11.961  0.00  0.00    +0.211 HD
ENDBRANCH   4   5
BRANCH   4   7
ATOM      7  C   UNL     1      37.250 -23.970 -11.526  0.00  0.00    +0.205 C 
BRANCH   7   8
ATOM      8  O   UNL     1      38.094 -22.827 -11.629  0.00  0.00    -0.375 OA
ATOM      9  H   UNL     1      38.608 -22.877 -12.450  0.00  0.00    +0.211 HD
ENDBRANCH   7   8
BRANCH   7  11
ATOM     10  O   UNL     1      34.884 -24.299 -11.962  0.00  0.00    -0.286 OA
ATOM     11  C   UNL     1      35.865 -23.560 -11.981  0.00  0.00    +0.239 C 
ENDBRANCH   7  11
ENDBRANCH   4   7
ENDBRANCH   1   4
BRANCH   1  12
ATOM     12  C   UNL     1      38.801 -25.835 -14.681  0.00  0.00    +0.169 C 
BRANCH  12  13
ATOM     13  O   UNL     1      38.274 -27.168 -14.608  0.00  0.00    -0.379 OA
ATOM     14  H   UNL     1      38.282 -27.469 -13.685  0.00  0.00    +0.211 HD
ENDBRANCH  12  13
BRANCH  12  15
ATOM     15  C   UNL     1      40.222 -25.887 -14.132  0.00  0.00    +0.169 C 
BRANCH  15  16
ATOM     16  O   UNL     1      40.967 -24.801 -14.676  0.00  0.00    -0.379 OA
ATOM     17  H   UNL     1      40.904 -24.818 -15.644  0.00  0.00    +0.211 HD
ENDBRANCH  15  16
ENDBRANCH  12  15
ENDBRANCH   1  12
TORSDOF 10
ENDMDL
MODEL 5
REMARK VINA RESULT:      -5.7      1.720      4.046
REMARK  Name = 3037556
REMARK  10 active torsions:
REMARK  status: ('A' for Active; 'I' for Inactive)
REMARK    1  A    between atoms: C_1  and  O_2
REMARK    2  A    between atoms: C_1  and  C_4
REMARK    3  A    between atoms: C_1  and  C_12
REMARK    4  A    between atoms: C_4  and  O_5
REMARK    5  A    between atoms: C_4  and  C_7
REMARK    6  A    between atoms: C_7  and  O_8
REMARK    7  A    between atoms: C_7  and  C_11
REMARK    8  A    between atoms: C_12  and  O_13
REMARK    9  A    between atoms: C_12  and  C_15
REMARK   10  A    between atoms: C_15  and  O_16
REMARK                            x       y       z     vdW  Elec       q    Type
REMARK                         _______ _______ _______ _____ _____    ______ ____
ROOT
ATOM      1  C   UNL     1      36.692 -24.623 -13.541  0.00  0.00    +0.169 C 
ENDROOT
BRANCH   1   2
ATOM      2  O   UNL     1      35.828 -25.606 -14.123  0.00  0.00    -0.379 OA
ATOM      3  H   UNL     1      35.284 -25.191 -14.811  0.00  0.00    +0.211 HD
ENDBRANCH   1   2
BRANCH   1   4
ATOM      4  C   UNL     1      38.028 -24.593 -14.302  0.00  0.00    +0.174 C 
BRANCH   4   5
ATOM      5  O   UNL     1      37.721 -24.541 -15.700  0.00  0.00    -0.379 OA
ATOM      6  H   UNL     1      38.341 -25.105 -16.189  0.00  0.00    +0.211 HD
ENDBRANCH   4   5
BRANCH   4   7
ATOM      7  C   UNL     1      39.009 -25.741 -14.031  0.00  0.00    +0.205 C 
BRANCH   7   8
ATOM      8  O   UNL     1      38.405 -26.950 -14.480  0.00  0.00    -0.375 OA
ATOM      9  H   UNL     1      38.020 -26.811 -15.360  0.00  0.00    +0.211 HD
ENDBRANCH   7   8
BRANCH   7  11
ATOM     10  O   UNL     1      40.544 -25.971 -15.898  0.00  0.00    -0.286 OA
ATOM     11  C   UNL     1      40.336 -25.596 -14.748  0.00  0.00    +0.239 C 
ENDBRANCH   7  11
ENDBRANCH   4   7
ENDBRANCH   1   4
BRANCH   1  12
ATOM     12  C   UNL     1      36.789 -24.933 -12.040  0.00  0.00    +0.169 C 
BRANCH  12  13
ATOM     13  O   UNL     1      36.708 -26.357 -11.879  0.00  0.00    -0.379 OA
ATOM     14  H   UNL     1      37.542 -26.688 -11.509  0.00  0.00    +0.211 HD
ENDBRANCH  12  13
BRANCH  12  15
ATOM     15  C   UNL     1      35.667 -24.325 -11.205  0.00  0.00    +0.169 C 
BRANCH  15  16
ATOM     16  O   UNL     1      34.773 -23.632 -12.071  0.00  0.00    -0.379 OA
ATOM     17  H   UNL     1      35.162 -22.780 -12.323  0.00  0.00    +0.211 HD
ENDBRANCH  15  16
ENDBRANCH  12  15
ENDBRANCH   1  12
TORSDOF 10
ENDMDL
MODEL 6
REMARK VINA RESULT:      -5.6      1.327      1.943
REMARK  Name = 3037556
REMARK  10 active torsions:
REMARK  status: ('A' for Active; 'I' for Inactive)
REMARK    1  A    between atoms: C_1  and  O_2
REMARK    2  A    between atoms: C_1  and  C_4
REMARK    3  A    between atoms: C_1  and  C_12
REMARK    4  A    between atoms: C_4  and  O_5
REMARK    5  A    between atoms: C_4  and  C_7
REMARK    6  A    between atoms: C_7  and  O_8
REMARK    7  A    between atoms: C_7  and  C_11
REMARK    8  A    between atoms: C_12  and  O_13
REMARK    9  A    between atoms: C_12  and  C_15
REMARK   10  A    between atoms: C_15  and  O_16
REMARK                            x       y       z     vdW  Elec       q    Type
REMARK                         _______ _______ _______ _____ _____    ______ ____
ROOT
ATOM      1  C   UNL     1      37.702 -25.002 -13.706  0.00  0.00    +0.169 C 
ENDROOT
BRANCH   1   2
ATOM      2  O   UNL     1      38.884 -24.245 -13.986  0.00  0.00    -0.379 OA
ATOM      3  H   UNL     1      38.807 -23.839 -14.864  0.00  0.00    +0.211 HD
ENDBRANCH   1   2
BRANCH   1   4
ATOM      4  C   UNL     1      37.563 -25.203 -12.187  0.00  0.00    +0.174 C 
BRANCH   4   5
ATOM      5  O   UNL     1      36.869 -26.439 -11.983  0.00  0.00    -0.379 OA
ATOM      6  H   UNL     1      36.478 -26.733 -12.821  0.00  0.00    +0.211 HD
ENDBRANCH   4   5
BRANCH   4   7
ATOM      7  C   UNL     1      36.869 -24.084 -11.398  0.00  0.00    +0.205 C 
BRANCH   7   8
ATOM      8  O   UNL     1      37.707 -22.933 -11.441  0.00  0.00    -0.375 OA
ATOM      9  H   UNL     1      38.616 -23.202 -11.645  0.00  0.00    +0.211 HD
ENDBRANCH   7   8
BRANCH   7  11
ATOM     10  O   UNL     1      34.584 -24.468 -12.123  0.00  0.00    -0.286 OA
ATOM     11  C   UNL     1      35.517 -23.688 -11.955  0.00  0.00    +0.239 C 
ENDBRANCH   7  11
ENDBRANCH   4   7
ENDBRANCH   1   4
BRANCH   1  12
ATOM     12  C   UNL     1      37.778 -26.289 -14.542  0.00  0.00    +0.169 C 
BRANCH  12  13
ATOM     13  O   UNL     1      38.869 -26.151 -15.463  0.00  0.00    -0.379 OA
ATOM     14  H   UNL     1      39.520 -26.852 -15.300  0.00  0.00    +0.211 HD
ENDBRANCH  12  13
BRANCH  12  15
ATOM     15  C   UNL     1      36.528 -26.568 -15.369  0.00  0.00    +0.169 C 
BRANCH  15  16
ATOM     16  O   UNL     1      36.874 -27.425 -16.452  0.00  0.00    -0.379 OA
ATOM     17  H   UNL     1      36.156 -27.429 -17.104  0.00  0.00    +0.211 HD
ENDBRANCH  15  16
ENDBRANCH  12  15
ENDBRANCH   1  12
TORSDOF 10
ENDMDL
MODEL 7
REMARK VINA RESULT:      -5.6      1.734      4.288
REMARK  Name = 3037556
REMARK  10 active torsions:
REMARK  status: ('A' for Active; 'I' for Inactive)
REMARK    1  A    between atoms: C_1  and  O_2
REMARK    2  A    between atoms: C_1  and  C_4
REMARK    3  A    between atoms: C_1  and  C_12
REMARK    4  A    between atoms: C_4  and  O_5
REMARK    5  A    between atoms: C_4  and  C_7
REMARK    6  A    between atoms: C_7  and  O_8
REMARK    7  A    between atoms: C_7  and  C_11
REMARK    8  A    between atoms: C_12  and  O_13
REMARK    9  A    between atoms: C_12  and  C_15
REMARK   10  A    between atoms: C_15  and  O_16
REMARK                            x       y       z     vdW  Elec       q    Type
REMARK                         _______ _______ _______ _____ _____    ______ ____
ROOT
ATOM      1  C   UNL     1      37.890 -24.294 -12.361  0.00  0.00    +0.169 C 
ENDROOT
BRANCH   1   2
ATOM      2  O   UNL     1      39.096 -23.640 -11.955  0.00  0.00    -0.379 OA
ATOM      3  H   UNL     1      39.001 -22.681 -12.077  0.00  0.00    +0.211 HD
ENDBRANCH   1   2
BRANCH   1   4
ATOM      4  C   UNL     1      37.923 -24.545 -13.879  0.00  0.00    +0.174 C 
BRANCH   4   5
ATOM      5  O   UNL     1      36.566 -24.654 -14.322  0.00  0.00    -0.379 OA
ATOM      6  H   UNL     1      36.481 -24.258 -15.203  0.00  0.00    +0.211 HD
ENDBRANCH   4   5
BRANCH   4   7
ATOM      7  C   UNL     1      38.725 -25.759 -14.366  0.00  0.00    +0.205 C 
BRANCH   7   8
ATOM      8  O   UNL     1      38.016 -26.345 -15.453  0.00  0.00    -0.375 OA
ATOM      9  H   UNL     1      38.393 -27.216 -15.652  0.00  0.00    +0.211 HD
ENDBRANCH   7   8
BRANCH   7  11
ATOM     10  O   UNL     1      40.924 -24.738 -14.229  0.00  0.00    -0.286 OA
ATOM     11  C   UNL     1      40.117 -25.417 -14.857  0.00  0.00    +0.239 C 
ENDBRANCH   7  11
ENDBRANCH   4   7
ENDBRANCH   1   4
BRANCH   1  12
ATOM     12  C   UNL     1      36.717 -23.443 -11.854  0.00  0.00    +0.169 C 
BRANCH  12  13
ATOM     13  O   UNL     1      37.259 -22.365 -11.076  0.00  0.00    -0.379 OA
ATOM     14  H   UNL     1      36.539 -21.900 -10.622  0.00  0.00    +0.211 HD
ENDBRANCH  12  13
BRANCH  12  15
ATOM     15  C   UNL     1      35.744 -24.196 -10.955  0.00  0.00    +0.169 C 
BRANCH  15  16
ATOM     16  O   UNL     1      34.887 -24.992 -11.768  0.00  0.00    -0.379 OA
ATOM     17  H   UNL     1      34.160 -24.445 -12.105  0.00  0.00    +0.211 HD
ENDBRANCH  15  16
ENDBRANCH  12  15
ENDBRANCH   1  12
TORSDOF 10
ENDMDL
MODEL 8
REMARK VINA RESULT:      -5.2      1.924      3.572
REMARK  Name = 3037556
REMARK  10 active torsions:
REMARK  status: ('A' for Active; 'I' for Inactive)
REMARK    1  A    between atoms: C_1  and  O_2
REMARK    2  A    between atoms: C_1  and  C_4
REMARK    3  A    between atoms: C_1  and  C_12
REMARK    4  A    between atoms: C_4  and  O_5
REMARK    5  A    between atoms: C_4  and  C_7
REMARK    6  A    between atoms: C_7  and  O_8
REMARK    7  A    between atoms: C_7  and  C_11
REMARK    8  A    between atoms: C_12  and  O_13
REMARK    9  A    between atoms: C_12  and  C_15
REMARK   10  A    between atoms: C_15  and  O_16
REMARK                            x       y       z     vdW  Elec       q    Type
REMARK                         _______ _______ _______ _____ _____    ______ ____
ROOT
ATOM      1  C   UNL     1      36.494 -25.753 -14.047  0.00  0.00    +0.169 C 
ENDROOT
BRANCH   1   2
ATOM      2  O   UNL     1      36.638 -26.196 -12.693  0.00  0.00    -0.379 OA
ATOM      3  H   UNL     1      37.396 -26.799 -12.629  0.00  0.00    +0.211 HD
ENDBRANCH   1   2
BRANCH   1   4
ATOM      4  C   UNL     1      37.816 -25.964 -14.804  0.00  0.00    +0.174 C 
BRANCH   4   5
ATOM      5  O   UNL     1      38.178 -27.341 -14.651  0.00  0.00    -0.379 OA
ATOM      6  H   UNL     1      39.021 -27.506 -15.103  0.00  0.00    +0.211 HD
ENDBRANCH   4   5
BRANCH   4   7
ATOM      7  C   UNL     1      38.998 -25.071 -14.404  0.00  0.00    +0.205 C 
BRANCH   7   8
ATOM      8  O   UNL     1      39.073 -25.055 -12.982  0.00  0.00    -0.375 OA
ATOM      9  H   UNL     1      38.179 -25.102 -12.610  0.00  0.00    +0.211 HD
ENDBRANCH   7   8
BRANCH   7  11
ATOM     10  O   UNL     1      40.986 -26.465 -14.431  0.00  0.00    -0.286 OA
ATOM     11  C   UNL     1      40.335 -25.551 -14.929  0.00  0.00    +0.239 C 
ENDBRANCH   7  11
ENDBRANCH   4   7
ENDBRANCH   1   4
BRANCH   1  12
ATOM     12  C   UNL     1      35.979 -24.307 -14.000  0.00  0.00    +0.169 C 
BRANCH  12  13
ATOM     13  O   UNL     1      36.446 -23.712 -12.780  0.00  0.00    -0.379 OA
ATOM     14  H   UNL     1      36.112 -22.804 -12.714  0.00  0.00    +0.211 HD
ENDBRANCH  12  13
BRANCH  12  15
ATOM     15  C   UNL     1      34.459 -24.187 -14.001  0.00  0.00    +0.169 C 
BRANCH  15  16
ATOM     16  O   UNL     1      33.952 -24.743 -12.791  0.00  0.00    -0.379 OA
ATOM     17  H   UNL     1      34.026 -25.710 -12.824  0.00  0.00    +0.211 HD
ENDBRANCH  15  16
ENDBRANCH  12  15
ENDBRANCH   1  12
TORSDOF 10
ENDMDL
MODEL 9
REMARK VINA RESULT:      -5.1     11.056     13.046
REMARK  Name = 3037556
REMARK  10 active torsions:
REMARK  status: ('A' for Active; 'I' for Inactive)
REMARK    1  A    between atoms: C_1  and  O_2
REMARK    2  A    between atoms: C_1  and  C_4
REMARK    3  A    between atoms: C_1  and  C_12
REMARK    4  A    between atoms: C_4  and  O_5
REMARK    5  A    between atoms: C_4  and  C_7
REMARK    6  A    between atoms: C_7  and  O_8
REMARK    7  A    between atoms: C_7  and  C_11
REMARK    8  A    between atoms: C_12  and  O_13
REMARK    9  A    between atoms: C_12  and  C_15
REMARK   10  A    between atoms: C_15  and  O_16
REMARK                            x       y       z     vdW  Elec       q    Type
REMARK                         _______ _______ _______ _____ _____    ______ ____
ROOT
ATOM      1  C   UNL     1      34.751 -16.935 -23.465  0.00  0.00    +0.169 C 
ENDROOT
BRANCH   1   2
ATOM      2  O   UNL     1      35.636 -15.823 -23.292  0.00  0.00    -0.379 OA
ATOM      3  H   UNL     1      35.436 -15.145 -23.957  0.00  0.00    +0.211 HD
ENDBRANCH   1   2
BRANCH   1   4
ATOM      4  C   UNL     1      35.490 -18.242 -23.126  0.00  0.00    +0.174 C 
BRANCH   4   5
ATOM      5  O   UNL     1      34.823 -19.300 -23.823  0.00  0.00    -0.379 OA
ATOM      6  H   UNL     1      33.981 -18.973 -24.178  0.00  0.00    +0.211 HD
ENDBRANCH   4   5
BRANCH   4   7
ATOM      7  C   UNL     1      35.620 -18.602 -21.640  0.00  0.00    +0.205 C 
BRANCH   7   8
ATOM      8  O   UNL     1      35.289 -17.446 -20.878  0.00  0.00    -0.375 OA
ATOM      9  H   UNL     1      34.827 -16.807 -21.443  0.00  0.00    +0.211 HD
ENDBRANCH   7   8
BRANCH   7  11
ATOM     10  O   UNL     1      33.475 -19.663 -21.226  0.00  0.00    -0.286 OA
ATOM     11  C   UNL     1      34.701 -19.722 -21.198  0.00  0.00    +0.239 C 
ENDBRANCH   7  11
ENDBRANCH   4   7
ENDBRANCH   1   4
BRANCH   1  12
ATOM     12  C   UNL     1      34.179 -16.845 -24.887  0.00  0.00    +0.169 C 
BRANCH  12  13
ATOM     13  O   UNL     1      35.264 -17.024 -25.810  0.00  0.00    -0.379 OA
ATOM     14  H   UNL     1      34.952 -16.850 -26.712  0.00  0.00    +0.211 HD
ENDBRANCH  12  13
BRANCH  12  15
ATOM     15  C   UNL     1      33.532 -15.504 -25.214  0.00  0.00    +0.169 C 
BRANCH  15  16
ATOM     16  O   UNL     1      33.493 -15.344 -26.629  0.00  0.00    -0.379 OA
ATOM     17  H   UNL     1      32.587 -15.136 -26.906  0.00  0.00    +0.211 HD
ENDBRANCH  15  16
ENDBRANCH  12  15
ENDBRANCH   1  12
TORSDOF 10
ENDMDL
