MODEL 1
REMARK VINA RESULT:      -7.9      0.000      0.000
REMARK  Name = 70177
REMARK  7 active torsions:
REMARK  status: ('A' for Active; 'I' for Inactive)
REMARK    1  A    between atoms: N_2  and  C_15
REMARK    2  A    between atoms: C_3  and  C_6
REMARK    3  A    between atoms: C_11  and  N_12
REMARK    4  A    between atoms: C_15  and  C_16
REMARK    5  A    between atoms: C_16  and  N_17
REMARK    6  A    between atoms: N_17  and  C_19
REMARK    7  A    between atoms: N_17  and  C_21
REMARK                            x       y       z     vdW  Elec       q    Type
REMARK                         _______ _______ _______ _____ _____    ______ ____
ROOT
ATOM      1  O   UNL     1      35.210 -16.599 -20.185  0.00  0.00    -0.270 OA
ATOM      2  N   UNL     1      35.218 -17.142 -22.440  0.00  0.00    -0.303 N 
ATOM      3  C   UNL     1      34.867 -16.366 -21.343  0.00  0.00    +0.246 C 
ATOM      4  H   UNL     1      34.895 -16.874 -23.331  0.00  0.00    +0.150 HD
ENDROOT
BRANCH   3   6
ATOM      5 CL   UNL     1      33.648 -12.479 -24.497  0.00  0.00    -0.081 Cl
ATOM      6  C   UNL     1      34.000 -15.193 -21.621  0.00  0.00    +0.054 C 
ATOM      7  C   UNL     1      34.200 -14.475 -22.782  0.00  0.00    +0.017 C 
ATOM      8  C   UNL     1      33.024 -14.855 -20.706  0.00  0.00    +0.006 C 
ATOM      9  C   UNL     1      33.388 -13.371 -23.041  0.00  0.00    +0.071 C 
ATOM     10  C   UNL     1      32.212 -13.751 -20.964  0.00  0.00    +0.015 C 
ATOM     11  C   UNL     1      32.394 -13.009 -22.132  0.00  0.00    +0.052 C 
BRANCH  11  12
ATOM     12  N   UNL     1      31.554 -11.897 -22.366  0.00  0.00    -0.356 N 
ATOM     13  H   UNL     1      30.807 -11.970 -23.002  0.00  0.00    +0.142 HD
ATOM     14  H   UNL     1      31.718 -11.048 -21.894  0.00  0.00    +0.142 HD
ENDBRANCH  11  12
ENDBRANCH   3   6
BRANCH   2  15
ATOM     15  C   UNL     1      36.031 -18.322 -22.330  0.00  0.00    +0.067 C 
BRANCH  15  16
ATOM     16  C   UNL     1      35.191 -19.538 -21.969  0.00  0.00    -0.056 C 
BRANCH  16  17
ATOM     17  N   UNL     1      35.237 -19.780 -20.528  0.00  0.00    +0.388 N 
ATOM     18  H   UNL     1      35.172 -18.882 -20.047  0.00  0.00    -0.080 HD
BRANCH  17  19
ATOM     19  C   UNL     1      36.501 -20.414 -20.155  0.00  0.00    -0.077 C 
ATOM     20  C   UNL     1      36.290 -21.465 -19.078  0.00  0.00    -0.025 C 
ENDBRANCH  17  19
BRANCH  17  21
ATOM     21  C   UNL     1      34.106 -20.610 -20.113  0.00  0.00    -0.077 C 
ATOM     22  C   UNL     1      32.785 -19.994 -20.544  0.00  0.00    -0.025 C 
ENDBRANCH  17  21
ENDBRANCH  16  17
ENDBRANCH  15  16
ENDBRANCH   2  15
TORSDOF 7
ENDMDL
MODEL 2
REMARK VINA RESULT:      -7.8      3.169      6.999
REMARK  Name = 70177
REMARK  7 active torsions:
REMARK  status: ('A' for Active; 'I' for Inactive)
REMARK    1  A    between atoms: N_2  and  C_15
REMARK    2  A    between atoms: C_3  and  C_6
REMARK    3  A    between atoms: C_11  and  N_12
REMARK    4  A    between atoms: C_15  and  C_16
REMARK    5  A    between atoms: C_16  and  N_17
REMARK    6  A    between atoms: N_17  and  C_19
REMARK    7  A    between atoms: N_17  and  C_21
REMARK                            x       y       z     vdW  Elec       q    Type
REMARK                         _______ _______ _______ _____ _____    ______ ____
ROOT
ATOM      1  O   UNL     1      36.597 -18.261 -22.325  0.00  0.00    -0.270 OA
ATOM      2  N   UNL     1      34.507 -17.299 -22.624  0.00  0.00    -0.303 N 
ATOM      3  C   UNL     1      35.387 -18.241 -22.106  0.00  0.00    +0.246 C 
ATOM      4  H   UNL     1      33.552 -17.366 -22.390  0.00  0.00    +0.150 HD
ENDROOT
BRANCH   3   6
ATOM      5 CL   UNL     1      36.098 -21.993 -18.648  0.00  0.00    -0.081 Cl
ATOM      6  C   UNL     1      34.788 -19.296 -21.250  0.00  0.00    +0.054 C 
ATOM      7  C   UNL     1      35.615 -20.055 -20.448  0.00  0.00    +0.017 C 
ATOM      8  C   UNL     1      33.423 -19.488 -21.288  0.00  0.00    +0.006 C 
ATOM      9  C   UNL     1      35.052 -21.048 -19.647  0.00  0.00    +0.071 C 
ATOM     10  C   UNL     1      32.859 -20.482 -20.488  0.00  0.00    +0.015 C 
ATOM     11  C   UNL     1      33.674 -21.262 -19.668  0.00  0.00    +0.052 C 
BRANCH  11  12
ATOM     12  N   UNL     1      33.074 -22.261 -18.867  0.00  0.00    -0.356 N 
ATOM     13  H   UNL     1      33.083 -22.176 -17.886  0.00  0.00    +0.142 HD
ATOM     14  H   UNL     1      32.648 -23.041 -19.290  0.00  0.00    +0.142 HD
ENDBRANCH  11  12
ENDBRANCH   3   6
BRANCH   2  15
ATOM     15  C   UNL     1      34.931 -16.232 -23.489  0.00  0.00    +0.067 C 
BRANCH  15  16
ATOM     16  C   UNL     1      34.524 -14.877 -22.930  0.00  0.00    -0.056 C 
BRANCH  16  17
ATOM     17  N   UNL     1      33.131 -14.585 -23.264  0.00  0.00    +0.388 N 
ATOM     18  H   UNL     1      32.645 -15.468 -23.427  0.00  0.00    -0.080 HD
BRANCH  17  19
ATOM     19  C   UNL     1      33.053 -13.782 -24.483  0.00  0.00    -0.077 C 
ATOM     20  C   UNL     1      33.703 -12.423 -24.287  0.00  0.00    -0.025 C 
ENDBRANCH  17  19
BRANCH  17  21
ATOM     21  C   UNL     1      32.473 -13.895 -22.154  0.00  0.00    -0.077 C 
ATOM     22  C   UNL     1      32.924 -14.455 -20.815  0.00  0.00    -0.025 C 
ENDBRANCH  17  21
ENDBRANCH  16  17
ENDBRANCH  15  16
ENDBRANCH   2  15
TORSDOF 7
ENDMDL
MODEL 3
REMARK VINA RESULT:      -7.7      3.327      7.013
REMARK  Name = 70177
REMARK  7 active torsions:
REMARK  status: ('A' for Active; 'I' for Inactive)
REMARK    1  A    between atoms: N_2  and  C_15
REMARK    2  A    between atoms: C_3  and  C_6
REMARK    3  A    between atoms: C_11  and  N_12
REMARK    4  A    between atoms: C_15  and  C_16
REMARK    5  A    between atoms: C_16  and  N_17
REMARK    6  A    between atoms: N_17  and  C_19
REMARK    7  A    between atoms: N_17  and  C_21
REMARK                            x       y       z     vdW  Elec       q    Type
REMARK                         _______ _______ _______ _____ _____    ______ ____
ROOT
ATOM      1  O   UNL     1      36.614 -18.267 -22.246  0.00  0.00    -0.270 OA
ATOM      2  N   UNL     1      34.522 -17.366 -22.688  0.00  0.00    -0.303 N 
ATOM      3  C   UNL     1      35.394 -18.268 -22.091  0.00  0.00    +0.246 C 
ATOM      4  H   UNL     1      33.558 -17.447 -22.502  0.00  0.00    +0.150 HD
ENDROOT
BRANCH   3   6
ATOM      5 CL   UNL     1      36.033 -22.048 -18.649  0.00  0.00    -0.081 Cl
ATOM      6  C   UNL     1      34.774 -19.305 -21.228  0.00  0.00    +0.054 C 
ATOM      7  C   UNL     1      35.587 -20.092 -20.439  0.00  0.00    +0.017 C 
ATOM      8  C   UNL     1      33.403 -19.454 -21.248  0.00  0.00    +0.006 C 
ATOM      9  C   UNL     1      35.004 -21.069 -19.632  0.00  0.00    +0.071 C 
ATOM     10  C   UNL     1      32.819 -20.432 -20.442  0.00  0.00    +0.015 C 
ATOM     11  C   UNL     1      33.620 -21.239 -19.634  0.00  0.00    +0.052 C 
BRANCH  11  12
ATOM     12  N   UNL     1      32.999 -22.219 -18.828  0.00  0.00    -0.356 N 
ATOM     13  H   UNL     1      33.374 -22.439 -17.944  0.00  0.00    +0.142 HD
ATOM     14  H   UNL     1      32.193 -22.684 -19.150  0.00  0.00    +0.142 HD
ENDBRANCH  11  12
ENDBRANCH   3   6
BRANCH   2  15
ATOM     15  C   UNL     1      34.968 -16.321 -23.568  0.00  0.00    +0.067 C 
BRANCH  15  16
ATOM     16  C   UNL     1      34.567 -14.950 -23.043  0.00  0.00    -0.056 C 
BRANCH  16  17
ATOM     17  N   UNL     1      33.784 -14.230 -24.046  0.00  0.00    +0.388 N 
ATOM     18  H   UNL     1      34.360 -13.480 -24.430  0.00  0.00    -0.080 HD
BRANCH  17  19
ATOM     19  C   UNL     1      32.594 -13.635 -23.438  0.00  0.00    -0.077 C 
ATOM     20  C   UNL     1      32.487 -14.003 -21.968  0.00  0.00    -0.025 C 
ENDBRANCH  17  19
BRANCH  17  21
ATOM     21  C   UNL     1      33.406 -15.126 -25.139  0.00  0.00    -0.077 C 
ATOM     22  C   UNL     1      32.846 -14.348 -26.319  0.00  0.00    -0.025 C 
ENDBRANCH  17  21
ENDBRANCH  16  17
ENDBRANCH  15  16
ENDBRANCH   2  15
TORSDOF 7
ENDMDL
MODEL 4
REMARK VINA RESULT:      -7.5      5.277      7.511
REMARK  Name = 70177
REMARK  7 active torsions:
REMARK  status: ('A' for Active; 'I' for Inactive)
REMARK    1  A    between atoms: N_2  and  C_15
REMARK    2  A    between atoms: C_3  and  C_6
REMARK    3  A    between atoms: C_11  and  N_12
REMARK    4  A    between atoms: C_15  and  C_16
REMARK    5  A    between atoms: C_16  and  N_17
REMARK    6  A    between atoms: N_17  and  C_19
REMARK    7  A    between atoms: N_17  and  C_21
REMARK                            x       y       z     vdW  Elec       q    Type
REMARK                         _______ _______ _______ _____ _____    ______ ____
ROOT
ATOM      1  O   UNL     1      34.038 -23.634 -19.246  0.00  0.00    -0.270 OA
ATOM      2  N   UNL     1      32.638 -22.404 -17.866  0.00  0.00    -0.303 N 
ATOM      3  C   UNL     1      33.517 -22.567 -18.929  0.00  0.00    +0.246 C 
ATOM      4  H   UNL     1      32.271 -21.507 -17.689  0.00  0.00    +0.150 HD
ENDROOT
BRANCH   3   6
ATOM      5 CL   UNL     1      37.141 -19.426 -20.812  0.00  0.00    -0.081 Cl
ATOM      6  C   UNL     1      33.846 -21.341 -19.700  0.00  0.00    +0.054 C 
ATOM      7  C   UNL     1      35.171 -20.999 -19.877  0.00  0.00    +0.017 C 
ATOM      8  C   UNL     1      32.816 -20.580 -20.211  0.00  0.00    +0.006 C 
ATOM      9  C   UNL     1      35.479 -19.846 -20.598  0.00  0.00    +0.071 C 
ATOM     10  C   UNL     1      33.123 -19.426 -20.932  0.00  0.00    +0.015 C 
ATOM     11  C   UNL     1      34.455 -19.059 -21.125  0.00  0.00    +0.052 C 
BRANCH  11  12
ATOM     12  N   UNL     1      34.735 -17.885 -21.860  0.00  0.00    -0.356 N 
ATOM     13  H   UNL     1      35.633 -17.745 -22.240  0.00  0.00    +0.142 HD
ATOM     14  H   UNL     1      34.033 -17.207 -21.992  0.00  0.00    +0.142 HD
ENDBRANCH  11  12
ENDBRANCH   3   6
BRANCH   2  15
ATOM     15  C   UNL     1      32.242 -23.490 -17.011  0.00  0.00    +0.067 C 
BRANCH  15  16
ATOM     16  C   UNL     1      31.043 -23.108 -16.155  0.00  0.00    -0.056 C 
BRANCH  16  17
ATOM     17  N   UNL     1      30.225 -24.286 -15.871  0.00  0.00    +0.388 N 
ATOM     18  H   UNL     1      30.350 -24.958 -16.629  0.00  0.00    -0.080 HD
BRANCH  17  19
ATOM     19  C   UNL     1      28.810 -23.923 -15.804  0.00  0.00    -0.077 C 
ATOM     20  C   UNL     1      28.593 -22.480 -16.225  0.00  0.00    -0.025 C 
ENDBRANCH  17  19
BRANCH  17  21
ATOM     21  C   UNL     1      30.651 -24.915 -14.621  0.00  0.00    -0.077 C 
ATOM     22  C   UNL     1      30.789 -23.889 -13.509  0.00  0.00    -0.025 C 
ENDBRANCH  17  21
ENDBRANCH  16  17
ENDBRANCH  15  16
ENDBRANCH   2  15
TORSDOF 7
ENDMDL
MODEL 5
REMARK VINA RESULT:      -7.5      4.600      7.073
REMARK  Name = 70177
REMARK  7 active torsions:
REMARK  status: ('A' for Active; 'I' for Inactive)
REMARK    1  A    between atoms: N_2  and  C_15
REMARK    2  A    between atoms: C_3  and  C_6
REMARK    3  A    between atoms: C_11  and  N_12
REMARK    4  A    between atoms: C_15  and  C_16
REMARK    5  A    between atoms: C_16  and  N_17
REMARK    6  A    between atoms: N_17  and  C_19
REMARK    7  A    between atoms: N_17  and  C_21
REMARK                            x       y       z     vdW  Elec       q    Type
REMARK                         _______ _______ _______ _____ _____    ______ ____
ROOT
ATOM      1  O   UNL     1      33.837 -23.827 -19.322  0.00  0.00    -0.270 OA
ATOM      2  N   UNL     1      34.013 -22.574 -17.377  0.00  0.00    -0.303 N 
ATOM      3  C   UNL     1      33.974 -22.744 -18.756  0.00  0.00    +0.246 C 
ATOM      4  H   UNL     1      34.126 -21.665 -17.016  0.00  0.00    +0.150 HD
ENDROOT
BRANCH   3   6
ATOM      5 CL   UNL     1      37.150 -19.317 -20.925  0.00  0.00    -0.081 Cl
ATOM      6  C   UNL     1      34.133 -21.514 -19.572  0.00  0.00    +0.054 C 
ATOM      7  C   UNL     1      35.405 -21.049 -19.837  0.00  0.00    +0.017 C 
ATOM      8  C   UNL     1      33.004 -20.871 -20.034  0.00  0.00    +0.006 C 
ATOM      9  C   UNL     1      35.554 -19.891 -20.600  0.00  0.00    +0.071 C 
ATOM     10  C   UNL     1      33.152 -19.712 -20.796  0.00  0.00    +0.015 C 
ATOM     11  C   UNL     1      34.427 -19.222 -21.079  0.00  0.00    +0.052 C 
BRANCH  11  12
ATOM     12  N   UNL     1      34.546 -18.047 -21.855  0.00  0.00    -0.356 N 
ATOM     13  H   UNL     1      34.068 -17.230 -21.586  0.00  0.00    +0.142 HD
ATOM     14  H   UNL     1      35.105 -18.047 -22.666  0.00  0.00    +0.142 HD
ENDBRANCH  11  12
ENDBRANCH   3   6
BRANCH   2  15
ATOM     15  C   UNL     1      33.898 -23.671 -16.455  0.00  0.00    +0.067 C 
BRANCH  15  16
ATOM     16  C   UNL     1      34.762 -23.448 -15.223  0.00  0.00    -0.056 C 
BRANCH  16  17
ATOM     17  N   UNL     1      36.064 -24.093 -15.390  0.00  0.00    +0.388 N 
ATOM     18  H   UNL     1      36.146 -24.411 -16.357  0.00  0.00    -0.080 HD
BRANCH  17  19
ATOM     19  C   UNL     1      36.175 -25.256 -14.511  0.00  0.00    -0.077 C 
ATOM     20  C   UNL     1      36.965 -26.371 -15.173  0.00  0.00    -0.025 C 
ENDBRANCH  17  19
BRANCH  17  21
ATOM     21  C   UNL     1      37.143 -23.143 -15.122  0.00  0.00    -0.077 C 
ATOM     22  C   UNL     1      37.417 -22.268 -16.334  0.00  0.00    -0.025 C 
ENDBRANCH  17  21
ENDBRANCH  16  17
ENDBRANCH  15  16
ENDBRANCH   2  15
TORSDOF 7
ENDMDL
MODEL 6
REMARK VINA RESULT:      -7.5      3.494      7.981
REMARK  Name = 70177
REMARK  7 active torsions:
REMARK  status: ('A' for Active; 'I' for Inactive)
REMARK    1  A    between atoms: N_2  and  C_15
REMARK    2  A    between atoms: C_3  and  C_6
REMARK    3  A    between atoms: C_11  and  N_12
REMARK    4  A    between atoms: C_15  and  C_16
REMARK    5  A    between atoms: C_16  and  N_17
REMARK    6  A    between atoms: N_17  and  C_19
REMARK    7  A    between atoms: N_17  and  C_21
REMARK                            x       y       z     vdW  Elec       q    Type
REMARK                         _______ _______ _______ _____ _____    ______ ____
ROOT
ATOM      1  O   UNL     1      32.792 -13.978 -24.948  0.00  0.00    -0.270 OA
ATOM      2  N   UNL     1      34.181 -12.465 -23.871  0.00  0.00    -0.303 N 
ATOM      3  C   UNL     1      33.641 -13.725 -24.096  0.00  0.00    +0.246 C 
ATOM      4  H   UNL     1      34.859 -12.361 -23.164  0.00  0.00    +0.150 HD
ENDROOT
BRANCH   3   6
ATOM      5 CL   UNL     1      35.512 -18.507 -23.680  0.00  0.00    -0.081 Cl
ATOM      6  C   UNL     1      34.131 -14.815 -23.214  0.00  0.00    +0.054 C 
ATOM      7  C   UNL     1      34.544 -16.001 -23.784  0.00  0.00    +0.017 C 
ATOM      8  C   UNL     1      34.153 -14.608 -21.850  0.00  0.00    +0.006 C 
ATOM      9  C   UNL     1      35.000 -17.026 -22.955  0.00  0.00    +0.071 C 
ATOM     10  C   UNL     1      34.608 -15.632 -21.020  0.00  0.00    +0.015 C 
ATOM     11  C   UNL     1      35.031 -16.841 -21.573  0.00  0.00    +0.052 C 
BRANCH  11  12
ATOM     12  N   UNL     1      35.489 -17.859 -20.706  0.00  0.00    -0.356 N 
ATOM     13  H   UNL     1      36.245 -18.431 -20.974  0.00  0.00    +0.142 HD
ATOM     14  H   UNL     1      35.051 -17.998 -19.835  0.00  0.00    +0.142 HD
ENDBRANCH  11  12
ENDBRANCH   3   6
BRANCH   2  15
ATOM     15  C   UNL     1      33.790 -11.306 -24.626  0.00  0.00    +0.067 C 
BRANCH  15  16
ATOM     16  C   UNL     1      34.158 -10.023 -23.895  0.00  0.00    -0.056 C 
BRANCH  16  17
ATOM     17  N   UNL     1      32.964  -9.216 -23.650  0.00  0.00    +0.388 N 
ATOM     18  H   UNL     1      32.436  -9.146 -24.520  0.00  0.00    -0.080 HD
BRANCH  17  19
ATOM     19  C   UNL     1      33.335  -7.868 -23.222  0.00  0.00    -0.077 C 
ATOM     20  C   UNL     1      34.797  -7.582 -23.517  0.00  0.00    -0.025 C 
ENDBRANCH  17  19
BRANCH  17  21
ATOM     21  C   UNL     1      32.113  -9.855 -22.645  0.00  0.00    -0.077 C 
ATOM     22  C   UNL     1      32.082  -9.049 -21.358  0.00  0.00    -0.025 C 
ENDBRANCH  17  21
ENDBRANCH  16  17
ENDBRANCH  15  16
ENDBRANCH   2  15
TORSDOF 7
ENDMDL
MODEL 7
REMARK VINA RESULT:      -7.5      2.088      2.758
REMARK  Name = 70177
REMARK  7 active torsions:
REMARK  status: ('A' for Active; 'I' for Inactive)
REMARK    1  A    between atoms: N_2  and  C_15
REMARK    2  A    between atoms: C_3  and  C_6
REMARK    3  A    between atoms: C_11  and  N_12
REMARK    4  A    between atoms: C_15  and  C_16
REMARK    5  A    between atoms: C_16  and  N_17
REMARK    6  A    between atoms: N_17  and  C_19
REMARK    7  A    between atoms: N_17  and  C_21
REMARK                            x       y       z     vdW  Elec       q    Type
REMARK                         _______ _______ _______ _____ _____    ______ ____
ROOT
ATOM      1  O   UNL     1      35.237 -16.892 -20.475  0.00  0.00    -0.270 OA
ATOM      2  N   UNL     1      35.939 -18.729 -21.705  0.00  0.00    -0.303 N 
ATOM      3  C   UNL     1      35.354 -17.478 -21.549  0.00  0.00    +0.246 C 
ATOM      4  H   UNL     1      35.988 -19.119 -22.608  0.00  0.00    +0.150 HD
ENDROOT
BRANCH   3   6
ATOM      5 CL   UNL     1      33.187 -13.365 -23.768  0.00  0.00    -0.081 Cl
ATOM      6  C   UNL     1      34.825 -16.845 -22.783  0.00  0.00    +0.054 C 
ATOM      7  C   UNL     1      34.320 -15.563 -22.711  0.00  0.00    +0.017 C 
ATOM      8  C   UNL     1      34.851 -17.560 -23.962  0.00  0.00    +0.006 C 
ATOM      9  C   UNL     1      33.819 -14.970 -23.870  0.00  0.00    +0.071 C 
ATOM     10  C   UNL     1      34.350 -16.968 -25.121  0.00  0.00    +0.015 C 
ATOM     11  C   UNL     1      33.834 -15.672 -25.075  0.00  0.00    +0.052 C 
BRANCH  11  12
ATOM     12  N   UNL     1      33.335 -15.098 -26.266  0.00  0.00    -0.356 N 
ATOM     13  H   UNL     1      33.623 -15.449 -27.139  0.00  0.00    +0.142 HD
ATOM     14  H   UNL     1      32.700 -14.347 -26.222  0.00  0.00    +0.142 HD
ENDBRANCH  11  12
ENDBRANCH   3   6
BRANCH   2  15
ATOM     15  C   UNL     1      36.475 -19.480 -20.602  0.00  0.00    +0.067 C 
BRANCH  15  16
ATOM     16  C   UNL     1      35.868 -20.874 -20.539  0.00  0.00    -0.056 C 
BRANCH  16  17
ATOM     17  N   UNL     1      34.975 -20.989 -19.387  0.00  0.00    +0.388 N 
ATOM     18  H   UNL     1      34.963 -20.094 -18.895  0.00  0.00    -0.080 HD
BRANCH  17  19
ATOM     19  C   UNL     1      35.456 -22.017 -18.465  0.00  0.00    -0.077 C 
ATOM     20  C   UNL     1      36.769 -21.605 -17.821  0.00  0.00    -0.025 C 
ENDBRANCH  17  19
BRANCH  17  21
ATOM     21  C   UNL     1      33.612 -21.292 -19.825  0.00  0.00    -0.077 C 
ATOM     22  C   UNL     1      32.931 -20.058 -20.394  0.00  0.00    -0.025 C 
ENDBRANCH  17  21
ENDBRANCH  16  17
ENDBRANCH  15  16
ENDBRANCH   2  15
TORSDOF 7
ENDMDL
MODEL 8
REMARK VINA RESULT:      -7.2      6.012      9.411
REMARK  Name = 70177
REMARK  7 active torsions:
REMARK  status: ('A' for Active; 'I' for Inactive)
REMARK    1  A    between atoms: N_2  and  C_15
REMARK    2  A    between atoms: C_3  and  C_6
REMARK    3  A    between atoms: C_11  and  N_12
REMARK    4  A    between atoms: C_15  and  C_16
REMARK    5  A    between atoms: C_16  and  N_17
REMARK    6  A    between atoms: N_17  and  C_19
REMARK    7  A    between atoms: N_17  and  C_21
REMARK                            x       y       z     vdW  Elec       q    Type
REMARK                         _______ _______ _______ _____ _____    ______ ____
ROOT
ATOM      1  O   UNL     1      34.860 -22.940 -17.290  0.00  0.00    -0.270 OA
ATOM      2  N   UNL     1      32.953 -22.521 -18.542  0.00  0.00    -0.303 N 
ATOM      3  C   UNL     1      33.636 -22.932 -17.404  0.00  0.00    +0.246 C 
ATOM      4  H   UNL     1      31.968 -22.549 -18.538  0.00  0.00    +0.150 HD
ENDROOT
BRANCH   3   6
ATOM      5 CL   UNL     1      28.921 -23.821 -15.528  0.00  0.00    -0.081 Cl
ATOM      6  C   UNL     1      32.798 -23.408 -16.274  0.00  0.00    +0.054 C 
ATOM      7  C   UNL     1      31.425 -23.397 -16.410  0.00  0.00    +0.017 C 
ATOM      8  C   UNL     1      33.419 -23.841 -15.122  0.00  0.00    +0.006 C 
ATOM      9  C   UNL     1      30.638 -23.840 -15.347  0.00  0.00    +0.071 C 
ATOM     10  C   UNL     1      32.633 -24.284 -14.058  0.00  0.00    +0.015 C 
ATOM     11  C   UNL     1      31.242 -24.283 -14.171  0.00  0.00    +0.052 C 
BRANCH  11  12
ATOM     12  N   UNL     1      30.473 -24.739 -13.077  0.00  0.00    -0.356 N 
ATOM     13  H   UNL     1      30.853 -24.728 -12.169  0.00  0.00    +0.142 HD
ATOM     14  H   UNL     1      29.557 -25.070 -13.223  0.00  0.00    +0.142 HD
ENDBRANCH  11  12
ENDBRANCH   3   6
BRANCH   2  15
ATOM     15  C   UNL     1      33.624 -22.057 -19.726  0.00  0.00    +0.067 C 
BRANCH  15  16
ATOM     16  C   UNL     1      33.259 -20.612 -20.035  0.00  0.00    -0.056 C 
BRANCH  16  17
ATOM     17  N   UNL     1      34.466 -19.826 -20.290  0.00  0.00    +0.388 N 
ATOM     18  H   UNL     1      34.568 -19.138 -19.544  0.00  0.00    -0.080 HD
BRANCH  17  19
ATOM     19  C   UNL     1      34.354 -19.115 -21.563  0.00  0.00    -0.077 C 
ATOM     20  C   UNL     1      34.268 -17.614 -21.347  0.00  0.00    -0.025 C 
ENDBRANCH  17  19
BRANCH  17  21
ATOM     21  C   UNL     1      35.647 -20.689 -20.287  0.00  0.00    -0.077 C 
ATOM     22  C   UNL     1      36.924 -19.871 -20.390  0.00  0.00    -0.025 C 
ENDBRANCH  17  21
ENDBRANCH  16  17
ENDBRANCH  15  16
ENDBRANCH   2  15
TORSDOF 7
ENDMDL
MODEL 9
REMARK VINA RESULT:      -7.1      4.949      7.328
REMARK  Name = 70177
REMARK  7 active torsions:
REMARK  status: ('A' for Active; 'I' for Inactive)
REMARK    1  A    between atoms: N_2  and  C_15
REMARK    2  A    between atoms: C_3  and  C_6
REMARK    3  A    between atoms: C_11  and  N_12
REMARK    4  A    between atoms: C_15  and  C_16
REMARK    5  A    between atoms: C_16  and  N_17
REMARK    6  A    between atoms: N_17  and  C_19
REMARK    7  A    between atoms: N_17  and  C_21
REMARK                            x       y       z     vdW  Elec       q    Type
REMARK                         _______ _______ _______ _____ _____    ______ ____
ROOT
ATOM      1  O   UNL     1      33.819 -23.856 -19.092  0.00  0.00    -0.270 OA
ATOM      2  N   UNL     1      34.508 -22.608 -17.261  0.00  0.00    -0.303 N 
ATOM      3  C   UNL     1      34.171 -22.787 -18.597  0.00  0.00    +0.246 C 
ATOM      4  H   UNL     1      34.778 -21.711 -16.958  0.00  0.00    +0.150 HD
ENDROOT
BRANCH   3   6
ATOM      5 CL   UNL     1      37.194 -19.382 -21.007  0.00  0.00    -0.081 Cl
ATOM      6  C   UNL     1      34.275 -21.586 -19.465  0.00  0.00    +0.054 C 
ATOM      7  C   UNL     1      35.526 -21.106 -19.793  0.00  0.00    +0.017 C 
ATOM      8  C   UNL     1      33.116 -20.985 -19.910  0.00  0.00    +0.006 C 
ATOM      9  C   UNL     1      35.623 -19.975 -20.604  0.00  0.00    +0.071 C 
ATOM     10  C   UNL     1      33.212 -19.853 -20.721  0.00  0.00    +0.015 C 
ATOM     11  C   UNL     1      34.466 -19.349 -21.067  0.00  0.00    +0.052 C 
BRANCH  11  12
ATOM     12  N   UNL     1      34.532 -18.203 -21.891  0.00  0.00    -0.356 N 
ATOM     13  H   UNL     1      33.759 -17.596 -21.953  0.00  0.00    +0.142 HD
ATOM     14  H   UNL     1      35.350 -18.012 -22.405  0.00  0.00    +0.142 HD
ENDBRANCH  11  12
ENDBRANCH   3   6
BRANCH   2  15
ATOM     15  C   UNL     1      34.481 -23.680 -16.303  0.00  0.00    +0.067 C 
BRANCH  15  16
ATOM     16  C   UNL     1      35.184 -23.282 -15.013  0.00  0.00    -0.056 C 
BRANCH  16  17
ATOM     17  N   UNL     1      34.292 -23.471 -13.870  0.00  0.00    +0.388 N 
ATOM     18  H   UNL     1      34.080 -22.556 -13.470  0.00  0.00    -0.080 HD
BRANCH  17  19
ATOM     19  C   UNL     1      34.941 -24.285 -12.843  0.00  0.00    -0.077 C 
ATOM     20  C   UNL     1      36.191 -24.957 -13.384  0.00  0.00    -0.025 C 
ENDBRANCH  17  19
BRANCH  17  21
ATOM     21  C   UNL     1      33.037 -24.090 -14.297  0.00  0.00    -0.077 C 
ATOM     22  C   UNL     1      31.845 -23.214 -13.947  0.00  0.00    -0.025 C 
ENDBRANCH  17  21
ENDBRANCH  16  17
ENDBRANCH  15  16
ENDBRANCH   2  15
TORSDOF 7
ENDMDL
