MODEL 1
REMARK VINA RESULT:     -10.0      0.000      0.000
REMARK  Name = 6540261
REMARK  9 active torsions:
REMARK  status: ('A' for Active; 'I' for Inactive)
REMARK    1  A    between atoms: S_1  and  C_4
REMARK    2  A    between atoms: S_1  and  N_18
REMARK    3  A    between atoms: C_7  and  C_10
REMARK    4  A    between atoms: C_15  and  O_16
REMARK    5  A    between atoms: N_18  and  C_20
REMARK    6  A    between atoms: C_20  and  C_21
REMARK    7  A    between atoms: C_20  and  P_24
REMARK    8  A    between atoms: P_24  and  O_26
REMARK    9  A    between atoms: P_24  and  O_28
REMARK                            x       y       z     vdW  Elec       q    Type
REMARK                         _______ _______ _______ _____ _____    ______ ____
ROOT
ATOM      1  S   UNL     1      33.955 -23.419 -17.696  0.00  0.00    +0.061 S 
ATOM      2  O   UNL     1      35.164 -23.447 -16.894  0.00  0.00    -0.153 OA
ATOM      3  O   UNL     1      33.557 -24.594 -18.449  0.00  0.00    -0.153 OA
ENDROOT
BRANCH   1   4
ATOM      4  C   UNL     1      34.109 -22.099 -18.860  0.00  0.00    +0.122 C 
ATOM      5  C   UNL     1      32.968 -21.462 -19.316  0.00  0.00    +0.020 C 
ATOM      6  C   UNL     1      35.370 -21.725 -19.296  0.00  0.00    +0.020 C 
ATOM      7  C   UNL     1      34.350 -20.031 -20.685  0.00  0.00    +0.000 C 
ATOM      8  C   UNL     1      33.089 -20.421 -20.236  0.00  0.00    +0.001 C 
ATOM      9  C   UNL     1      35.491 -20.683 -20.215  0.00  0.00    +0.001 C 
BRANCH   7  10
ATOM     10  C   UNL     1      34.477 -18.950 -21.638  0.00  0.00    +0.000 C 
ATOM     11  C   UNL     1      34.335 -17.628 -21.217  0.00  0.00    +0.003 C 
ATOM     12  C   UNL     1      34.742 -19.230 -22.979  0.00  0.00    +0.003 C 
ATOM     13  C   UNL     1      34.457 -16.586 -22.137  0.00  0.00    +0.037 C 
ATOM     14  C   UNL     1      34.864 -18.188 -23.898  0.00  0.00    +0.037 C 
ATOM     15  C   UNL     1      34.722 -16.866 -23.478  0.00  0.00    +0.139 C 
BRANCH  15  16
ATOM     16  O   UNL     1      34.839 -15.849 -24.375  0.00  0.00    -0.471 OA
ATOM     17  C   UNL     1      33.746 -15.642 -25.267  0.00  0.00    +0.252 C 
ENDBRANCH  15  16
ENDBRANCH   7  10
ENDBRANCH   1   4
BRANCH   1  18
ATOM     18  N   UNL     1      32.645 -22.901 -16.746  0.00  0.00    -0.169 NA
ATOM     19  H   UNL     1      31.925 -22.596 -17.400  0.00  0.00    +0.149 HD
BRANCH  18  20
ATOM     20  C   UNL     1      31.970 -23.787 -15.775  0.00  0.00    +0.179 C 
BRANCH  20  21
ATOM     21  C   UNL     1      30.511 -23.335 -15.545  0.00  0.00    +0.028 C 
ATOM     22  C   UNL     1      29.904 -22.570 -16.723  0.00  0.00    +0.002 C 
ATOM     23  C   UNL     1      29.605 -24.509 -15.169  0.00  0.00    +0.002 C 
ENDBRANCH  20  21
BRANCH  20  24
ATOM     24  P   UNL     1      33.000 -23.773 -14.300  0.00  0.00    +0.352 P 
ATOM     25  O   UNL     1      32.265 -23.662 -12.998  0.00  0.00    -0.257 OA
BRANCH  24  26
ATOM     26  O   UNL     1      34.059 -22.584 -14.578  0.00  0.00    -0.323 OA
ATOM     27  H   UNL     1      34.959 -22.944 -14.569  0.00  0.00    +0.220 HD
ENDBRANCH  24  26
BRANCH  24  28
ATOM     28  O   UNL     1      33.912 -25.098 -14.458  0.00  0.00    -0.323 OA
ATOM     29  H   UNL     1      34.083 -25.264 -15.398  0.00  0.00    +0.220 HD
ENDBRANCH  24  28
ENDBRANCH  20  24
ENDBRANCH  18  20
ENDBRANCH   1  18
TORSDOF 9
ENDMDL
MODEL 2
REMARK VINA RESULT:      -9.9      3.624      4.688
REMARK  Name = 6540261
REMARK  9 active torsions:
REMARK  status: ('A' for Active; 'I' for Inactive)
REMARK    1  A    between atoms: S_1  and  C_4
REMARK    2  A    between atoms: S_1  and  N_18
REMARK    3  A    between atoms: C_7  and  C_10
REMARK    4  A    between atoms: C_15  and  O_16
REMARK    5  A    between atoms: N_18  and  C_20
REMARK    6  A    between atoms: C_20  and  C_21
REMARK    7  A    between atoms: C_20  and  P_24
REMARK    8  A    between atoms: P_24  and  O_26
REMARK    9  A    between atoms: P_24  and  O_28
REMARK                            x       y       z     vdW  Elec       q    Type
REMARK                         _______ _______ _______ _____ _____    ______ ____
ROOT
ATOM      1  S   UNL     1      34.958 -24.631 -15.127  0.00  0.00    +0.061 S 
ATOM      2  O   UNL     1      35.310 -25.944 -15.634  0.00  0.00    -0.153 OA
ATOM      3  O   UNL     1      33.727 -24.446 -14.382  0.00  0.00    -0.153 OA
ENDROOT
BRANCH   1   4
ATOM      4  C   UNL     1      34.890 -23.523 -16.501  0.00  0.00    +0.122 C 
ATOM      5  C   UNL     1      35.985 -22.722 -16.780  0.00  0.00    +0.020 C 
ATOM      6  C   UNL     1      33.743 -23.473 -17.275  0.00  0.00    +0.020 C 
ATOM      7  C   UNL     1      34.784 -21.784 -18.654  0.00  0.00    +0.000 C 
ATOM      8  C   UNL     1      35.931 -21.846 -17.864  0.00  0.00    +0.001 C 
ATOM      9  C   UNL     1      33.690 -22.598 -18.360  0.00  0.00    +0.001 C 
BRANCH   7  10
ATOM     10  C   UNL     1      34.728 -20.876 -19.779  0.00  0.00    +0.000 C 
ATOM     11  C   UNL     1      33.494 -20.488 -20.302  0.00  0.00    +0.003 C 
ATOM     12  C   UNL     1      35.908 -20.388 -20.341  0.00  0.00    +0.003 C 
ATOM     13  C   UNL     1      33.440 -19.613 -21.386  0.00  0.00    +0.037 C 
ATOM     14  C   UNL     1      35.854 -19.513 -21.425  0.00  0.00    +0.037 C 
ATOM     15  C   UNL     1      34.621 -19.125 -21.949  0.00  0.00    +0.139 C 
BRANCH  15  16
ATOM     16  O   UNL     1      34.568 -18.272 -23.008  0.00  0.00    -0.471 OA
ATOM     17  C   UNL     1      34.615 -18.852 -24.311  0.00  0.00    +0.252 C 
ENDBRANCH  15  16
ENDBRANCH   7  10
ENDBRANCH   1   4
BRANCH   1  18
ATOM     18  N   UNL     1      36.250 -23.997 -14.225  0.00  0.00    -0.169 NA
ATOM     19  H   UNL     1      35.840 -23.319 -13.583  0.00  0.00    +0.149 HD
BRANCH  18  20
ATOM     20  C   UNL     1      37.144 -24.847 -13.412  0.00  0.00    +0.179 C 
BRANCH  20  21
ATOM     21  C   UNL     1      37.330 -24.252 -11.999  0.00  0.00    +0.028 C 
ATOM     22  C   UNL     1      37.787 -22.791 -11.995  0.00  0.00    +0.002 C 
ATOM     23  C   UNL     1      36.066 -24.400 -11.149  0.00  0.00    +0.002 C 
ENDBRANCH  20  21
BRANCH  20  24
ATOM     24  P   UNL     1      38.663 -25.011 -14.361  0.00  0.00    +0.352 P 
ATOM     25  O   UNL     1      39.925 -25.092 -13.555  0.00  0.00    -0.257 OA
BRANCH  24  26
ATOM     26  O   UNL     1      38.607 -23.773 -15.399  0.00  0.00    -0.323 OA
ATOM     27  H   UNL     1      39.506 -23.453 -15.570  0.00  0.00    +0.220 HD
ENDBRANCH  24  26
BRANCH  24  28
ATOM     28  O   UNL     1      38.381 -26.283 -15.318  0.00  0.00    -0.323 OA
ATOM     29  H   UNL     1      39.163 -26.457 -15.865  0.00  0.00    +0.220 HD
ENDBRANCH  24  28
ENDBRANCH  20  24
ENDBRANCH  18  20
ENDBRANCH   1  18
TORSDOF 9
ENDMDL
MODEL 3
REMARK VINA RESULT:      -9.4      4.469      9.370
REMARK  Name = 6540261
REMARK  9 active torsions:
REMARK  status: ('A' for Active; 'I' for Inactive)
REMARK    1  A    between atoms: S_1  and  C_4
REMARK    2  A    between atoms: S_1  and  N_18
REMARK    3  A    between atoms: C_7  and  C_10
REMARK    4  A    between atoms: C_15  and  O_16
REMARK    5  A    between atoms: N_18  and  C_20
REMARK    6  A    between atoms: C_20  and  C_21
REMARK    7  A    between atoms: C_20  and  P_24
REMARK    8  A    between atoms: P_24  and  O_26
REMARK    9  A    between atoms: P_24  and  O_28
REMARK                            x       y       z     vdW  Elec       q    Type
REMARK                         _______ _______ _______ _____ _____    ______ ____
ROOT
ATOM      1  S   UNL     1      34.779 -16.933 -23.987  0.00  0.00    +0.061 S 
ATOM      2  O   UNL     1      34.303 -17.600 -25.183  0.00  0.00    -0.153 OA
ATOM      3  O   UNL     1      36.066 -16.262 -23.993  0.00  0.00    -0.153 OA
ENDROOT
BRANCH   1   4
ATOM      4  C   UNL     1      34.837 -18.129 -22.688  0.00  0.00    +0.122 C 
ATOM      5  C   UNL     1      33.690 -18.830 -22.362  0.00  0.00    +0.020 C 
ATOM      6  C   UNL     1      36.031 -18.344 -22.018  0.00  0.00    +0.020 C 
ATOM      7  C   UNL     1      34.928 -20.003 -20.652  0.00  0.00    +0.000 C 
ATOM      8  C   UNL     1      33.735 -19.774 -21.336  0.00  0.00    +0.001 C 
ATOM      9  C   UNL     1      36.077 -19.288 -20.994  0.00  0.00    +0.001 C 
BRANCH   7  10
ATOM     10  C   UNL     1      34.976 -20.983 -19.588  0.00  0.00    +0.000 C 
ATOM     11  C   UNL     1      33.834 -21.714 -19.260  0.00  0.00    +0.003 C 
ATOM     12  C   UNL     1      36.166 -21.197 -18.890  0.00  0.00    +0.003 C 
ATOM     13  C   UNL     1      33.881 -22.657 -18.234  0.00  0.00    +0.037 C 
ATOM     14  C   UNL     1      36.212 -22.141 -17.865  0.00  0.00    +0.037 C 
ATOM     15  C   UNL     1      35.071 -22.871 -17.536  0.00  0.00    +0.139 C 
BRANCH  15  16
ATOM     16  O   UNL     1      35.115 -23.792 -16.535  0.00  0.00    -0.471 OA
ATOM     17  C   UNL     1      35.970 -23.506 -15.429  0.00  0.00    +0.252 C 
ENDBRANCH  15  16
ENDBRANCH   7  10
ENDBRANCH   1   4
BRANCH   1  18
ATOM     18  N   UNL     1      33.596 -15.853 -23.420  0.00  0.00    -0.169 NA
ATOM     19  H   UNL     1      32.976 -16.401 -22.824  0.00  0.00    +0.149 HD
BRANCH  18  20
ATOM     20  C   UNL     1      33.934 -14.636 -22.653  0.00  0.00    +0.179 C 
BRANCH  20  21
ATOM     21  C   UNL     1      33.557 -14.804 -21.165  0.00  0.00    +0.028 C 
ATOM     22  C   UNL     1      32.326 -15.682 -20.931  0.00  0.00    +0.002 C 
ATOM     23  C   UNL     1      34.732 -15.330 -20.336  0.00  0.00    +0.002 C 
ENDBRANCH  20  21
BRANCH  20  24
ATOM     24  P   UNL     1      33.098 -13.281 -23.489  0.00  0.00    +0.352 P 
ATOM     25  O   UNL     1      31.964 -12.656 -22.734  0.00  0.00    -0.257 OA
BRANCH  24  26
ATOM     26  O   UNL     1      32.688 -13.905 -24.923  0.00  0.00    -0.323 OA
ATOM     27  H   UNL     1      32.289 -13.214 -25.474  0.00  0.00    +0.220 HD
ENDBRANCH  24  26
BRANCH  24  28
ATOM     28  O   UNL     1      34.299 -12.271 -23.877  0.00  0.00    -0.323 OA
ATOM     29  H   UNL     1      34.231 -12.031 -24.814  0.00  0.00    +0.220 HD
ENDBRANCH  24  28
ENDBRANCH  20  24
ENDBRANCH  18  20
ENDBRANCH   1  18
TORSDOF 9
ENDMDL
MODEL 4
REMARK VINA RESULT:      -9.2      4.822      9.944
REMARK  Name = 6540261
REMARK  9 active torsions:
REMARK  status: ('A' for Active; 'I' for Inactive)
REMARK    1  A    between atoms: S_1  and  C_4
REMARK    2  A    between atoms: S_1  and  N_18
REMARK    3  A    between atoms: C_7  and  C_10
REMARK    4  A    between atoms: C_15  and  O_16
REMARK    5  A    between atoms: N_18  and  C_20
REMARK    6  A    between atoms: C_20  and  C_21
REMARK    7  A    between atoms: C_20  and  P_24
REMARK    8  A    between atoms: P_24  and  O_26
REMARK    9  A    between atoms: P_24  and  O_28
REMARK                            x       y       z     vdW  Elec       q    Type
REMARK                         _______ _______ _______ _____ _____    ______ ____
ROOT
ATOM      1  S   UNL     1      34.330 -16.376 -25.279  0.00  0.00    +0.061 S 
ATOM      2  O   UNL     1      33.056 -16.662 -25.910  0.00  0.00    -0.153 OA
ATOM      3  O   UNL     1      35.556 -16.443 -26.052  0.00  0.00    -0.153 OA
ENDROOT
BRANCH   1   4
ATOM      4  C   UNL     1      34.524 -17.495 -23.925  0.00  0.00    +0.122 C 
ATOM      5  C   UNL     1      34.575 -18.856 -24.174  0.00  0.00    +0.020 C 
ATOM      6  C   UNL     1      34.622 -16.991 -22.639  0.00  0.00    +0.020 C 
ATOM      7  C   UNL     1      34.827 -19.250 -21.805  0.00  0.00    +0.000 C 
ATOM      8  C   UNL     1      34.727 -19.740 -23.106  0.00  0.00    +0.001 C 
ATOM      9  C   UNL     1      34.775 -17.875 -21.571  0.00  0.00    +0.001 C 
BRANCH   7  10
ATOM     10  C   UNL     1      34.986 -20.166 -20.696  0.00  0.00    +0.000 C 
ATOM     11  C   UNL     1      36.258 -20.433 -20.188  0.00  0.00    +0.003 C 
ATOM     12  C   UNL     1      33.867 -20.782 -20.134  0.00  0.00    +0.003 C 
ATOM     13  C   UNL     1      36.410 -21.316 -19.119  0.00  0.00    +0.037 C 
ATOM     14  C   UNL     1      34.020 -21.664 -19.065  0.00  0.00    +0.037 C 
ATOM     15  C   UNL     1      35.291 -21.932 -18.558  0.00  0.00    +0.139 C 
BRANCH  15  16
ATOM     16  O   UNL     1      35.441 -22.795 -17.516  0.00  0.00    -0.471 OA
ATOM     17  C   UNL     1      36.386 -22.438 -16.509  0.00  0.00    +0.252 C 
ENDBRANCH  15  16
ENDBRANCH   7  10
ENDBRANCH   1   4
BRANCH   1  18
ATOM     18  N   UNL     1      34.258 -14.875 -24.487  0.00  0.00    -0.169 NA
ATOM     19  H   UNL     1      34.969 -14.290 -24.925  0.00  0.00    +0.149 HD
BRANCH  18  20
ATOM     20  C   UNL     1      33.026 -14.060 -24.441  0.00  0.00    +0.179 C 
BRANCH  20  21
ATOM     21  C   UNL     1      33.093 -12.909 -25.469  0.00  0.00    +0.028 C 
ATOM     22  C   UNL     1      34.193 -11.884 -25.184  0.00  0.00    +0.002 C 
ATOM     23  C   UNL     1      33.233 -13.432 -26.901  0.00  0.00    +0.002 C 
ENDBRANCH  20  21
BRANCH  20  24
ATOM     24  P   UNL     1      32.851 -13.529 -22.732  0.00  0.00    +0.352 P 
ATOM     25  O   UNL     1      32.146 -12.221 -22.529  0.00  0.00    -0.257 OA
BRANCH  24  26
ATOM     26  O   UNL     1      34.361 -13.574 -22.157  0.00  0.00    -0.323 OA
ATOM     27  H   UNL     1      34.570 -14.475 -21.865  0.00  0.00    +0.220 HD
ENDBRANCH  24  26
BRANCH  24  28
ATOM     28  O   UNL     1      32.162 -14.797 -22.006  0.00  0.00    -0.323 OA
ATOM     29  H   UNL     1      32.782 -15.542 -21.996  0.00  0.00    +0.220 HD
ENDBRANCH  24  28
ENDBRANCH  20  24
ENDBRANCH  18  20
ENDBRANCH   1  18
TORSDOF 9
ENDMDL
MODEL 5
REMARK VINA RESULT:      -9.2      3.429      4.627
REMARK  Name = 6540261
REMARK  9 active torsions:
REMARK  status: ('A' for Active; 'I' for Inactive)
REMARK    1  A    between atoms: S_1  and  C_4
REMARK    2  A    between atoms: S_1  and  N_18
REMARK    3  A    between atoms: C_7  and  C_10
REMARK    4  A    between atoms: C_15  and  O_16
REMARK    5  A    between atoms: N_18  and  C_20
REMARK    6  A    between atoms: C_20  and  C_21
REMARK    7  A    between atoms: C_20  and  P_24
REMARK    8  A    between atoms: P_24  and  O_26
REMARK    9  A    between atoms: P_24  and  O_28
REMARK                            x       y       z     vdW  Elec       q    Type
REMARK                         _______ _______ _______ _____ _____    ______ ____
ROOT
ATOM      1  S   UNL     1      35.049 -24.448 -15.051  0.00  0.00    +0.061 S 
ATOM      2  O   UNL     1      35.786 -25.633 -15.446  0.00  0.00    -0.153 OA
ATOM      3  O   UNL     1      33.713 -24.573 -14.501  0.00  0.00    -0.153 OA
ENDROOT
BRANCH   1   4
ATOM      4  C   UNL     1      34.918 -23.397 -16.465  0.00  0.00    +0.122 C 
ATOM      5  C   UNL     1      35.992 -22.597 -16.816  0.00  0.00    +0.020 C 
ATOM      6  C   UNL     1      33.743 -23.391 -17.198  0.00  0.00    +0.020 C 
ATOM      7  C   UNL     1      34.713 -21.749 -18.681  0.00  0.00    +0.000 C 
ATOM      8  C   UNL     1      35.889 -21.766 -17.932  0.00  0.00    +0.001 C 
ATOM      9  C   UNL     1      33.640 -22.562 -18.314  0.00  0.00    +0.001 C 
BRANCH   7  10
ATOM     10  C   UNL     1      34.605 -20.888 -19.839  0.00  0.00    +0.000 C 
ATOM     11  C   UNL     1      35.756 -20.467 -20.505  0.00  0.00    +0.003 C 
ATOM     12  C   UNL     1      33.350 -20.479 -20.290  0.00  0.00    +0.003 C 
ATOM     13  C   UNL     1      35.652 -19.637 -21.621  0.00  0.00    +0.037 C 
ATOM     14  C   UNL     1      33.246 -19.650 -21.406  0.00  0.00    +0.037 C 
ATOM     15  C   UNL     1      34.396 -19.228 -22.072  0.00  0.00    +0.139 C 
BRANCH  15  16
ATOM     16  O   UNL     1      34.295 -18.418 -23.160  0.00  0.00    -0.471 OA
ATOM     17  C   UNL     1      34.616 -18.990 -24.428  0.00  0.00    +0.252 C 
ENDBRANCH  15  16
ENDBRANCH   7  10
ENDBRANCH   1   4
BRANCH   1  18
ATOM     18  N   UNL     1      35.994 -23.507 -13.998  0.00  0.00    -0.169 NA
ATOM     19  H   UNL     1      35.360 -23.169 -13.275  0.00  0.00    +0.149 HD
BRANCH  18  20
ATOM     20  C   UNL     1      37.174 -24.048 -13.292  0.00  0.00    +0.179 C 
BRANCH  20  21
ATOM     21  C   UNL     1      38.115 -24.775 -14.277  0.00  0.00    +0.028 C 
ATOM     22  C   UNL     1      38.657 -23.880 -15.395  0.00  0.00    +0.002 C 
ATOM     23  C   UNL     1      39.278 -25.459 -13.554  0.00  0.00    +0.002 C 
ENDBRANCH  20  21
BRANCH  20  24
ATOM     24  P   UNL     1      36.524 -25.084 -11.974  0.00  0.00    +0.352 P 
ATOM     25  O   UNL     1      36.922 -26.529 -12.030  0.00  0.00    -0.257 OA
BRANCH  24  26
ATOM     26  O   UNL     1      34.930 -24.824 -12.026  0.00  0.00    -0.323 OA
ATOM     27  H   UNL     1      34.760 -23.876 -12.144  0.00  0.00    +0.220 HD
ENDBRANCH  24  26
BRANCH  24  28
ATOM     28  O   UNL     1      36.962 -24.308 -10.626  0.00  0.00    -0.323 OA
ATOM     29  H   UNL     1      37.133 -24.952  -9.921  0.00  0.00    +0.220 HD
ENDBRANCH  24  28
ENDBRANCH  20  24
ENDBRANCH  18  20
ENDBRANCH   1  18
TORSDOF 9
ENDMDL
MODEL 6
REMARK VINA RESULT:      -9.0      1.178      1.991
REMARK  Name = 6540261
REMARK  9 active torsions:
REMARK  status: ('A' for Active; 'I' for Inactive)
REMARK    1  A    between atoms: S_1  and  C_4
REMARK    2  A    between atoms: S_1  and  N_18
REMARK    3  A    between atoms: C_7  and  C_10
REMARK    4  A    between atoms: C_15  and  O_16
REMARK    5  A    between atoms: N_18  and  C_20
REMARK    6  A    between atoms: C_20  and  C_21
REMARK    7  A    between atoms: C_20  and  P_24
REMARK    8  A    between atoms: P_24  and  O_26
REMARK    9  A    between atoms: P_24  and  O_28
REMARK                            x       y       z     vdW  Elec       q    Type
REMARK                         _______ _______ _______ _____ _____    ______ ____
ROOT
ATOM      1  S   UNL     1      34.373 -22.892 -18.564  0.00  0.00    +0.061 S 
ATOM      2  O   UNL     1      35.638 -22.933 -17.857  0.00  0.00    -0.153 OA
ATOM      3  O   UNL     1      34.002 -23.978 -19.453  0.00  0.00    -0.153 OA
ENDROOT
BRANCH   1   4
ATOM      4  C   UNL     1      34.342 -21.414 -19.531  0.00  0.00    +0.122 C 
ATOM      5  C   UNL     1      35.537 -20.855 -19.952  0.00  0.00    +0.020 C 
ATOM      6  C   UNL     1      33.123 -20.840 -19.851  0.00  0.00    +0.020 C 
ATOM      7  C   UNL     1      34.294 -19.096 -21.046  0.00  0.00    +0.000 C 
ATOM      8  C   UNL     1      35.512 -19.687 -20.714  0.00  0.00    +0.001 C 
ATOM      9  C   UNL     1      33.099 -19.673 -20.615  0.00  0.00    +0.001 C 
BRANCH   7  10
ATOM     10  C   UNL     1      34.268 -17.886 -21.837  0.00  0.00    +0.000 C 
ATOM     11  C   UNL     1      34.708 -17.908 -23.161  0.00  0.00    +0.003 C 
ATOM     12  C   UNL     1      33.803 -16.695 -21.277  0.00  0.00    +0.003 C 
ATOM     13  C   UNL     1      34.683 -16.740 -23.923  0.00  0.00    +0.037 C 
ATOM     14  C   UNL     1      33.778 -15.528 -22.040  0.00  0.00    +0.037 C 
ATOM     15  C   UNL     1      34.218 -15.550 -23.363  0.00  0.00    +0.139 C 
BRANCH  15  16
ATOM     16  O   UNL     1      34.195 -14.411 -24.107  0.00  0.00    -0.471 OA
ATOM     17  C   UNL     1      33.732 -13.225 -23.463  0.00  0.00    +0.252 C 
ENDBRANCH  15  16
ENDBRANCH   7  10
ENDBRANCH   1   4
BRANCH   1  18
ATOM     18  N   UNL     1      33.106 -22.621 -17.465  0.00  0.00    -0.169 NA
ATOM     19  H   UNL     1      32.281 -22.420 -18.028  0.00  0.00    +0.149 HD
BRANCH  18  20
ATOM     20  C   UNL     1      32.690 -23.631 -16.469  0.00  0.00    +0.179 C 
BRANCH  20  21
ATOM     21  C   UNL     1      31.292 -23.297 -15.904  0.00  0.00    +0.028 C 
ATOM     22  C   UNL     1      30.447 -22.408 -16.820  0.00  0.00    +0.002 C 
ATOM     23  C   UNL     1      30.507 -24.561 -15.544  0.00  0.00    +0.002 C 
ENDBRANCH  20  21
BRANCH  20  24
ATOM     24  P   UNL     1      34.002 -23.680 -15.241  0.00  0.00    +0.352 P 
ATOM     25  O   UNL     1      34.690 -22.375 -14.975  0.00  0.00    -0.257 OA
BRANCH  24  26
ATOM     26  O   UNL     1      34.976 -24.860 -15.762  0.00  0.00    -0.323 OA
ATOM     27  H   UNL     1      35.266 -24.664 -16.666  0.00  0.00    +0.220 HD
ENDBRANCH  24  26
BRANCH  24  28
ATOM     28  O   UNL     1      33.295 -24.353 -13.953  0.00  0.00    -0.323 OA
ATOM     29  H   UNL     1      32.332 -24.343 -14.068  0.00  0.00    +0.220 HD
ENDBRANCH  24  28
ENDBRANCH  20  24
ENDBRANCH  18  20
ENDBRANCH   1  18
TORSDOF 9
ENDMDL
MODEL 7
REMARK VINA RESULT:      -8.9      1.927      2.432
REMARK  Name = 6540261
REMARK  9 active torsions:
REMARK  status: ('A' for Active; 'I' for Inactive)
REMARK    1  A    between atoms: S_1  and  C_4
REMARK    2  A    between atoms: S_1  and  N_18
REMARK    3  A    between atoms: C_7  and  C_10
REMARK    4  A    between atoms: C_15  and  O_16
REMARK    5  A    between atoms: N_18  and  C_20
REMARK    6  A    between atoms: C_20  and  C_21
REMARK    7  A    between atoms: C_20  and  P_24
REMARK    8  A    between atoms: P_24  and  O_26
REMARK    9  A    between atoms: P_24  and  O_28
REMARK                            x       y       z     vdW  Elec       q    Type
REMARK                         _______ _______ _______ _____ _____    ______ ____
ROOT
ATOM      1  S   UNL     1      33.463 -23.287 -17.697  0.00  0.00    +0.061 S 
ATOM      2  O   UNL     1      34.228 -22.980 -16.504  0.00  0.00    -0.153 OA
ATOM      3  O   UNL     1      33.691 -24.533 -18.405  0.00  0.00    -0.153 OA
ENDROOT
BRANCH   1   4
ATOM      4  C   UNL     1      33.733 -21.986 -18.861  0.00  0.00    +0.122 C 
ATOM      5  C   UNL     1      32.648 -21.280 -19.351  0.00  0.00    +0.020 C 
ATOM      6  C   UNL     1      35.027 -21.696 -19.264  0.00  0.00    +0.020 C 
ATOM      7  C   UNL     1      34.157 -19.947 -20.687  0.00  0.00    +0.000 C 
ATOM      8  C   UNL     1      32.861 -20.253 -20.272  0.00  0.00    +0.001 C 
ATOM      9  C   UNL     1      35.239 -20.668 -20.183  0.00  0.00    +0.001 C 
BRANCH   7  10
ATOM     10  C   UNL     1      34.378 -18.882 -21.640  0.00  0.00    +0.000 C 
ATOM     11  C   UNL     1      34.718 -19.185 -22.959  0.00  0.00    +0.003 C 
ATOM     12  C   UNL     1      34.251 -17.551 -21.241  0.00  0.00    +0.003 C 
ATOM     13  C   UNL     1      34.932 -18.158 -23.878  0.00  0.00    +0.037 C 
ATOM     14  C   UNL     1      34.465 -16.524 -22.161  0.00  0.00    +0.037 C 
ATOM     15  C   UNL     1      34.806 -16.827 -23.479  0.00  0.00    +0.139 C 
BRANCH  15  16
ATOM     16  O   UNL     1      35.015 -15.825 -24.376  0.00  0.00    -0.471 OA
ATOM     17  C   UNL     1      34.027 -14.799 -24.445  0.00  0.00    +0.252 C 
ENDBRANCH  15  16
ENDBRANCH   7  10
ENDBRANCH   1   4
BRANCH   1  18
ATOM     18  N   UNL     1      31.803 -23.132 -17.373  0.00  0.00    -0.169 NA
ATOM     19  H   UNL     1      31.375 -24.012 -17.660  0.00  0.00    +0.149 HD
BRANCH  18  20
ATOM     20  C   UNL     1      31.281 -22.841 -16.022  0.00  0.00    +0.179 C 
BRANCH  20  21
ATOM     21  C   UNL     1      32.001 -23.703 -14.961  0.00  0.00    +0.028 C 
ATOM     22  C   UNL     1      32.233 -22.984 -13.630  0.00  0.00    +0.002 C 
ATOM     23  C   UNL     1      31.273 -25.027 -14.714  0.00  0.00    +0.002 C 
ENDBRANCH  20  21
BRANCH  20  24
ATOM     24  P   UNL     1      29.504 -23.099 -16.115  0.00  0.00    +0.352 P 
ATOM     25  O   UNL     1      29.062 -24.525 -16.256  0.00  0.00    -0.257 OA
BRANCH  24  26
ATOM     26  O   UNL     1      29.035 -22.128 -17.320  0.00  0.00    -0.323 OA
ATOM     27  H   UNL     1      28.809 -22.662 -18.097  0.00  0.00    +0.220 HD
ENDBRANCH  24  26
BRANCH  24  28
ATOM     28  O   UNL     1      28.937 -22.334 -14.809  0.00  0.00    -0.323 OA
ATOM     29  H   UNL     1      29.140 -22.853 -14.015  0.00  0.00    +0.220 HD
ENDBRANCH  24  28
ENDBRANCH  20  24
ENDBRANCH  18  20
ENDBRANCH   1  18
TORSDOF 9
ENDMDL
MODEL 8
REMARK VINA RESULT:      -8.5      5.641     10.601
REMARK  Name = 6540261
REMARK  9 active torsions:
REMARK  status: ('A' for Active; 'I' for Inactive)
REMARK    1  A    between atoms: S_1  and  C_4
REMARK    2  A    between atoms: S_1  and  N_18
REMARK    3  A    between atoms: C_7  and  C_10
REMARK    4  A    between atoms: C_15  and  O_16
REMARK    5  A    between atoms: N_18  and  C_20
REMARK    6  A    between atoms: C_20  and  C_21
REMARK    7  A    between atoms: C_20  and  P_24
REMARK    8  A    between atoms: P_24  and  O_26
REMARK    9  A    between atoms: P_24  and  O_28
REMARK                            x       y       z     vdW  Elec       q    Type
REMARK                         _______ _______ _______ _____ _____    ______ ____
ROOT
ATOM      1  S   UNL     1      33.251 -13.577 -24.162  0.00  0.00    +0.061 S 
ATOM      2  O   UNL     1      31.878 -13.748 -24.597  0.00  0.00    -0.153 OA
ATOM      3  O   UNL     1      34.292 -13.299 -25.133  0.00  0.00    -0.153 OA
ENDROOT
BRANCH   1   4
ATOM      4  C   UNL     1      33.734 -15.048 -23.310  0.00  0.00    +0.122 C 
ATOM      5  C   UNL     1      34.456 -16.015 -23.986  0.00  0.00    +0.020 C 
ATOM      6  C   UNL     1      33.381 -15.206 -21.979  0.00  0.00    +0.020 C 
ATOM      7  C   UNL     1      34.491 -17.353 -21.975  0.00  0.00    +0.000 C 
ATOM      8  C   UNL     1      34.837 -17.177 -23.314  0.00  0.00    +0.001 C 
ATOM      9  C   UNL     1      33.763 -16.367 -21.307  0.00  0.00    +0.001 C 
BRANCH   7  10
ATOM     10  C   UNL     1      34.886 -18.557 -21.277  0.00  0.00    +0.000 C 
ATOM     11  C   UNL     1      33.918 -19.469 -20.856  0.00  0.00    +0.003 C 
ATOM     12  C   UNL     1      36.235 -18.806 -21.025  0.00  0.00    +0.003 C 
ATOM     13  C   UNL     1      34.299 -20.629 -20.182  0.00  0.00    +0.037 C 
ATOM     14  C   UNL     1      36.616 -19.967 -20.352  0.00  0.00    +0.037 C 
ATOM     15  C   UNL     1      35.649 -20.879 -19.931  0.00  0.00    +0.139 C 
BRANCH  15  16
ATOM     16  O   UNL     1      36.020 -22.011 -19.273  0.00  0.00    -0.471 OA
ATOM     17  C   UNL     1      36.553 -21.852 -17.959  0.00  0.00    +0.252 C 
ENDBRANCH  15  16
ENDBRANCH   7  10
ENDBRANCH   1   4
BRANCH   1  18
ATOM     18  N   UNL     1      33.323 -12.413 -22.926  0.00  0.00    -0.169 NA
ATOM     19  H   UNL     1      34.231 -11.958 -23.020  0.00  0.00    +0.149 HD
BRANCH  18  20
ATOM     20  C   UNL     1      32.329 -11.328 -22.798  0.00  0.00    +0.179 C 
BRANCH  20  21
ATOM     21  C   UNL     1      32.980  -9.955 -23.070  0.00  0.00    +0.028 C 
ATOM     22  C   UNL     1      34.213 -10.019 -23.975  0.00  0.00    +0.002 C 
ATOM     23  C   UNL     1      31.974  -8.951 -23.638  0.00  0.00    +0.002 C 
ENDBRANCH  20  21
BRANCH  20  24
ATOM     24  P   UNL     1      31.615 -11.507 -21.157  0.00  0.00    +0.352 P 
ATOM     25  O   UNL     1      32.115 -12.672 -20.357  0.00  0.00    -0.257 OA
BRANCH  24  26
ATOM     26  O   UNL     1      30.021 -11.511 -21.427  0.00  0.00    -0.323 OA
ATOM     27  H   UNL     1      29.758 -10.668 -21.826  0.00  0.00    +0.220 HD
ENDBRANCH  24  26
BRANCH  24  28
ATOM     28  O   UNL     1      31.851 -10.060 -20.477  0.00  0.00    -0.323 OA
ATOM     29  H   UNL     1      32.777  -9.794 -20.593  0.00  0.00    +0.220 HD
ENDBRANCH  24  28
ENDBRANCH  20  24
ENDBRANCH  18  20
ENDBRANCH   1  18
TORSDOF 9
ENDMDL
MODEL 9
REMARK VINA RESULT:      -8.5      9.233     14.064
REMARK  Name = 6540261
REMARK  9 active torsions:
REMARK  status: ('A' for Active; 'I' for Inactive)
REMARK    1  A    between atoms: S_1  and  C_4
REMARK    2  A    between atoms: S_1  and  N_18
REMARK    3  A    between atoms: C_7  and  C_10
REMARK    4  A    between atoms: C_15  and  O_16
REMARK    5  A    between atoms: N_18  and  C_20
REMARK    6  A    between atoms: C_20  and  C_21
REMARK    7  A    between atoms: C_20  and  P_24
REMARK    8  A    between atoms: P_24  and  O_26
REMARK    9  A    between atoms: P_24  and  O_28
REMARK                            x       y       z     vdW  Elec       q    Type
REMARK                         _______ _______ _______ _____ _____    ______ ____
ROOT
ATOM      1  S   UNL     1      31.625  -8.584 -22.334  0.00  0.00    +0.061 S 
ATOM      2  O   UNL     1      31.735  -8.456 -20.893  0.00  0.00    -0.153 OA
ATOM      3  O   UNL     1      30.336  -8.424 -22.980  0.00  0.00    -0.153 OA
ENDROOT
BRANCH   1   4
ATOM      4  C   UNL     1      32.220 -10.186 -22.780  0.00  0.00    +0.122 C 
ATOM      5  C   UNL     1      31.692 -11.303 -22.155  0.00  0.00    +0.020 C 
ATOM      6  C   UNL     1      33.205 -10.297 -23.748  0.00  0.00    +0.020 C 
ATOM      7  C   UNL     1      33.154 -12.698 -23.480  0.00  0.00    +0.000 C 
ATOM      8  C   UNL     1      32.163 -12.568 -22.507  0.00  0.00    +0.001 C 
ATOM      9  C   UNL     1      33.675 -11.562 -24.101  0.00  0.00    +0.001 C 
BRANCH   7  10
ATOM     10  C   UNL     1      33.642 -14.009 -23.845  0.00  0.00    +0.000 C 
ATOM     11  C   UNL     1      34.467 -14.716 -22.970  0.00  0.00    +0.003 C 
ATOM     12  C   UNL     1      33.287 -14.568 -25.074  0.00  0.00    +0.003 C 
ATOM     13  C   UNL     1      34.938 -15.980 -23.324  0.00  0.00    +0.037 C 
ATOM     14  C   UNL     1      33.757 -15.833 -25.426  0.00  0.00    +0.037 C 
ATOM     15  C   UNL     1      34.583 -16.540 -24.552  0.00  0.00    +0.139 C 
BRANCH  15  16
ATOM     16  O   UNL     1      35.043 -17.773 -24.896  0.00  0.00    -0.471 OA
ATOM     17  C   UNL     1      34.994 -18.787 -23.894  0.00  0.00    +0.252 C 
ENDBRANCH  15  16
ENDBRANCH   7  10
ENDBRANCH   1   4
BRANCH   1  18
ATOM     18  N   UNL     1      32.753  -7.564 -23.091  0.00  0.00    -0.169 NA
ATOM     19  H   UNL     1      33.326  -8.167 -23.682  0.00  0.00    +0.149 HD
BRANCH  18  20
ATOM     20  C   UNL     1      32.348  -6.422 -23.937  0.00  0.00    +0.179 C 
BRANCH  20  21
ATOM     21  C   UNL     1      33.544  -5.904 -24.765  0.00  0.00    +0.028 C 
ATOM     22  C   UNL     1      34.667  -6.929 -24.945  0.00  0.00    +0.002 C 
ATOM     23  C   UNL     1      33.103  -5.375 -26.132  0.00  0.00    +0.002 C 
ENDBRANCH  20  21
BRANCH  20  24
ATOM     24  P   UNL     1      31.632  -5.211 -22.817  0.00  0.00    +0.352 P 
ATOM     25  O   UNL     1      31.776  -3.778 -23.234  0.00  0.00    -0.257 OA
BRANCH  24  26
ATOM     26  O   UNL     1      32.297  -5.565 -21.387  0.00  0.00    -0.323 OA
ATOM     27  H   UNL     1      32.520  -6.509 -21.358  0.00  0.00    +0.220 HD
ENDBRANCH  24  26
BRANCH  24  28
ATOM     28  O   UNL     1      30.109  -5.718 -22.629  0.00  0.00    -0.323 OA
ATOM     29  H   UNL     1      29.644  -5.128 -22.015  0.00  0.00    +0.220 HD
ENDBRANCH  24  28
ENDBRANCH  20  24
ENDBRANCH  18  20
ENDBRANCH   1  18
TORSDOF 9
ENDMDL
