MODEL 1
REMARK VINA RESULT:      -9.7      0.000      0.000
REMARK  Name = 7061800
REMARK  3 active torsions:
REMARK  status: ('A' for Active; 'I' for Inactive)
REMARK    1  A    between atoms: N_5  and  C_28
REMARK    2  A    between atoms: C_7  and  N_16
REMARK    3  A    between atoms: C_13  and  C_27
REMARK                            x       y       z     vdW  Elec       q    Type
REMARK                         _______ _______ _______ _____ _____    ______ ____
ROOT
ATOM      1  F   UNL     1      33.122 -22.883 -17.986  0.00  0.00    -0.201 F 
ATOM      2  F   UNL     1      37.598 -21.491 -18.540  0.00  0.00    -0.200 F 
ATOM      3  F   UNL     1      38.182 -22.216 -16.009  0.00  0.00    -0.202 F 
ATOM      4  O   UNL     1      37.393 -23.201 -13.797  0.00  0.00    -0.286 OA
ATOM      5  N   UNL     1      33.628 -23.693 -15.284  0.00  0.00    -0.285 N 
ATOM      6  C   UNL     1      34.619 -23.129 -16.138  0.00  0.00    +0.086 A 
ATOM      7  C   UNL     1      35.346 -22.190 -18.267  0.00  0.00    +0.107 A 
ATOM      8  C   UNL     1      34.347 -22.739 -17.460  0.00  0.00    +0.169 A 
ATOM      9  C   UNL     1      33.964 -24.053 -13.995  0.00  0.00    +0.075 C 
ATOM     10  C   UNL     1      35.932 -22.945 -15.653  0.00  0.00    +0.085 A 
ATOM     11  C   UNL     1      36.635 -22.017 -17.769  0.00  0.00    +0.183 A 
ATOM     12  C   UNL     1      36.933 -22.395 -16.462  0.00  0.00    +0.173 A 
ATOM     13  C   UNL     1      35.174 -23.923 -13.441  0.00  0.00    +0.133 C 
ATOM     14  C   UNL     1      36.268 -23.342 -14.260  0.00  0.00    +0.207 C 
ENDROOT
BRANCH   7  16
ATOM     15  N   UNL     1      34.516 -19.402 -20.923  0.00  0.00    +0.389 N 
ATOM     16  N   UNL     1      35.053 -21.810 -19.573  0.00  0.00    -0.308 N 
ATOM     17  C   UNL     1      33.472 -19.998 -20.012  0.00  0.00    -0.042 C 
ATOM     18  C   UNL     1      35.930 -19.730 -20.518  0.00  0.00    -0.042 C 
ATOM     19  C   UNL     1      33.670 -21.519 -19.973  0.00  0.00    +0.070 C 
ATOM     20  C   UNL     1      36.069 -21.253 -20.472  0.00  0.00    +0.070 C 
ATOM     21  C   UNL     1      32.100 -19.613 -20.545  0.00  0.00    -0.022 C 
ATOM     22  C   UNL     1      36.876 -19.097 -21.528  0.00  0.00    -0.022 C 
ATOM     23  H   UNL     1      34.406 -18.388 -20.917  0.00  0.00    -0.084 HD
ATOM     24  H   UNL     1      34.369 -19.803 -21.848  0.00  0.00    -0.084 HD
ENDBRANCH   7  16
BRANCH  13  27
ATOM     25  O   UNL     1      36.071 -25.411 -11.862  0.00  0.00    -0.240 OA
ATOM     26  O   UNL     1      34.814 -23.641 -11.139  0.00  0.00    -0.240 OA
ATOM     27  C   UNL     1      35.372 -24.368 -12.010  0.00  0.00    +0.392 C 
ENDBRANCH  13  27
BRANCH   5  28
ATOM     28  C   UNL     1      32.232 -23.914 -15.724  0.00  0.00    +0.077 C 
ATOM     29  C   UNL     1      31.191 -24.374 -14.759  0.00  0.00    +0.022 C 
ATOM     30  C   UNL     1      31.144 -22.979 -15.312  0.00  0.00    +0.022 C 
ENDBRANCH   5  28
TORSDOF 3
ENDMDL
MODEL 2
REMARK VINA RESULT:      -9.4      9.917     12.967
REMARK  Name = 7061800
REMARK  3 active torsions:
REMARK  status: ('A' for Active; 'I' for Inactive)
REMARK    1  A    between atoms: N_5  and  C_28
REMARK    2  A    between atoms: C_7  and  N_16
REMARK    3  A    between atoms: C_13  and  C_27
REMARK                            x       y       z     vdW  Elec       q    Type
REMARK                         _______ _______ _______ _____ _____    ______ ____
ROOT
ATOM      1  F   UNL     1      32.320 -10.927 -24.129  0.00  0.00    -0.201 F 
ATOM      2  F   UNL     1      31.483 -12.004 -19.610  0.00  0.00    -0.200 F 
ATOM      3  F   UNL     1      32.516 -14.470 -19.962  0.00  0.00    -0.202 F 
ATOM      4  O   UNL     1      33.596 -16.168 -21.523  0.00  0.00    -0.286 OA
ATOM      5  N   UNL     1      33.444 -13.517 -24.618  0.00  0.00    -0.285 N 
ATOM      6  C   UNL     1      32.936 -13.103 -23.353  0.00  0.00    +0.086 A 
ATOM      7  C   UNL     1      31.902 -11.458 -21.881  0.00  0.00    +0.107 A 
ATOM      8  C   UNL     1      32.389 -11.827 -23.137  0.00  0.00    +0.169 A 
ATOM      9  C   UNL     1      33.967 -14.787 -24.759  0.00  0.00    +0.075 C 
ATOM     10  C   UNL     1      32.974 -13.998 -22.261  0.00  0.00    +0.085 A 
ATOM     11  C   UNL     1      31.949 -12.355 -20.817  0.00  0.00    +0.183 A 
ATOM     12  C   UNL     1      32.485 -13.626 -21.003  0.00  0.00    +0.173 A 
ATOM     13  C   UNL     1      34.051 -15.707 -23.793  0.00  0.00    +0.133 C 
ATOM     14  C   UNL     1      33.543 -15.360 -22.441  0.00  0.00    +0.207 C 
ENDROOT
BRANCH   7  16
ATOM     15  N   UNL     1      32.148  -7.542 -22.230  0.00  0.00    +0.389 N 
ATOM     16  N   UNL     1      31.364 -10.188 -21.692  0.00  0.00    -0.308 N 
ATOM     17  C   UNL     1      32.807  -8.304 -21.107  0.00  0.00    -0.042 C 
ATOM     18  C   UNL     1      31.666  -8.420 -23.356  0.00  0.00    -0.042 C 
ATOM     19  C   UNL     1      31.813  -9.346 -20.576  0.00  0.00    +0.070 C 
ATOM     20  C   UNL     1      30.699  -9.452 -22.771  0.00  0.00    +0.070 C 
ATOM     21  C   UNL     1      33.221  -7.308 -20.034  0.00  0.00    -0.022 C 
ATOM     22  C   UNL     1      31.001  -7.536 -24.400  0.00  0.00    -0.022 C 
ATOM     23  H   UNL     1      32.823  -6.877 -22.606  0.00  0.00    -0.084 HD
ATOM     24  H   UNL     1      31.328  -7.082 -21.837  0.00  0.00    -0.084 HD
ENDBRANCH   7  16
BRANCH  13  27
ATOM     25  O   UNL     1      34.149 -17.638 -25.122  0.00  0.00    -0.240 OA
ATOM     26  O   UNL     1      35.583 -17.429 -23.352  0.00  0.00    -0.240 OA
ATOM     27  C   UNL     1      34.652 -17.054 -24.120  0.00  0.00    +0.392 C 
ENDBRANCH  13  27
BRANCH   5  28
ATOM     28  C   UNL     1      33.436 -12.634 -25.805  0.00  0.00    +0.077 C 
ATOM     29  C   UNL     1      34.162 -13.021 -27.050  0.00  0.00    +0.022 C 
ATOM     30  C   UNL     1      32.661 -13.002 -27.027  0.00  0.00    +0.022 C 
ENDBRANCH   5  28
TORSDOF 3
ENDMDL
MODEL 3
REMARK VINA RESULT:      -9.3     10.397     13.667
REMARK  Name = 7061800
REMARK  3 active torsions:
REMARK  status: ('A' for Active; 'I' for Inactive)
REMARK    1  A    between atoms: N_5  and  C_28
REMARK    2  A    between atoms: C_7  and  N_16
REMARK    3  A    between atoms: C_13  and  C_27
REMARK                            x       y       z     vdW  Elec       q    Type
REMARK                         _______ _______ _______ _____ _____    ______ ____
ROOT
ATOM      1  F   UNL     1      31.710 -13.036 -21.403  0.00  0.00    -0.201 F 
ATOM      2  F   UNL     1      34.435 -13.286 -25.250  0.00  0.00    -0.200 F 
ATOM      3  F   UNL     1      34.537 -10.595 -25.403  0.00  0.00    -0.202 F 
ATOM      4  O   UNL     1      33.854  -8.339 -24.440  0.00  0.00    -0.286 OA
ATOM      5  N   UNL     1      31.752 -10.172 -21.465  0.00  0.00    -0.285 N 
ATOM      6  C   UNL     1      32.425 -10.992 -22.415  0.00  0.00    +0.086 A 
ATOM      7  C   UNL     1      33.065 -13.166 -23.316  0.00  0.00    +0.107 A 
ATOM      8  C   UNL     1      32.390 -12.396 -22.365  0.00  0.00    +0.169 A 
ATOM      9  C   UNL     1      31.829  -8.798 -21.575  0.00  0.00    +0.075 C 
ATOM     10  C   UNL     1      33.162 -10.388 -23.458  0.00  0.00    +0.085 A 
ATOM     11  C   UNL     1      33.785 -12.551 -24.336  0.00  0.00    +0.183 A 
ATOM     12  C   UNL     1      33.837 -11.161 -24.410  0.00  0.00    +0.173 A 
ATOM     13  C   UNL     1      32.498  -8.129 -22.520  0.00  0.00    +0.133 C 
ATOM     14  C   UNL     1      33.228  -8.906 -23.553  0.00  0.00    +0.207 C 
ENDROOT
BRANCH   7  16
ATOM     15  N   UNL     1      34.878 -16.658 -23.117  0.00  0.00    +0.389 N 
ATOM     16  N   UNL     1      33.014 -14.555 -23.246  0.00  0.00    -0.308 N 
ATOM     17  C   UNL     1      34.673 -15.917 -24.415  0.00  0.00    -0.042 C 
ATOM     18  C   UNL     1      34.616 -15.817 -21.894  0.00  0.00    -0.042 C 
ATOM     19  C   UNL     1      33.239 -15.372 -24.445  0.00  0.00    +0.070 C 
ATOM     20  C   UNL     1      33.186 -15.280 -21.984  0.00  0.00    +0.070 C 
ATOM     21  C   UNL     1      34.944 -16.881 -25.561  0.00  0.00    -0.022 C 
ATOM     22  C   UNL     1      34.828 -16.686 -20.663  0.00  0.00    -0.022 C 
ATOM     23  H   UNL     1      35.842 -16.986 -23.083  0.00  0.00    -0.084 HD
ATOM     24  H   UNL     1      34.205 -17.424 -23.102  0.00  0.00    -0.084 HD
ENDBRANCH   7  16
BRANCH  13  27
ATOM     25  O   UNL     1      32.398  -6.100 -21.345  0.00  0.00    -0.240 OA
ATOM     26  O   UNL     1      32.541  -6.061 -23.627  0.00  0.00    -0.240 OA
ATOM     27  C   UNL     1      32.477  -6.618 -22.496  0.00  0.00    +0.392 C 
ENDBRANCH  13  27
BRANCH   5  28
ATOM     28  C   UNL     1      30.963 -10.735 -20.348  0.00  0.00    +0.077 C 
ATOM     29  C   UNL     1      31.633 -11.219 -19.105  0.00  0.00    +0.022 C 
ATOM     30  C   UNL     1      30.791  -9.976 -19.074  0.00  0.00    +0.022 C 
ENDBRANCH   5  28
TORSDOF 3
ENDMDL
MODEL 4
REMARK VINA RESULT:      -9.2      3.675      6.946
REMARK  Name = 7061800
REMARK  3 active torsions:
REMARK  status: ('A' for Active; 'I' for Inactive)
REMARK    1  A    between atoms: N_5  and  C_28
REMARK    2  A    between atoms: C_7  and  N_16
REMARK    3  A    between atoms: C_13  and  C_27
REMARK                            x       y       z     vdW  Elec       q    Type
REMARK                         _______ _______ _______ _____ _____    ______ ____
ROOT
ATOM      1  F   UNL     1      35.264 -22.714 -16.844  0.00  0.00    -0.201 F 
ATOM      2  F   UNL     1      34.524 -25.013 -12.788  0.00  0.00    -0.200 F 
ATOM      3  F   UNL     1      31.854 -24.864 -13.142  0.00  0.00    -0.202 F 
ATOM      4  O   UNL     1      29.895 -24.097 -14.576  0.00  0.00    -0.286 OA
ATOM      5  N   UNL     1      32.448 -22.500 -17.326  0.00  0.00    -0.285 N 
ATOM      6  C   UNL     1      33.006 -23.134 -16.180  0.00  0.00    +0.086 A 
ATOM      7  C   UNL     1      34.902 -23.858 -14.827  0.00  0.00    +0.107 A 
ATOM      8  C   UNL     1      34.392 -23.227 -15.965  0.00  0.00    +0.169 A 
ATOM      9  C   UNL     1      31.076 -22.445 -17.473  0.00  0.00    +0.075 C 
ATOM     10  C   UNL     1      32.149 -23.697 -15.209  0.00  0.00    +0.085 A 
ATOM     11  C   UNL     1      34.039 -24.406 -13.881  0.00  0.00    +0.183 A 
ATOM     12  C   UNL     1      32.662 -24.329 -14.069  0.00  0.00    +0.173 A 
ATOM     13  C   UNL     1      30.180 -22.946 -16.617  0.00  0.00    +0.133 C 
ATOM     14  C   UNL     1      30.676 -23.623 -15.392  0.00  0.00    +0.207 C 
ENDROOT
BRANCH   7  16
ATOM     15  N   UNL     1      38.019 -25.314 -12.909  0.00  0.00    +0.389 N 
ATOM     16  N   UNL     1      36.278 -23.936 -14.635  0.00  0.00    -0.308 N 
ATOM     17  C   UNL     1      37.205 -24.158 -12.384  0.00  0.00    -0.042 C 
ATOM     18  C   UNL     1      37.359 -26.051 -14.047  0.00  0.00    -0.042 C 
ATOM     19  C   UNL     1      36.923 -23.194 -13.544  0.00  0.00    +0.070 C 
ATOM     20  C   UNL     1      37.078 -25.044 -15.164  0.00  0.00    +0.070 C 
ATOM     21  C   UNL     1      37.992 -23.493 -11.265  0.00  0.00    -0.022 C 
ATOM     22  C   UNL     1      38.290 -27.166 -14.498  0.00  0.00    -0.022 C 
ATOM     23  H   UNL     1      38.173 -25.972 -12.146  0.00  0.00    -0.084 HD
ATOM     24  H   UNL     1      38.890 -24.927 -13.270  0.00  0.00    -0.084 HD
ENDBRANCH   7  16
BRANCH  13  27
ATOM     25  O   UNL     1      28.150 -21.786 -16.415  0.00  0.00    -0.240 OA
ATOM     26  O   UNL     1      28.222 -23.697 -17.670  0.00  0.00    -0.240 OA
ATOM     27  C   UNL     1      28.709 -22.796 -16.930  0.00  0.00    +0.392 C 
ENDBRANCH  13  27
BRANCH   5  28
ATOM     28  C   UNL     1      33.284 -21.889 -18.383  0.00  0.00    +0.077 C 
ATOM     29  C   UNL     1      33.458 -22.561 -19.704  0.00  0.00    +0.022 C 
ATOM     30  C   UNL     1      32.661 -21.294 -19.602  0.00  0.00    +0.022 C 
ENDBRANCH   5  28
TORSDOF 3
ENDMDL
MODEL 5
REMARK VINA RESULT:      -9.2      7.985     11.673
REMARK  Name = 7061800
REMARK  3 active torsions:
REMARK  status: ('A' for Active; 'I' for Inactive)
REMARK    1  A    between atoms: N_5  and  C_28
REMARK    2  A    between atoms: C_7  and  N_16
REMARK    3  A    between atoms: C_13  and  C_27
REMARK                            x       y       z     vdW  Elec       q    Type
REMARK                         _______ _______ _______ _____ _____    ______ ____
ROOT
ATOM      1  F   UNL     1      35.082 -14.844 -24.263  0.00  0.00    -0.201 F 
ATOM      2  F   UNL     1      33.793 -16.839 -20.183  0.00  0.00    -0.200 F 
ATOM      3  F   UNL     1      32.340 -14.662 -19.530  0.00  0.00    -0.202 F 
ATOM      4  O   UNL     1      31.522 -12.332 -20.152  0.00  0.00    -0.286 OA
ATOM      5  N   UNL     1      33.569 -12.483 -23.675  0.00  0.00    -0.285 N 
ATOM      6  C   UNL     1      33.646 -13.608 -22.806  0.00  0.00    +0.086 A 
ATOM      7  C   UNL     1      34.444 -15.840 -22.236  0.00  0.00    +0.107 A 
ATOM      8  C   UNL     1      34.394 -14.756 -23.115  0.00  0.00    +0.169 A 
ATOM      9  C   UNL     1      32.815 -11.387 -23.307  0.00  0.00    +0.075 C 
ATOM     10  C   UNL     1      32.948 -13.587 -21.578  0.00  0.00    +0.085 A 
ATOM     11  C   UNL     1      33.749 -15.799 -21.030  0.00  0.00    +0.183 A 
ATOM     12  C   UNL     1      32.999 -14.675 -20.698  0.00  0.00    +0.173 A 
ATOM     13  C   UNL     1      32.118 -11.268 -22.172  0.00  0.00    +0.133 C 
ATOM     14  C   UNL     1      32.142 -12.394 -21.206  0.00  0.00    +0.207 C 
ENDROOT
BRANCH   7  16
ATOM     15  N   UNL     1      34.705 -19.717 -22.884  0.00  0.00    +0.389 N 
ATOM     16  N   UNL     1      35.194 -16.966 -22.564  0.00  0.00    -0.308 N 
ATOM     17  C   UNL     1      34.731 -19.117 -21.500  0.00  0.00    -0.042 C 
ATOM     18  C   UNL     1      34.261 -18.751 -23.953  0.00  0.00    -0.042 C 
ATOM     19  C   UNL     1      35.651 -17.890 -21.517  0.00  0.00    +0.070 C 
ATOM     20  C   UNL     1      35.193 -17.539 -23.913  0.00  0.00    +0.070 C 
ATOM     21  C   UNL     1      35.216 -20.183 -20.529  0.00  0.00    -0.022 C 
ATOM     22  C   UNL     1      34.308 -19.469 -25.293  0.00  0.00    -0.022 C 
ATOM     23  H   UNL     1      34.064 -20.510 -22.878  0.00  0.00    -0.084 HD
ATOM     24  H   UNL     1      35.661 -19.992 -23.108  0.00  0.00    -0.084 HD
ENDBRANCH   7  16
BRANCH  13  27
ATOM     25  O   UNL     1      30.516  -9.683 -22.827  0.00  0.00    -0.240 OA
ATOM     26  O   UNL     1      31.620  -9.397 -20.845  0.00  0.00    -0.240 OA
ATOM     27  C   UNL     1      31.344  -9.993 -21.924  0.00  0.00    +0.392 C 
ENDBRANCH  13  27
BRANCH   5  28
ATOM     28  C   UNL     1      34.274 -12.434 -24.976  0.00  0.00    +0.077 C 
ATOM     29  C   UNL     1      33.520 -12.223 -26.246  0.00  0.00    +0.022 C 
ATOM     30  C   UNL     1      34.422 -11.147 -25.717  0.00  0.00    +0.022 C 
ENDBRANCH   5  28
TORSDOF 3
ENDMDL
MODEL 6
REMARK VINA RESULT:      -9.1      3.370      6.691
REMARK  Name = 7061800
REMARK  3 active torsions:
REMARK  status: ('A' for Active; 'I' for Inactive)
REMARK    1  A    between atoms: N_5  and  C_28
REMARK    2  A    between atoms: C_7  and  N_16
REMARK    3  A    between atoms: C_13  and  C_27
REMARK                            x       y       z     vdW  Elec       q    Type
REMARK                         _______ _______ _______ _____ _____    ______ ____
ROOT
ATOM      1  F   UNL     1      33.800 -24.250 -15.330  0.00  0.00    -0.201 F 
ATOM      2  F   UNL     1      38.334 -23.000 -15.735  0.00  0.00    -0.200 F 
ATOM      3  F   UNL     1      37.772 -21.510 -17.912  0.00  0.00    -0.202 F 
ATOM      4  O   UNL     1      36.035 -20.650 -19.564  0.00  0.00    -0.286 OA
ATOM      5  N   UNL     1      33.086 -22.696 -17.629  0.00  0.00    -0.285 N 
ATOM      6  C   UNL     1      34.414 -22.793 -17.123  0.00  0.00    +0.086 A 
ATOM      7  C   UNL     1      36.056 -23.632 -15.527  0.00  0.00    +0.107 A 
ATOM      8  C   UNL     1      34.741 -23.562 -15.993  0.00  0.00    +0.169 A 
ATOM      9  C   UNL     1      32.837 -21.922 -18.745  0.00  0.00    +0.075 C 
ATOM     10  C   UNL     1      35.458 -22.096 -17.770  0.00  0.00    +0.085 A 
ATOM     11  C   UNL     1      37.070 -22.937 -16.180  0.00  0.00    +0.183 A 
ATOM     12  C   UNL     1      36.776 -22.167 -17.302  0.00  0.00    +0.173 A 
ATOM     13  C   UNL     1      33.751 -21.224 -19.428  0.00  0.00    +0.133 C 
ATOM     14  C   UNL     1      35.162 -21.270 -18.970  0.00  0.00    +0.207 C 
ENDROOT
BRANCH   7  16
ATOM     15  N   UNL     1      38.361 -24.436 -12.436  0.00  0.00    +0.389 N 
ATOM     16  N   UNL     1      36.355 -24.401 -14.406  0.00  0.00    -0.308 N 
ATOM     17  C   UNL     1      38.677 -24.907 -13.833  0.00  0.00    -0.042 C 
ATOM     18  C   UNL     1      37.280 -23.387 -12.381  0.00  0.00    -0.042 C 
ATOM     19  C   UNL     1      37.388 -25.443 -14.470  0.00  0.00    +0.070 C 
ATOM     20  C   UNL     1      36.028 -23.961 -13.047  0.00  0.00    +0.070 C 
ATOM     21  C   UNL     1      39.757 -25.974 -13.743  0.00  0.00    -0.022 C 
ATOM     22  C   UNL     1      37.041 -23.024 -10.923  0.00  0.00    -0.022 C 
ATOM     23  H   UNL     1      39.210 -24.046 -12.029  0.00  0.00    -0.084 HD
ATOM     24  H   UNL     1      38.018 -25.245 -11.919  0.00  0.00    -0.084 HD
ENDBRANCH   7  16
BRANCH  13  27
ATOM     25  O   UNL     1      32.081 -20.116 -20.649  0.00  0.00    -0.240 OA
ATOM     26  O   UNL     1      34.214 -20.173 -21.474  0.00  0.00    -0.240 OA
ATOM     27  C   UNL     1      33.306 -20.428 -20.633  0.00  0.00    +0.392 C 
ENDBRANCH  13  27
BRANCH   5  28
ATOM     28  C   UNL     1      31.944 -23.398 -17.003  0.00  0.00    +0.077 C 
ATOM     29  C   UNL     1      31.391 -22.942 -15.694  0.00  0.00    +0.022 C 
ATOM     30  C   UNL     1      30.593 -22.766 -16.953  0.00  0.00    +0.022 C 
ENDBRANCH   5  28
TORSDOF 3
ENDMDL
MODEL 7
REMARK VINA RESULT:      -8.7      9.607     12.693
REMARK  Name = 7061800
REMARK  3 active torsions:
REMARK  status: ('A' for Active; 'I' for Inactive)
REMARK    1  A    between atoms: N_5  and  C_28
REMARK    2  A    between atoms: C_7  and  N_16
REMARK    3  A    between atoms: C_13  and  C_27
REMARK                            x       y       z     vdW  Elec       q    Type
REMARK                         _______ _______ _______ _____ _____    ______ ____
ROOT
ATOM      1  F   UNL     1      32.984 -11.498 -24.622  0.00  0.00    -0.201 F 
ATOM      2  F   UNL     1      31.407  -9.818 -20.501  0.00  0.00    -0.200 F 
ATOM      3  F   UNL     1      31.685 -12.245 -19.357  0.00  0.00    -0.202 F 
ATOM      4  O   UNL     1      32.360 -14.689 -19.591  0.00  0.00    -0.286 OA
ATOM      5  N   UNL     1      33.324 -14.118 -23.511  0.00  0.00    -0.285 N 
ATOM      6  C   UNL     1      32.838 -13.003 -22.770  0.00  0.00    +0.086 A 
ATOM      7  C   UNL     1      32.200 -10.658 -22.575  0.00  0.00    +0.107 A 
ATOM      8  C   UNL     1      32.679 -11.727 -23.336  0.00  0.00    +0.169 A 
ATOM      9  C   UNL     1      33.454 -15.344 -22.891  0.00  0.00    +0.075 C 
ATOM     10  C   UNL     1      32.495 -13.168 -21.410  0.00  0.00    +0.085 A 
ATOM     11  C   UNL     1      31.867 -10.842 -21.236  0.00  0.00    +0.183 A 
ATOM     12  C   UNL     1      32.014 -12.096 -20.649  0.00  0.00    +0.173 A 
ATOM     13  C   UNL     1      33.160 -15.605 -21.613  0.00  0.00    +0.133 C 
ATOM     14  C   UNL     1      32.645 -14.500 -20.766  0.00  0.00    +0.207 C 
ENDROOT
BRANCH   7  16
ATOM     15  N   UNL     1      33.034  -6.810 -22.693  0.00  0.00    +0.389 N 
ATOM     16  N   UNL     1      32.050  -9.403 -23.159  0.00  0.00    -0.308 N 
ATOM     17  C   UNL     1      31.990  -7.390 -21.773  0.00  0.00    -0.042 C 
ATOM     18  C   UNL     1      33.931  -7.846 -23.321  0.00  0.00    -0.042 C 
ATOM     19  C   UNL     1      31.152  -8.405 -22.563  0.00  0.00    +0.070 C 
ATOM     20  C   UNL     1      33.048  -8.844 -24.074  0.00  0.00    +0.070 C 
ATOM     21  C   UNL     1      31.144  -6.247 -21.232  0.00  0.00    -0.022 C 
ATOM     22  C   UNL     1      34.911  -7.135 -24.241  0.00  0.00    -0.022 C 
ATOM     23  H   UNL     1      33.613  -6.165 -22.157  0.00  0.00    -0.084 HD
ATOM     24  H   UNL     1      32.537  -6.346 -23.453  0.00  0.00    -0.084 HD
ENDBRANCH   7  16
BRANCH  13  27
ATOM     25  O   UNL     1      34.562 -17.395 -21.032  0.00  0.00    -0.240 OA
ATOM     26  O   UNL     1      32.301 -17.624 -20.781  0.00  0.00    -0.240 OA
ATOM     27  C   UNL     1      33.360 -17.010 -21.092  0.00  0.00    +0.392 C 
ENDBRANCH  13  27
BRANCH   5  28
ATOM     28  C   UNL     1      33.702 -14.019 -24.938  0.00  0.00    +0.077 C 
ATOM     29  C   UNL     1      33.819 -15.242 -25.784  0.00  0.00    +0.022 C 
ATOM     30  C   UNL     1      32.698 -14.272 -26.014  0.00  0.00    +0.022 C 
ENDBRANCH   5  28
TORSDOF 3
ENDMDL
MODEL 8
REMARK VINA RESULT:      -8.7     11.769     14.703
REMARK  Name = 7061800
REMARK  3 active torsions:
REMARK  status: ('A' for Active; 'I' for Inactive)
REMARK    1  A    between atoms: N_5  and  C_28
REMARK    2  A    between atoms: C_7  and  N_16
REMARK    3  A    between atoms: C_13  and  C_27
REMARK                            x       y       z     vdW  Elec       q    Type
REMARK                         _______ _______ _______ _____ _____    ______ ____
ROOT
ATOM      1  F   UNL     1      31.962  -8.461 -21.413  0.00  0.00    -0.201 F 
ATOM      2  F   UNL     1      34.696  -8.286 -25.258  0.00  0.00    -0.200 F 
ATOM      3  F   UNL     1      34.817 -10.979 -25.346  0.00  0.00    -0.202 F 
ATOM      4  O   UNL     1      34.140 -13.216 -24.333  0.00  0.00    -0.286 OA
ATOM      5  N   UNL     1      32.017 -11.325 -21.410  0.00  0.00    -0.285 N 
ATOM      6  C   UNL     1      32.690 -10.524 -22.377  0.00  0.00    +0.086 A 
ATOM      7  C   UNL     1      33.321  -8.368 -23.325  0.00  0.00    +0.107 A 
ATOM      8  C   UNL     1      32.648  -9.120 -22.358  0.00  0.00    +0.169 A 
ATOM      9  C   UNL     1      32.101 -12.701 -21.488  0.00  0.00    +0.075 C 
ATOM     10  C   UNL     1      33.433 -11.148 -23.402  0.00  0.00    +0.085 A 
ATOM     11  C   UNL     1      34.049  -9.004 -24.327  0.00  0.00    +0.183 A 
ATOM     12  C   UNL     1      34.107 -10.394 -24.370  0.00  0.00    +0.173 A 
ATOM     13  C   UNL     1      32.775 -13.388 -22.416  0.00  0.00    +0.133 C 
ATOM     14  C   UNL     1      33.507 -12.632 -23.463  0.00  0.00    +0.207 C 
ENDROOT
BRANCH   7  16
ATOM     15  N   UNL     1      31.488  -4.983 -24.161  0.00  0.00    +0.389 N 
ATOM     16  N   UNL     1      33.266  -6.978 -23.285  0.00  0.00    -0.308 N 
ATOM     17  C   UNL     1      32.340  -5.719 -25.164  0.00  0.00    -0.042 C 
ATOM     18  C   UNL     1      31.150  -5.801 -22.940  0.00  0.00    -0.042 C 
ATOM     19  C   UNL     1      33.625  -6.183 -24.467  0.00  0.00    +0.070 C 
ATOM     20  C   UNL     1      32.461  -6.256 -22.296  0.00  0.00    +0.070 C 
ATOM     21  C   UNL     1      32.626  -4.779 -26.326  0.00  0.00    -0.022 C 
ATOM     22  C   UNL     1      30.318  -4.937 -22.003  0.00  0.00    -0.022 C 
ATOM     23  H   UNL     1      30.618  -4.710 -24.617  0.00  0.00    -0.084 HD
ATOM     24  H   UNL     1      32.029  -4.180 -23.842  0.00  0.00    -0.084 HD
ENDBRANCH   7  16
BRANCH  13  27
ATOM     25  O   UNL     1      33.472 -15.477 -23.227  0.00  0.00    -0.240 OA
ATOM     26  O   UNL     1      32.052 -15.395 -21.436  0.00  0.00    -0.240 OA
ATOM     27  C   UNL     1      32.765 -14.899 -22.354  0.00  0.00    +0.392 C 
ENDBRANCH  13  27
BRANCH   5  28
ATOM     28  C   UNL     1      31.220 -10.741 -20.309  0.00  0.00    +0.077 C 
ATOM     29  C   UNL     1      31.220 -11.362 -18.952  0.00  0.00    +0.022 C 
ATOM     30  C   UNL     1      31.886 -10.036 -19.174  0.00  0.00    +0.022 C 
ENDBRANCH   5  28
TORSDOF 3
ENDMDL
MODEL 9
REMARK VINA RESULT:      -8.6     10.353     13.807
REMARK  Name = 7061800
REMARK  3 active torsions:
REMARK  status: ('A' for Active; 'I' for Inactive)
REMARK    1  A    between atoms: N_5  and  C_28
REMARK    2  A    between atoms: C_7  and  N_16
REMARK    3  A    between atoms: C_13  and  C_27
REMARK                            x       y       z     vdW  Elec       q    Type
REMARK                         _______ _______ _______ _____ _____    ______ ____
ROOT
ATOM      1  F   UNL     1      33.245 -11.856 -24.177  0.00  0.00    -0.201 F 
ATOM      2  F   UNL     1      31.484 -14.072 -20.399  0.00  0.00    -0.200 F 
ATOM      3  F   UNL     1      31.260 -11.731 -19.079  0.00  0.00    -0.202 F 
ATOM      4  O   UNL     1      31.571  -9.204 -19.074  0.00  0.00    -0.286 OA
ATOM      5  N   UNL     1      33.048  -9.312 -22.873  0.00  0.00    -0.285 N 
ATOM      6  C   UNL     1      32.658 -10.542 -22.269  0.00  0.00    +0.086 A 
ATOM      7  C   UNL     1      32.370 -12.963 -22.302  0.00  0.00    +0.107 A 
ATOM      8  C   UNL     1      32.764 -11.778 -22.928  0.00  0.00    +0.169 A 
ATOM      9  C   UNL     1      32.916  -8.134 -22.166  0.00  0.00    +0.075 C 
ATOM     10  C   UNL     1      32.142 -10.538 -20.954  0.00  0.00    +0.085 A 
ATOM     11  C   UNL     1      31.865 -12.937 -21.004  0.00  0.00    +0.183 A 
ATOM     12  C   UNL     1      31.748 -11.727 -20.327  0.00  0.00    +0.173 A 
ATOM     13  C   UNL     1      32.441  -8.022 -20.922  0.00  0.00    +0.133 C 
ATOM     14  C   UNL     1      32.012  -9.254 -20.215  0.00  0.00    +0.207 C 
ENDROOT
BRANCH   7  16
ATOM     15  N   UNL     1      34.403 -15.421 -24.612  0.00  0.00    +0.389 N 
ATOM     16  N   UNL     1      32.486 -14.175 -22.975  0.00  0.00    -0.308 N 
ATOM     17  C   UNL     1      33.580 -14.282 -25.158  0.00  0.00    -0.042 C 
ATOM     18  C   UNL     1      34.630 -15.344 -23.124  0.00  0.00    -0.042 C 
ATOM     19  C   UNL     1      32.235 -14.254 -24.420  0.00  0.00    +0.070 C 
ATOM     20  C   UNL     1      33.264 -15.296 -22.438  0.00  0.00    +0.070 C 
ATOM     21  C   UNL     1      33.407 -14.494 -26.655  0.00  0.00    -0.022 C 
ATOM     22  C   UNL     1      35.443 -16.559 -22.702  0.00  0.00    -0.022 C 
ATOM     23  H   UNL     1      35.310 -15.414 -25.078  0.00  0.00    -0.084 HD
ATOM     24  H   UNL     1      33.882 -16.279 -24.791  0.00  0.00    -0.084 HD
ENDBRANCH   7  16
BRANCH  13  27
ATOM     25  O   UNL     1      33.034  -6.510 -19.228  0.00  0.00    -0.240 OA
ATOM     26  O   UNL     1      31.647  -5.813 -20.907  0.00  0.00    -0.240 OA
ATOM     27  C   UNL     1      32.366  -6.650 -20.292  0.00  0.00    +0.392 C 
ENDBRANCH  13  27
BRANCH   5  28
ATOM     28  C   UNL     1      33.595  -9.240 -24.246  0.00  0.00    +0.077 C 
ATOM     29  C   UNL     1      34.428  -8.080 -24.676  0.00  0.00    +0.022 C 
ATOM     30  C   UNL     1      35.054  -9.432 -24.498  0.00  0.00    +0.022 C 
ENDBRANCH   5  28
TORSDOF 3
ENDMDL
