MODEL 1
REMARK VINA RESULT:      -9.0      0.000      0.000
REMARK  Name = 34755
REMARK  10 active torsions:
REMARK  status: ('A' for Active; 'I' for Inactive)
REMARK    1  A    between atoms: C_2  and  C_22
REMARK    2  A    between atoms: C_3  and  O_18
REMARK    3  A    between atoms: C_4  and  O_20
REMARK    4  A    between atoms: C_5  and  N_6
REMARK    5  A    between atoms: C_22  and  S_23
REMARK    6  A    between atoms: S_23  and  C_25
REMARK    7  A    between atoms: C_25  and  C_26
REMARK    8  A    between atoms: C_26  and  CA_27
REMARK    9  A    between atoms: CA_27  and  N_28
REMARK   10  A    between atoms: CA_27  and  C_34
REMARK                            x       y       z     vdW  Elec       q    Type
REMARK                         _______ _______ _______ _____ _____    ______ ____
ROOT
ATOM      1  O   UNL     1      34.592 -24.228 -16.239  0.00  0.00    -0.335 OA
ATOM      2  C   UNL     1      34.838 -24.245 -14.814  0.00  0.00    +0.156 C 
ATOM      3  C   UNL     1      36.040 -23.336 -14.573  0.00  0.00    +0.169 C 
ATOM      4  C   UNL     1      35.929 -22.345 -15.714  0.00  0.00    +0.187 C 
ATOM      5  C   UNL     1      35.445 -23.239 -16.846  0.00  0.00    +0.225 C 
ENDROOT
BRANCH   5   6
ATOM      6  N   UNL     1      34.712 -22.531 -17.893  0.00  0.00    -0.247 N 
ATOM      7  N   UNL     1      33.001 -21.892 -19.174  0.00  0.00    -0.242 NA
ATOM      8  N   UNL     1      36.484 -21.184 -18.867  0.00  0.00    -0.228 NA
ATOM      9  N   UNL     1      35.649 -19.813 -20.705  0.00  0.00    -0.229 NA
ATOM     10  C   UNL     1      35.218 -21.618 -18.776  0.00  0.00    +0.152 C 
ATOM     11  C   UNL     1      33.377 -22.661 -18.173  0.00  0.00    +0.223 C 
ATOM     12  C   UNL     1      34.142 -21.235 -19.560  0.00  0.00    +0.140 C 
ATOM     13  C   UNL     1      34.392 -20.295 -20.555  0.00  0.00    +0.143 C 
ATOM     14  C   UNL     1      36.603 -20.281 -19.864  0.00  0.00    +0.253 C 
ATOM     15  N   UNL     1      33.359 -19.848 -21.396  0.00  0.00    -0.342 N 
ATOM     16  H   UNL     1      33.547 -19.183 -22.098  0.00  0.00    +0.144 HD
ATOM     17  H   UNL     1      32.445 -20.200 -21.285  0.00  0.00    +0.144 HD
ENDBRANCH   5   6
BRANCH   3  18
ATOM     18  O   UNL     1      37.235 -24.104 -14.723  0.00  0.00    -0.379 OA
ATOM     19  H   UNL     1      37.666 -24.204 -13.860  0.00  0.00    +0.211 HD
ENDBRANCH   3  18
BRANCH   4  20
ATOM     20  O   UNL     1      37.158 -21.719 -16.026  0.00  0.00    -0.378 OA
ATOM     21  H   UNL     1      37.889 -22.327 -15.834  0.00  0.00    +0.211 HD
ENDBRANCH   4  20
BRANCH   2  22
ATOM     22  C   UNL     1      33.581 -23.766 -14.102  0.00  0.00    +0.080 C 
BRANCH  22  23
ATOM     23  S   UNL     1      32.084 -24.427 -14.886  0.00  0.00    -0.176 S 
ATOM     24  C   UNL     1      31.316 -25.037 -13.367  0.00  0.00    +0.059 C 
BRANCH  23  25
ATOM     25  C   UNL     1      31.188 -22.861 -14.958  0.00  0.00    +0.047 C 
BRANCH  25  26
ATOM     26  C   UNL     1      30.307 -22.802 -16.203  0.00  0.00    -0.000 C 
BRANCH  26  27
ATOM     27  CA  UNL     1      28.822 -22.938 -15.857  0.00  0.00    +0.041 C 
BRANCH  27  28
ATOM     28  N   UNL     1      28.535 -24.315 -15.449  0.00  0.00    +0.389 N 
ATOM     29  H1  UNL     1      28.464 -24.361 -14.432  0.00  0.00    -0.088 HD
ATOM     30  H2  UNL     1      29.288 -24.927 -15.764  0.00  0.00    -0.088 HD
ATOM     31  H3  UNL     1      27.655 -24.617 -15.866  0.00  0.00    -0.088 HD
ENDBRANCH  27  28
BRANCH  27  34
ATOM     32  O   UNL     1      27.608 -23.700 -17.735  0.00  0.00    -0.248 OA
ATOM     33  OXT UNL     1      27.418 -21.503 -17.142  0.00  0.00    -0.248 OA
ATOM     34  C   UNL     1      27.852 -22.682 -17.024  0.00  0.00    +0.345 C 
ENDBRANCH  27  34
ENDBRANCH  26  27
ENDBRANCH  25  26
ENDBRANCH  23  25
ENDBRANCH  22  23
ENDBRANCH   2  22
TORSDOF 10
ENDMDL
MODEL 2
REMARK VINA RESULT:      -8.8      6.916      9.534
REMARK  Name = 34755
REMARK  10 active torsions:
REMARK  status: ('A' for Active; 'I' for Inactive)
REMARK    1  A    between atoms: C_2  and  C_22
REMARK    2  A    between atoms: C_3  and  O_18
REMARK    3  A    between atoms: C_4  and  O_20
REMARK    4  A    between atoms: C_5  and  N_6
REMARK    5  A    between atoms: C_22  and  S_23
REMARK    6  A    between atoms: S_23  and  C_25
REMARK    7  A    between atoms: C_25  and  C_26
REMARK    8  A    between atoms: C_26  and  CA_27
REMARK    9  A    between atoms: CA_27  and  N_28
REMARK   10  A    between atoms: CA_27  and  C_34
REMARK                            x       y       z     vdW  Elec       q    Type
REMARK                         _______ _______ _______ _____ _____    ______ ____
ROOT
ATOM      1  O   UNL     1      35.051 -17.372 -20.775  0.00  0.00    -0.335 OA
ATOM      2  C   UNL     1      34.809 -16.218 -21.614  0.00  0.00    +0.156 C 
ATOM      3  C   UNL     1      34.779 -16.728 -23.051  0.00  0.00    +0.169 C 
ATOM      4  C   UNL     1      34.292 -18.153 -22.878  0.00  0.00    +0.187 C 
ATOM      5  C   UNL     1      34.992 -18.558 -21.590  0.00  0.00    +0.225 C 
ENDROOT
BRANCH   5   6
ATOM      6  N   UNL     1      34.317 -19.627 -20.857  0.00  0.00    -0.247 N 
ATOM      7  N   UNL     1      32.667 -20.948 -20.143  0.00  0.00    -0.242 NA
ATOM      8  N   UNL     1      36.177 -20.582 -19.619  0.00  0.00    -0.228 NA
ATOM      9  N   UNL     1      35.451 -22.453 -18.229  0.00  0.00    -0.229 NA
ATOM     10  C   UNL     1      34.888 -20.511 -19.984  0.00  0.00    +0.152 C 
ATOM     11  C   UNL     1      32.982 -19.931 -20.918  0.00  0.00    +0.223 C 
ATOM     12  C   UNL     1      33.849 -21.320 -19.553  0.00  0.00    +0.140 C 
ATOM     13  C   UNL     1      34.168 -22.322 -18.643  0.00  0.00    +0.143 C 
ATOM     14  C   UNL     1      36.363 -21.588 -18.736  0.00  0.00    +0.253 C 
ATOM     15  N   UNL     1      33.177 -23.191 -18.154  0.00  0.00    -0.342 N 
ATOM     16  H   UNL     1      33.413 -23.896 -17.509  0.00  0.00    +0.144 HD
ATOM     17  H   UNL     1      32.244 -23.094 -18.457  0.00  0.00    +0.144 HD
ENDBRANCH   5   6
BRANCH   3  18
ATOM     18  O   UNL     1      36.112 -16.739 -23.563  0.00  0.00    -0.379 OA
ATOM     19  H   UNL     1      36.087 -16.706 -24.532  0.00  0.00    +0.211 HD
ENDBRANCH   3  18
BRANCH   4  20
ATOM     20  O   UNL     1      34.646 -18.994 -23.958  0.00  0.00    -0.378 OA
ATOM     21  H   UNL     1      35.255 -18.524 -24.548  0.00  0.00    +0.211 HD
ENDBRANCH   4  20
BRANCH   2  22
ATOM     22  C   UNL     1      33.496 -15.578 -21.185  0.00  0.00    +0.080 C 
BRANCH  22  23
ATOM     23  S   UNL     1      33.458 -13.810 -21.590  0.00  0.00    -0.176 S 
ATOM     24  C   UNL     1      32.768 -14.001 -23.250  0.00  0.00    +0.059 C 
BRANCH  23  25
ATOM     25  C   UNL     1      31.897 -13.448 -20.757  0.00  0.00    +0.047 C 
BRANCH  25  26
ATOM     26  C   UNL     1      32.027 -12.196 -19.893  0.00  0.00    -0.000 C 
BRANCH  26  27
ATOM     27  CA  UNL     1      31.098 -11.076 -20.370  0.00  0.00    +0.041 C 
BRANCH  27  28
ATOM     28  N   UNL     1      30.579 -11.399 -21.700  0.00  0.00    +0.389 N 
ATOM     29  H1  UNL     1      30.289 -10.542 -22.170  0.00  0.00    -0.088 HD
ATOM     30  H2  UNL     1      29.779 -12.026 -21.610  0.00  0.00    -0.088 HD
ATOM     31  H3  UNL     1      31.309 -11.856 -22.247  0.00  0.00    -0.088 HD
ENDBRANCH  27  28
BRANCH  27  34
ATOM     32  O   UNL     1      32.156  -9.163 -19.473  0.00  0.00    -0.248 OA
ATOM     33  OXT UNL     1      31.857  -9.275 -21.735  0.00  0.00    -0.248 OA
ATOM     34  C   UNL     1      31.770  -9.704 -20.550  0.00  0.00    +0.345 C 
ENDBRANCH  27  34
ENDBRANCH  26  27
ENDBRANCH  25  26
ENDBRANCH  23  25
ENDBRANCH  22  23
ENDBRANCH   2  22
TORSDOF 10
ENDMDL
MODEL 3
REMARK VINA RESULT:      -8.6      7.024     10.082
REMARK  Name = 34755
REMARK  10 active torsions:
REMARK  status: ('A' for Active; 'I' for Inactive)
REMARK    1  A    between atoms: C_2  and  C_22
REMARK    2  A    between atoms: C_3  and  O_18
REMARK    3  A    between atoms: C_4  and  O_20
REMARK    4  A    between atoms: C_5  and  N_6
REMARK    5  A    between atoms: C_22  and  S_23
REMARK    6  A    between atoms: S_23  and  C_25
REMARK    7  A    between atoms: C_25  and  C_26
REMARK    8  A    between atoms: C_26  and  CA_27
REMARK    9  A    between atoms: CA_27  and  N_28
REMARK   10  A    between atoms: CA_27  and  C_34
REMARK                            x       y       z     vdW  Elec       q    Type
REMARK                         _______ _______ _______ _____ _____    ______ ____
ROOT
ATOM      1  O   UNL     1      35.141 -17.450 -20.667  0.00  0.00    -0.335 OA
ATOM      2  C   UNL     1      34.849 -16.229 -21.386  0.00  0.00    +0.156 C 
ATOM      3  C   UNL     1      34.642 -16.626 -22.844  0.00  0.00    +0.169 C 
ATOM      4  C   UNL     1      34.128 -18.046 -22.722  0.00  0.00    +0.187 C 
ATOM      5  C   UNL     1      34.951 -18.568 -21.555  0.00  0.00    +0.225 C 
ENDROOT
BRANCH   5   6
ATOM      6  N   UNL     1      34.325 -19.672 -20.829  0.00  0.00    -0.247 N 
ATOM      7  N   UNL     1      32.736 -21.072 -20.130  0.00  0.00    -0.242 NA
ATOM      8  N   UNL     1      36.222 -20.546 -19.590  0.00  0.00    -0.228 NA
ATOM      9  N   UNL     1      35.581 -22.456 -18.214  0.00  0.00    -0.229 NA
ATOM     10  C   UNL     1      34.933 -20.533 -19.960  0.00  0.00    +0.152 C 
ATOM     11  C   UNL     1      33.006 -20.037 -20.897  0.00  0.00    +0.223 C 
ATOM     12  C   UNL     1      33.932 -21.392 -19.538  0.00  0.00    +0.140 C 
ATOM     13  C   UNL     1      34.294 -22.383 -18.631  0.00  0.00    +0.143 C 
ATOM     14  C   UNL     1      36.452 -21.546 -18.712  0.00  0.00    +0.253 C 
ATOM     15  N   UNL     1      33.343 -23.300 -18.151  0.00  0.00    -0.342 N 
ATOM     16  H   UNL     1      33.610 -23.997 -17.510  0.00  0.00    +0.144 HD
ATOM     17  H   UNL     1      32.408 -23.245 -18.457  0.00  0.00    +0.144 HD
ENDBRANCH   5   6
BRANCH   3  18
ATOM     18  O   UNL     1      35.909 -16.634 -23.503  0.00  0.00    -0.379 OA
ATOM     19  H   UNL     1      36.079 -17.517 -23.868  0.00  0.00    +0.211 HD
ENDBRANCH   3  18
BRANCH   4  20
ATOM     20  O   UNL     1      34.330 -18.812 -23.893  0.00  0.00    -0.378 OA
ATOM     21  H   UNL     1      35.204 -19.230 -23.859  0.00  0.00    +0.211 HD
ENDBRANCH   4  20
BRANCH   2  22
ATOM     22  C   UNL     1      33.615 -15.589 -20.765  0.00  0.00    +0.080 C 
BRANCH  22  23
ATOM     23  S   UNL     1      32.678 -14.634 -21.991  0.00  0.00    -0.176 S 
ATOM     24  C   UNL     1      32.102 -13.356 -20.850  0.00  0.00    +0.059 C 
BRANCH  23  25
ATOM     25  C   UNL     1      34.086 -13.710 -22.643  0.00  0.00    +0.047 C 
BRANCH  25  26
ATOM     26  C   UNL     1      33.745 -13.097 -23.999  0.00  0.00    -0.000 C 
BRANCH  26  27
ATOM     27  CA  UNL     1      34.185 -11.633 -24.088  0.00  0.00    +0.041 C 
BRANCH  27  28
ATOM     28  N   UNL     1      33.080 -10.761 -23.686  0.00  0.00    +0.389 N 
ATOM     29  H1  UNL     1      32.659 -10.340 -24.514  0.00  0.00    -0.088 HD
ATOM     30  H2  UNL     1      33.433 -10.026 -23.073  0.00  0.00    -0.088 HD
ATOM     31  H3  UNL     1      32.378 -11.310 -23.189  0.00  0.00    -0.088 HD
ENDBRANCH  27  28
BRANCH  27  34
ATOM     32  O   UNL     1      35.397 -10.204 -25.528  0.00  0.00    -0.248 OA
ATOM     33  OXT UNL     1      33.978 -11.732 -26.461  0.00  0.00    -0.248 OA
ATOM     34  C   UNL     1      34.553 -11.147 -25.501  0.00  0.00    +0.345 C 
ENDBRANCH  27  34
ENDBRANCH  26  27
ENDBRANCH  25  26
ENDBRANCH  23  25
ENDBRANCH  22  23
ENDBRANCH   2  22
TORSDOF 10
ENDMDL
MODEL 4
REMARK VINA RESULT:      -8.5      3.054      4.900
REMARK  Name = 34755
REMARK  10 active torsions:
REMARK  status: ('A' for Active; 'I' for Inactive)
REMARK    1  A    between atoms: C_2  and  C_22
REMARK    2  A    between atoms: C_3  and  O_18
REMARK    3  A    between atoms: C_4  and  O_20
REMARK    4  A    between atoms: C_5  and  N_6
REMARK    5  A    between atoms: C_22  and  S_23
REMARK    6  A    between atoms: S_23  and  C_25
REMARK    7  A    between atoms: C_25  and  C_26
REMARK    8  A    between atoms: C_26  and  CA_27
REMARK    9  A    between atoms: CA_27  and  N_28
REMARK   10  A    between atoms: CA_27  and  C_34
REMARK                            x       y       z     vdW  Elec       q    Type
REMARK                         _______ _______ _______ _____ _____    ______ ____
ROOT
ATOM      1  O   UNL     1      33.853 -22.970 -14.993  0.00  0.00    -0.335 OA
ATOM      2  C   UNL     1      32.578 -23.485 -15.441  0.00  0.00    +0.156 C 
ATOM      3  C   UNL     1      32.629 -23.497 -16.966  0.00  0.00    +0.169 C 
ATOM      4  C   UNL     1      34.108 -23.679 -17.238  0.00  0.00    +0.187 C 
ATOM      5  C   UNL     1      34.726 -22.839 -16.131  0.00  0.00    +0.225 C 
ENDROOT
BRANCH   5   6
ATOM      6  N   UNL     1      36.081 -23.243 -15.762  0.00  0.00    -0.247 N 
ATOM      7  N   UNL     1      38.265 -23.076 -15.333  0.00  0.00    -0.242 NA
ATOM      8  N   UNL     1      35.759 -25.615 -15.348  0.00  0.00    -0.228 NA
ATOM      9  N   UNL     1      37.846 -26.693 -14.686  0.00  0.00    -0.229 NA
ATOM     10  C   UNL     1      36.499 -24.498 -15.418  0.00  0.00    +0.152 C 
ATOM     11  C   UNL     1      37.179 -22.425 -15.696  0.00  0.00    +0.223 C 
ATOM     12  C   UNL     1      37.854 -24.373 -15.156  0.00  0.00    +0.140 C 
ATOM     13  C   UNL     1      38.531 -25.528 -14.777  0.00  0.00    +0.143 C 
ATOM     14  C   UNL     1      36.523 -26.665 -14.973  0.00  0.00    +0.253 C 
ATOM     15  N   UNL     1      39.906 -25.492 -14.491  0.00  0.00    -0.342 N 
ATOM     16  H   UNL     1      40.376 -26.316 -14.224  0.00  0.00    +0.144 HD
ATOM     17  H   UNL     1      40.402 -24.643 -14.558  0.00  0.00    +0.144 HD
ENDBRANCH   5   6
BRANCH   3  18
ATOM     18  O   UNL     1      32.210 -22.220 -17.450  0.00  0.00    -0.379 OA
ATOM     19  H   UNL     1      32.794 -21.939 -18.171  0.00  0.00    +0.211 HD
ENDBRANCH   3  18
BRANCH   4  20
ATOM     20  O   UNL     1      34.496 -23.227 -18.521  0.00  0.00    -0.378 OA
ATOM     21  H   UNL     1      34.601 -23.988 -19.113  0.00  0.00    +0.211 HD
ENDBRANCH   4  20
BRANCH   2  22
ATOM     22  C   UNL     1      32.383 -24.872 -14.844  0.00  0.00    +0.080 C 
BRANCH  22  23
ATOM     23  S   UNL     1      30.802 -24.996 -13.962  0.00  0.00    -0.176 S 
ATOM     24  C   UNL     1      30.634 -23.232 -13.605  0.00  0.00    +0.059 C 
BRANCH  23  25
ATOM     25  C   UNL     1      29.753 -25.011 -15.434  0.00  0.00    +0.047 C 
BRANCH  25  26
ATOM     26  C   UNL     1      28.583 -24.045 -15.268  0.00  0.00    -0.000 C 
BRANCH  26  27
ATOM     27  CA  UNL     1      28.244 -23.332 -16.580  0.00  0.00    +0.041 C 
BRANCH  27  28
ATOM     28  N   UNL     1      29.411 -22.580 -17.047  0.00  0.00    +0.389 N 
ATOM     29  H1  UNL     1      29.350 -22.452 -18.058  0.00  0.00    -0.088 HD
ATOM     30  H2  UNL     1      30.261 -23.097 -16.821  0.00  0.00    -0.088 HD
ATOM     31  H3  UNL     1      29.433 -21.669 -16.590  0.00  0.00    -0.088 HD
ENDBRANCH  27  28
BRANCH  27  34
ATOM     32  O   UNL     1      26.401 -22.377 -15.451  0.00  0.00    -0.248 OA
ATOM     33  OXT UNL     1      27.068 -21.436 -17.422  0.00  0.00    -0.248 OA
ATOM     34  C   UNL     1      27.131 -22.274 -16.480  0.00  0.00    +0.345 C 
ENDBRANCH  27  34
ENDBRANCH  26  27
ENDBRANCH  25  26
ENDBRANCH  23  25
ENDBRANCH  22  23
ENDBRANCH   2  22
TORSDOF 10
ENDMDL
MODEL 5
REMARK VINA RESULT:      -8.5      1.440      2.587
REMARK  Name = 34755
REMARK  10 active torsions:
REMARK  status: ('A' for Active; 'I' for Inactive)
REMARK    1  A    between atoms: C_2  and  C_22
REMARK    2  A    between atoms: C_3  and  O_18
REMARK    3  A    between atoms: C_4  and  O_20
REMARK    4  A    between atoms: C_5  and  N_6
REMARK    5  A    between atoms: C_22  and  S_23
REMARK    6  A    between atoms: S_23  and  C_25
REMARK    7  A    between atoms: C_25  and  C_26
REMARK    8  A    between atoms: C_26  and  CA_27
REMARK    9  A    between atoms: CA_27  and  N_28
REMARK   10  A    between atoms: CA_27  and  C_34
REMARK                            x       y       z     vdW  Elec       q    Type
REMARK                         _______ _______ _______ _____ _____    ______ ____
ROOT
ATOM      1  O   UNL     1      34.818 -24.615 -14.795  0.00  0.00    -0.335 OA
ATOM      2  C   UNL     1      34.232 -24.673 -13.474  0.00  0.00    +0.156 C 
ATOM      3  C   UNL     1      35.325 -24.249 -12.498  0.00  0.00    +0.169 C 
ATOM      4  C   UNL     1      36.172 -23.322 -13.345  0.00  0.00    +0.187 C 
ATOM      5  C   UNL     1      36.125 -24.018 -14.697  0.00  0.00    +0.225 C 
ENDROOT
BRANCH   5   6
ATOM      6  N   UNL     1      36.348 -23.128 -15.834  0.00  0.00    -0.247 N 
ATOM      7  N   UNL     1      37.385 -21.683 -17.181  0.00  0.00    -0.242 NA
ATOM      8  N   UNL     1      34.246 -23.371 -17.029  0.00  0.00    -0.228 NA
ATOM      9  N   UNL     1      34.212 -22.006 -19.051  0.00  0.00    -0.229 NA
ATOM     10  C   UNL     1      35.478 -22.868 -16.856  0.00  0.00    +0.152 C 
ATOM     11  C   UNL     1      37.478 -22.392 -16.075  0.00  0.00    +0.223 C 
ATOM     12  C   UNL     1      36.140 -21.971 -17.679  0.00  0.00    +0.140 C 
ATOM     13  C   UNL     1      35.460 -21.539 -18.813  0.00  0.00    +0.143 C 
ATOM     14  C   UNL     1      33.690 -22.880 -18.158  0.00  0.00    +0.253 C 
ATOM     15  N   UNL     1      36.057 -20.631 -19.705  0.00  0.00    -0.342 N 
ATOM     16  H   UNL     1      35.567 -20.331 -20.505  0.00  0.00    +0.144 HD
ATOM     17  H   UNL     1      36.966 -20.293 -19.530  0.00  0.00    +0.144 HD
ENDBRANCH   5   6
BRANCH   3  18
ATOM     18  O   UNL     1      36.092 -25.399 -12.138  0.00  0.00    -0.379 OA
ATOM     19  H   UNL     1      36.701 -25.170 -11.418  0.00  0.00    +0.211 HD
ENDBRANCH   3  18
BRANCH   4  20
ATOM     20  O   UNL     1      37.496 -23.189 -12.867  0.00  0.00    -0.378 OA
ATOM     21  H   UNL     1      37.479 -23.007 -11.915  0.00  0.00    +0.211 HD
ENDBRANCH   4  20
BRANCH   2  22
ATOM     22  C   UNL     1      33.020 -23.752 -13.444  0.00  0.00    +0.080 C 
BRANCH  22  23
ATOM     23  S   UNL     1      31.673 -24.397 -14.474  0.00  0.00    -0.176 S 
ATOM     24  C   UNL     1      30.474 -24.593 -13.135  0.00  0.00    +0.059 C 
BRANCH  23  25
ATOM     25  C   UNL     1      31.078 -22.792 -15.052  0.00  0.00    +0.047 C 
BRANCH  25  26
ATOM     26  C   UNL     1      30.311 -22.944 -16.363  0.00  0.00    -0.000 C 
BRANCH  26  27
ATOM     27  CA  UNL     1      28.857 -23.360 -16.127  0.00  0.00    +0.041 C 
BRANCH  27  28
ATOM     28  N   UNL     1      28.716 -24.802 -16.339  0.00  0.00    +0.389 N 
ATOM     29  H1  UNL     1      27.820 -25.115 -15.967  0.00  0.00    -0.088 HD
ATOM     30  H2  UNL     1      29.473 -25.292 -15.862  0.00  0.00    -0.088 HD
ATOM     31  H3  UNL     1      28.758 -25.004 -17.338  0.00  0.00    -0.088 HD
ENDBRANCH  27  28
BRANCH  27  34
ATOM     32  O   UNL     1      27.555 -21.526 -16.850  0.00  0.00    -0.248 OA
ATOM     33  OXT UNL     1      27.392 -23.490 -18.004  0.00  0.00    -0.248 OA
ATOM     34  C   UNL     1      27.834 -22.736 -17.092  0.00  0.00    +0.345 C 
ENDBRANCH  27  34
ENDBRANCH  26  27
ENDBRANCH  25  26
ENDBRANCH  23  25
ENDBRANCH  22  23
ENDBRANCH   2  22
TORSDOF 10
ENDMDL
MODEL 6
REMARK VINA RESULT:      -8.5      3.464      7.032
REMARK  Name = 34755
REMARK  10 active torsions:
REMARK  status: ('A' for Active; 'I' for Inactive)
REMARK    1  A    between atoms: C_2  and  C_22
REMARK    2  A    between atoms: C_3  and  O_18
REMARK    3  A    between atoms: C_4  and  O_20
REMARK    4  A    between atoms: C_5  and  N_6
REMARK    5  A    between atoms: C_22  and  S_23
REMARK    6  A    between atoms: S_23  and  C_25
REMARK    7  A    between atoms: C_25  and  C_26
REMARK    8  A    between atoms: C_26  and  CA_27
REMARK    9  A    between atoms: CA_27  and  N_28
REMARK   10  A    between atoms: CA_27  and  C_34
REMARK                            x       y       z     vdW  Elec       q    Type
REMARK                         _______ _______ _______ _____ _____    ______ ____
ROOT
ATOM      1  O   UNL     1      35.546 -24.271 -15.282  0.00  0.00    -0.335 OA
ATOM      2  C   UNL     1      36.604 -23.807 -14.411  0.00  0.00    +0.156 C 
ATOM      3  C   UNL     1      37.334 -22.703 -15.171  0.00  0.00    +0.169 C 
ATOM      4  C   UNL     1      36.241 -22.145 -16.059  0.00  0.00    +0.187 C 
ATOM      5  C   UNL     1      35.479 -23.407 -16.432  0.00  0.00    +0.225 C 
ENDROOT
BRANCH   5   6
ATOM      6  N   UNL     1      34.082 -23.174 -16.794  0.00  0.00    -0.247 N 
ATOM      7  N   UNL     1      32.306 -22.696 -18.056  0.00  0.00    -0.242 NA
ATOM      8  N   UNL     1      32.985 -23.542 -14.658  0.00  0.00    -0.228 NA
ATOM      9  N   UNL     1      30.570 -23.242 -14.837  0.00  0.00    -0.229 NA
ATOM     10  C   UNL     1      32.997 -23.246 -15.966  0.00  0.00    +0.152 C 
ATOM     11  C   UNL     1      33.615 -22.841 -18.038  0.00  0.00    +0.223 C 
ATOM     12  C   UNL     1      31.907 -22.947 -16.767  0.00  0.00    +0.140 C 
ATOM     13  C   UNL     1      30.657 -22.952 -16.157  0.00  0.00    +0.143 C 
ATOM     14  C   UNL     1      31.722 -23.515 -14.179  0.00  0.00    +0.253 C 
ATOM     15  N   UNL     1      29.496 -22.662 -16.895  0.00  0.00    -0.342 N 
ATOM     16  H   UNL     1      28.617 -22.668 -16.453  0.00  0.00    +0.144 HD
ATOM     17  H   UNL     1      29.563 -22.451 -17.855  0.00  0.00    +0.144 HD
ENDBRANCH   5   6
BRANCH   3  18
ATOM     18  O   UNL     1      38.350 -23.297 -15.981  0.00  0.00    -0.379 OA
ATOM     19  H   UNL     1      38.144 -24.234 -16.123  0.00  0.00    +0.211 HD
ENDBRANCH   3  18
BRANCH   4  20
ATOM     20  O   UNL     1      36.742 -21.475 -17.199  0.00  0.00    -0.378 OA
ATOM     21  H   UNL     1      36.025 -20.975 -17.621  0.00  0.00    +0.211 HD
ENDBRANCH   4  20
BRANCH   2  22
ATOM     22  C   UNL     1      35.980 -23.318 -13.112  0.00  0.00    +0.080 C 
BRANCH  22  23
ATOM     23  S   UNL     1      36.894 -23.928 -11.668  0.00  0.00    -0.176 S 
ATOM     24  C   UNL     1      35.443 -24.373 -10.686  0.00  0.00    +0.059 C 
BRANCH  23  25
ATOM     25  C   UNL     1      37.218 -25.581 -12.321  0.00  0.00    +0.047 C 
BRANCH  25  26
ATOM     26  C   UNL     1      38.713 -25.782 -12.555  0.00  0.00    -0.000 C 
BRANCH  26  27
ATOM     27  CA  UNL     1      39.058 -25.810 -14.046  0.00  0.00    +0.041 C 
BRANCH  27  28
ATOM     28  N   UNL     1      38.586 -27.065 -14.637  0.00  0.00    +0.389 N 
ATOM     29  H1  UNL     1      38.081 -26.865 -15.500  0.00  0.00    -0.088 HD
ATOM     30  H2  UNL     1      37.964 -27.537 -13.981  0.00  0.00    -0.088 HD
ATOM     31  H3  UNL     1      39.385 -27.665 -14.841  0.00  0.00    -0.088 HD
ENDBRANCH  27  28
BRANCH  27  34
ATOM     32  O   UNL     1      40.979 -24.682 -14.832  0.00  0.00    -0.248 OA
ATOM     33  OXT UNL     1      41.201 -26.849 -14.144  0.00  0.00    -0.248 OA
ATOM     34  C   UNL     1      40.561 -25.784 -14.370  0.00  0.00    +0.345 C 
ENDBRANCH  27  34
ENDBRANCH  26  27
ENDBRANCH  25  26
ENDBRANCH  23  25
ENDBRANCH  22  23
ENDBRANCH   2  22
TORSDOF 10
ENDMDL
MODEL 7
REMARK VINA RESULT:      -8.1      9.600     12.524
REMARK  Name = 34755
REMARK  10 active torsions:
REMARK  status: ('A' for Active; 'I' for Inactive)
REMARK    1  A    between atoms: C_2  and  C_22
REMARK    2  A    between atoms: C_3  and  O_18
REMARK    3  A    between atoms: C_4  and  O_20
REMARK    4  A    between atoms: C_5  and  N_6
REMARK    5  A    between atoms: C_22  and  S_23
REMARK    6  A    between atoms: S_23  and  C_25
REMARK    7  A    between atoms: C_25  and  C_26
REMARK    8  A    between atoms: C_26  and  CA_27
REMARK    9  A    between atoms: CA_27  and  N_28
REMARK   10  A    between atoms: CA_27  and  C_34
REMARK                            x       y       z     vdW  Elec       q    Type
REMARK                         _______ _______ _______ _____ _____    ______ ____
ROOT
ATOM      1  O   UNL     1      34.166 -13.299 -22.505  0.00  0.00    -0.335 OA
ATOM      2  C   UNL     1      33.088 -12.544 -23.106  0.00  0.00    +0.156 C 
ATOM      3  C   UNL     1      32.737 -13.256 -24.409  0.00  0.00    +0.169 C 
ATOM      4  C   UNL     1      33.110 -14.692 -24.103  0.00  0.00    +0.187 C 
ATOM      5  C   UNL     1      34.365 -14.507 -23.264  0.00  0.00    +0.225 C 
ENDROOT
BRANCH   5   6
ATOM      6  N   UNL     1      34.645 -15.619 -22.357  0.00  0.00    -0.247 N 
ATOM      7  N   UNL     1      35.021 -16.709 -20.448  0.00  0.00    -0.242 NA
ATOM      8  N   UNL     1      34.801 -17.467 -23.927  0.00  0.00    -0.228 NA
ATOM      9  N   UNL     1      35.272 -19.568 -22.780  0.00  0.00    -0.229 NA
ATOM     10  C   UNL     1      34.833 -16.929 -22.698  0.00  0.00    +0.152 C 
ATOM     11  C   UNL     1      34.768 -15.538 -20.995  0.00  0.00    +0.223 C 
ATOM     12  C   UNL     1      35.065 -17.588 -21.501  0.00  0.00    +0.140 C 
ATOM     13  C   UNL     1      35.289 -18.958 -21.571  0.00  0.00    +0.143 C 
ATOM     14  C   UNL     1      35.033 -18.796 -23.867  0.00  0.00    +0.253 C 
ATOM     15  N   UNL     1      35.531 -19.706 -20.405  0.00  0.00    -0.342 N 
ATOM     16  H   UNL     1      35.690 -20.676 -20.466  0.00  0.00    +0.144 HD
ATOM     17  H   UNL     1      35.542 -19.260 -19.527  0.00  0.00    +0.144 HD
ENDBRANCH   5   6
BRANCH   3  18
ATOM     18  O   UNL     1      33.579 -12.755 -25.448  0.00  0.00    -0.379 OA
ATOM     19  H   UNL     1      33.223 -13.020 -26.310  0.00  0.00    +0.211 HD
ENDBRANCH   3  18
BRANCH   4  20
ATOM     20  O   UNL     1      33.361 -15.458 -25.265  0.00  0.00    -0.378 OA
ATOM     21  H   UNL     1      33.807 -14.907 -25.926  0.00  0.00    +0.211 HD
ENDBRANCH   4  20
BRANCH   2  22
ATOM     22  C   UNL     1      31.926 -12.499 -22.123  0.00  0.00    +0.080 C 
BRANCH  22  23
ATOM     23  S   UNL     1      31.135 -10.866 -22.108  0.00  0.00    -0.176 S 
ATOM     24  C   UNL     1      31.570 -10.450 -20.404  0.00  0.00    +0.059 C 
BRANCH  23  25
ATOM     25  C   UNL     1      32.498  -9.977 -22.893  0.00  0.00    +0.047 C 
BRANCH  25  26
ATOM     26  C   UNL     1      31.976  -8.771 -23.669  0.00  0.00    -0.000 C 
BRANCH  26  27
ATOM     27  CA  UNL     1      32.505  -7.453 -23.094  0.00  0.00    +0.041 C 
BRANCH  27  28
ATOM     28  N   UNL     1      33.772  -7.692 -22.401  0.00  0.00    +0.389 N 
ATOM     29  H1  UNL     1      33.661  -7.488 -21.408  0.00  0.00    -0.088 HD
ATOM     30  H2  UNL     1      34.494  -7.086 -22.794  0.00  0.00    -0.088 HD
ATOM     31  H3  UNL     1      34.046  -8.667 -22.520  0.00  0.00    -0.088 HD
ENDBRANCH  27  28
BRANCH  27  34
ATOM     32  O   UNL     1      30.604  -6.187 -22.490  0.00  0.00    -0.248 OA
ATOM     33  OXT UNL     1      31.973  -6.946 -20.826  0.00  0.00    -0.248 OA
ATOM     34  C   UNL     1      31.609  -6.801 -22.027  0.00  0.00    +0.345 C 
ENDBRANCH  27  34
ENDBRANCH  26  27
ENDBRANCH  25  26
ENDBRANCH  23  25
ENDBRANCH  22  23
ENDBRANCH   2  22
TORSDOF 10
ENDMDL
MODEL 8
REMARK VINA RESULT:      -8.1      7.448     10.814
REMARK  Name = 34755
REMARK  10 active torsions:
REMARK  status: ('A' for Active; 'I' for Inactive)
REMARK    1  A    between atoms: C_2  and  C_22
REMARK    2  A    between atoms: C_3  and  O_18
REMARK    3  A    between atoms: C_4  and  O_20
REMARK    4  A    between atoms: C_5  and  N_6
REMARK    5  A    between atoms: C_22  and  S_23
REMARK    6  A    between atoms: S_23  and  C_25
REMARK    7  A    between atoms: C_25  and  C_26
REMARK    8  A    between atoms: C_26  and  CA_27
REMARK    9  A    between atoms: CA_27  and  N_28
REMARK   10  A    between atoms: CA_27  and  C_34
REMARK                            x       y       z     vdW  Elec       q    Type
REMARK                         _______ _______ _______ _____ _____    ______ ____
ROOT
ATOM      1  O   UNL     1      35.807 -16.754 -22.242  0.00  0.00    -0.335 OA
ATOM      2  C   UNL     1      34.907 -15.926 -23.016  0.00  0.00    +0.156 C 
ATOM      3  C   UNL     1      34.426 -16.785 -24.181  0.00  0.00    +0.169 C 
ATOM      4  C   UNL     1      34.500 -18.183 -23.604  0.00  0.00    +0.187 C 
ATOM      5  C   UNL     1      35.762 -18.097 -22.760  0.00  0.00    +0.225 C 
ENDROOT
BRANCH   5   6
ATOM      6  N   UNL     1      35.806 -19.052 -21.654  0.00  0.00    -0.247 N 
ATOM      7  N   UNL     1      36.652 -20.315 -20.021  0.00  0.00    -0.242 NA
ATOM      8  N   UNL     1      33.461 -19.660 -21.475  0.00  0.00    -0.228 NA
ATOM      9  N   UNL     1      33.098 -21.285 -19.691  0.00  0.00    -0.229 NA
ATOM     10  C   UNL     1      34.750 -19.729 -21.111  0.00  0.00    +0.152 C 
ATOM     11  C   UNL     1      36.926 -19.439 -20.966  0.00  0.00    +0.223 C 
ATOM     12  C   UNL     1      35.295 -20.505 -20.101  0.00  0.00    +0.140 C 
ATOM     13  C   UNL     1      34.416 -21.304 -19.378  0.00  0.00    +0.143 C 
ATOM     14  C   UNL     1      32.708 -20.476 -20.705  0.00  0.00    +0.253 C 
ATOM     15  N   UNL     1      34.882 -22.122 -18.334  0.00  0.00    -0.342 N 
ATOM     16  H   UNL     1      34.251 -22.684 -17.829  0.00  0.00    +0.144 HD
ATOM     17  H   UNL     1      35.841 -22.134 -18.108  0.00  0.00    +0.144 HD
ENDBRANCH   5   6
BRANCH   3  18
ATOM     18  O   UNL     1      35.358 -16.664 -25.257  0.00  0.00    -0.379 OA
ATOM     19  H   UNL     1      35.954 -17.429 -25.257  0.00  0.00    +0.211 HD
ENDBRANCH   3  18
BRANCH   4  20
ATOM     20  O   UNL     1      34.596 -19.187 -24.595  0.00  0.00    -0.378 OA
ATOM     21  H   UNL     1      34.049 -18.943 -25.357  0.00  0.00    +0.211 HD
ENDBRANCH   4  20
BRANCH   2  22
ATOM     22  C   UNL     1      33.773 -15.469 -22.108  0.00  0.00    +0.080 C 
BRANCH  22  23
ATOM     23  S   UNL     1      32.624 -14.373 -22.986  0.00  0.00    -0.176 S 
ATOM     24  C   UNL     1      32.310 -13.260 -21.597  0.00  0.00    +0.059 C 
BRANCH  23  25
ATOM     25  C   UNL     1      33.887 -13.358 -23.785  0.00  0.00    +0.047 C 
BRANCH  25  26
ATOM     26  C   UNL     1      33.569 -11.875 -23.617  0.00  0.00    -0.000 C 
BRANCH  26  27
ATOM     27  CA  UNL     1      33.748 -11.102 -24.927  0.00  0.00    +0.041 C 
BRANCH  27  28
ATOM     28  N   UNL     1      33.894 -12.045 -26.038  0.00  0.00    +0.389 N 
ATOM     29  H1  UNL     1      34.336 -12.901 -25.702  0.00  0.00    -0.088 HD
ATOM     30  H2  UNL     1      34.473 -11.626 -26.766  0.00  0.00    -0.088 HD
ATOM     31  H3  UNL     1      32.974 -12.265 -26.419  0.00  0.00    -0.088 HD
ENDBRANCH  27  28
BRANCH  27  34
ATOM     32  O   UNL     1      35.658 -10.336 -26.089  0.00  0.00    -0.248 OA
ATOM     33  OXT UNL     1      35.269  -9.524 -23.990  0.00  0.00    -0.248 OA
ATOM     34  C   UNL     1      35.015 -10.232 -25.004  0.00  0.00    +0.345 C 
ENDBRANCH  27  34
ENDBRANCH  26  27
ENDBRANCH  25  26
ENDBRANCH  23  25
ENDBRANCH  22  23
ENDBRANCH   2  22
TORSDOF 10
ENDMDL
MODEL 9
REMARK VINA RESULT:      -7.8      1.365      2.313
REMARK  Name = 34755
REMARK  10 active torsions:
REMARK  status: ('A' for Active; 'I' for Inactive)
REMARK    1  A    between atoms: C_2  and  C_22
REMARK    2  A    between atoms: C_3  and  O_18
REMARK    3  A    between atoms: C_4  and  O_20
REMARK    4  A    between atoms: C_5  and  N_6
REMARK    5  A    between atoms: C_22  and  S_23
REMARK    6  A    between atoms: S_23  and  C_25
REMARK    7  A    between atoms: C_25  and  C_26
REMARK    8  A    between atoms: C_26  and  CA_27
REMARK    9  A    between atoms: CA_27  and  N_28
REMARK   10  A    between atoms: CA_27  and  C_34
REMARK                            x       y       z     vdW  Elec       q    Type
REMARK                         _______ _______ _______ _____ _____    ______ ____
ROOT
ATOM      1  O   UNL     1      34.635 -23.120 -18.194  0.00  0.00    -0.335 OA
ATOM      2  C   UNL     1      34.182 -23.433 -16.857  0.00  0.00    +0.156 C 
ATOM      3  C   UNL     1      35.320 -23.050 -15.915  0.00  0.00    +0.169 C 
ATOM      4  C   UNL     1      36.000 -21.927 -16.671  0.00  0.00    +0.187 C 
ATOM      5  C   UNL     1      35.888 -22.417 -18.107  0.00  0.00    +0.225 C 
ENDROOT
BRANCH   5   6
ATOM      6  N   UNL     1      35.925 -21.349 -19.105  0.00  0.00    -0.247 N 
ATOM      7  N   UNL     1      36.764 -19.779 -20.449  0.00  0.00    -0.242 NA
ATOM      8  N   UNL     1      33.568 -21.152 -19.658  0.00  0.00    -0.228 NA
ATOM      9  N   UNL     1      33.192 -19.426 -21.341  0.00  0.00    -0.229 NA
ATOM     10  C   UNL     1      34.861 -20.814 -19.774  0.00  0.00    +0.152 C 
ATOM     11  C   UNL     1      37.045 -20.693 -19.545  0.00  0.00    +0.223 C 
ATOM     12  C   UNL     1      35.402 -19.843 -20.602  0.00  0.00    +0.140 C 
ATOM     13  C   UNL     1      34.514 -19.137 -21.407  0.00  0.00    +0.143 C 
ATOM     14  C   UNL     1      32.807 -20.401 -20.483  0.00  0.00    +0.253 C 
ATOM     15  N   UNL     1      34.975 -18.135 -22.278  0.00  0.00    -0.342 N 
ATOM     16  H   UNL     1      34.338 -17.641 -22.843  0.00  0.00    +0.144 HD
ATOM     17  H   UNL     1      35.937 -17.928 -22.325  0.00  0.00    +0.144 HD
ENDBRANCH   5   6
BRANCH   3  18
ATOM     18  O   UNL     1      36.214 -24.158 -15.801  0.00  0.00    -0.379 OA
ATOM     19  H   UNL     1      35.882 -24.775 -15.130  0.00  0.00    +0.211 HD
ENDBRANCH   3  18
BRANCH   4  20
ATOM     20  O   UNL     1      37.346 -21.734 -16.283  0.00  0.00    -0.378 OA
ATOM     21  H   UNL     1      37.648 -20.864 -16.586  0.00  0.00    +0.211 HD
ENDBRANCH   4  20
BRANCH   2  22
ATOM     22  C   UNL     1      32.902 -22.653 -16.587  0.00  0.00    +0.080 C 
BRANCH  22  23
ATOM     23  S   UNL     1      31.646 -23.696 -15.795  0.00  0.00    -0.176 S 
ATOM     24  C   UNL     1      31.608 -22.803 -14.224  0.00  0.00    +0.059 C 
BRANCH  23  25
ATOM     25  C   UNL     1      30.214 -22.879 -16.533  0.00  0.00    +0.047 C 
BRANCH  25  26
ATOM     26  C   UNL     1      29.148 -22.605 -15.476  0.00  0.00    -0.000 C 
BRANCH  26  27
ATOM     27  CA  UNL     1      27.777 -23.140 -15.898  0.00  0.00    +0.041 C 
BRANCH  27  28
ATOM     28  N   UNL     1      27.931 -24.038 -17.044  0.00  0.00    +0.389 N 
ATOM     29  H1  UNL     1      27.309 -23.741 -17.796  0.00  0.00    -0.088 HD
ATOM     30  H2  UNL     1      27.695 -24.990 -16.764  0.00  0.00    -0.088 HD
ATOM     31  H3  UNL     1      28.897 -24.009 -17.371  0.00  0.00    -0.088 HD
ENDBRANCH  27  28
BRANCH  27  34
ATOM     32  O   UNL     1      25.650 -22.114 -15.823  0.00  0.00    -0.248 OA
ATOM     33  OXT UNL     1      27.198 -21.289 -17.286  0.00  0.00    -0.248 OA
ATOM     34  C   UNL     1      26.782 -22.073 -16.387  0.00  0.00    +0.345 C 
ENDBRANCH  27  34
ENDBRANCH  26  27
ENDBRANCH  25  26
ENDBRANCH  23  25
ENDBRANCH  22  23
ENDBRANCH   2  22
TORSDOF 10
ENDMDL
