MODEL 1
REMARK VINA RESULT:      -9.3      0.000      0.000
REMARK  Name = 11348631
REMARK  0 active torsions:
REMARK  status: ('A' for Active; 'I' for Inactive)
REMARK                            x       y       z     vdW  Elec       q    Type
REMARK                         _______ _______ _______ _____ _____    ______ ____
ROOT
ATOM      1 CL   UNL     1      32.864 -16.305 -26.583  0.00  0.00    -0.082 Cl
ATOM      2  O   UNL     1      33.685 -10.853 -24.526  0.00  0.00    -0.474 OA
ATOM      3  O   UNL     1      32.073  -8.248 -21.860  0.00  0.00    -0.451 OA
ATOM      4  O   UNL     1      32.109 -14.708 -21.861  0.00  0.00    -0.252 OA
ATOM      5  N   UNL     1      32.630 -12.679 -22.876  0.00  0.00    -0.266 N 
ATOM      6  N   UNL     1      31.931 -12.822 -20.630  0.00  0.00    -0.245 N 
ATOM      7  N   UNL     1      32.054 -10.490 -21.285  0.00  0.00    -0.353 NA
ATOM      8  N   UNL     1      31.548  -9.790 -18.622  0.00  0.00    -0.254 NA
ATOM      9  C   UNL     1      33.653  -7.871 -24.259  0.00  0.00    +0.008 C 
ATOM     10  C   UNL     1      34.866  -8.807 -24.204  0.00  0.00    +0.047 C 
ATOM     11  C   UNL     1      33.607  -6.869 -23.101  0.00  0.00    +0.048 C 
ATOM     12  C   UNL     1      34.681 -10.017 -25.120  0.00  0.00    +0.205 C 
ATOM     13  C   UNL     1      33.295  -7.512 -21.747  0.00  0.00    +0.208 C 
ATOM     14  C   UNL     1      33.534 -12.112 -25.052  0.00  0.00    +0.152 C 
ATOM     15  C   UNL     1      32.963 -13.080 -24.199  0.00  0.00    +0.087 C 
ATOM     16  C   UNL     1      33.888 -12.449 -26.364  0.00  0.00    +0.039 C 
ATOM     17  C   UNL     1      32.760 -14.376 -24.688  0.00  0.00    +0.029 C 
ATOM     18  C   UNL     1      31.975  -9.203 -20.882  0.00  0.00    +0.298 C 
ATOM     19  C   UNL     1      33.684 -13.746 -26.832  0.00  0.00    +0.015 C 
ATOM     20  C   UNL     1      33.122 -14.706 -25.997  0.00  0.00    +0.059 C 
ATOM     21  C   UNL     1      32.214 -13.479 -21.823  0.00  0.00    +0.310 C 
ATOM     22  C   UNL     1      31.886 -11.439 -20.341  0.00  0.00    +0.192 C 
ATOM     23  C   UNL     1      31.716  -8.857 -19.575  0.00  0.00    +0.165 C 
ATOM     24  C   UNL     1      31.634 -11.076 -19.026  0.00  0.00    +0.200 C 
ATOM     25  H   UNL     1      32.706 -11.717 -22.684  0.00  0.00    +0.157 HD
ATOM     26  H   UNL     1      31.730 -13.412 -19.867  0.00  0.00    +0.159 HD
ENDROOT
TORSDOF 0
ENDMDL
MODEL 2
REMARK VINA RESULT:      -8.7     12.389     14.800
REMARK  Name = 11348631
REMARK  0 active torsions:
REMARK  status: ('A' for Active; 'I' for Inactive)
REMARK                            x       y       z     vdW  Elec       q    Type
REMARK                         _______ _______ _______ _____ _____    ______ ____
ROOT
ATOM      1 CL   UNL     1      39.136 -25.807 -12.283  0.00  0.00    -0.082 Cl
ATOM      2  O   UNL     1      36.205 -23.021 -16.558  0.00  0.00    -0.474 OA
ATOM      3  O   UNL     1      32.513 -22.901 -18.245  0.00  0.00    -0.451 OA
ATOM      4  O   UNL     1      34.287 -24.425 -12.223  0.00  0.00    -0.252 OA
ATOM      5  N   UNL     1      34.833 -23.827 -14.405  0.00  0.00    -0.266 N 
ATOM      6  N   UNL     1      32.631 -23.694 -13.574  0.00  0.00    -0.245 N 
ATOM      7  N   UNL     1      32.616 -23.254 -15.960  0.00  0.00    -0.353 NA
ATOM      8  N   UNL     1      29.903 -22.595 -15.747  0.00  0.00    -0.254 NA
ATOM      9  C   UNL     1      35.147 -22.236 -19.247  0.00  0.00    +0.008 C 
ATOM     10  C   UNL     1      35.858 -21.346 -18.221  0.00  0.00    +0.047 C 
ATOM     11  C   UNL     1      33.850 -21.624 -19.785  0.00  0.00    +0.048 C 
ATOM     12  C   UNL     1      36.905 -22.131 -17.431  0.00  0.00    +0.205 C 
ATOM     13  C   UNL     1      32.720 -21.580 -18.754  0.00  0.00    +0.208 C 
ATOM     14  C   UNL     1      36.942 -23.648 -15.585  0.00  0.00    +0.152 C 
ATOM     15  C   UNL     1      36.228 -24.094 -14.452  0.00  0.00    +0.087 C 
ATOM     16  C   UNL     1      38.320 -23.876 -15.684  0.00  0.00    +0.039 C 
ATOM     17  C   UNL     1      36.922 -24.763 -13.437  0.00  0.00    +0.029 C 
ATOM     18  C   UNL     1      31.882 -22.872 -17.028  0.00  0.00    +0.298 C 
ATOM     19  C   UNL     1      38.995 -24.539 -14.661  0.00  0.00    +0.015 C 
ATOM     20  C   UNL     1      38.298 -24.981 -13.542  0.00  0.00    +0.059 C 
ATOM     21  C   UNL     1      33.963 -24.021 -13.344  0.00  0.00    +0.310 C 
ATOM     22  C   UNL     1      31.985 -23.298 -14.767  0.00  0.00    +0.192 C 
ATOM     23  C   UNL     1      30.546 -22.557 -16.927  0.00  0.00    +0.165 C 
ATOM     24  C   UNL     1      30.640 -22.971 -14.680  0.00  0.00    +0.200 C 
ATOM     25  H   UNL     1      34.435 -23.458 -15.227  0.00  0.00    +0.157 HD
ATOM     26  H   UNL     1      32.046 -23.746 -12.784  0.00  0.00    +0.159 HD
ENDROOT
TORSDOF 0
ENDMDL
MODEL 3
REMARK VINA RESULT:      -7.9      2.963      5.981
REMARK  Name = 11348631
REMARK  0 active torsions:
REMARK  status: ('A' for Active; 'I' for Inactive)
REMARK                            x       y       z     vdW  Elec       q    Type
REMARK                         _______ _______ _______ _____ _____    ______ ____
ROOT
ATOM      1 CL   UNL     1      34.057  -5.286 -26.457  0.00  0.00    -0.082 Cl
ATOM      2  O   UNL     1      32.602  -8.623 -21.834  0.00  0.00    -0.474 OA
ATOM      3  O   UNL     1      31.372 -12.396 -20.972  0.00  0.00    -0.451 OA
ATOM      4  O   UNL     1      34.966 -10.211 -25.875  0.00  0.00    -0.252 OA
ATOM      5  N   UNL     1      33.703  -9.822 -23.959  0.00  0.00    -0.266 N 
ATOM      6  N   UNL     1      34.404 -11.982 -24.590  0.00  0.00    -0.245 N 
ATOM      7  N   UNL     1      32.879 -12.151 -22.711  0.00  0.00    -0.353 NA
ATOM      8  N   UNL     1      33.449 -14.889 -22.588  0.00  0.00    -0.254 NA
ATOM      9  C   UNL     1      31.063  -9.870 -19.589  0.00  0.00    +0.008 C 
ATOM     10  C   UNL     1      32.427  -9.173 -19.519  0.00  0.00    +0.047 C 
ATOM     11  C   UNL     1      31.043 -11.233 -18.890  0.00  0.00    +0.048 C 
ATOM     12  C   UNL     1      32.524  -8.033 -20.533  0.00  0.00    +0.205 C 
ATOM     13  C   UNL     1      31.847 -12.309 -19.624  0.00  0.00    +0.208 C 
ATOM     14  C   UNL     1      32.939  -7.794 -22.874  0.00  0.00    +0.152 C 
ATOM     15  C   UNL     1      33.504  -8.415 -24.009  0.00  0.00    +0.087 C 
ATOM     16  C   UNL     1      32.724  -6.410 -22.862  0.00  0.00    +0.039 C 
ATOM     17  C   UNL     1      33.844  -7.625 -25.112  0.00  0.00    +0.029 C 
ATOM     18  C   UNL     1      32.311 -12.963 -21.794  0.00  0.00    +0.298 C 
ATOM     19  C   UNL     1      33.075  -5.639 -23.968  0.00  0.00    +0.015 C 
ATOM     20  C   UNL     1      33.632  -6.243 -25.089  0.00  0.00    +0.059 C 
ATOM     21  C   UNL     1      34.376 -10.620 -24.871  0.00  0.00    +0.310 C 
ATOM     22  C   UNL     1      33.751 -12.715 -23.574  0.00  0.00    +0.192 C 
ATOM     23  C   UNL     1      32.583 -14.312 -21.738  0.00  0.00    +0.165 C 
ATOM     24  C   UNL     1      34.021 -14.073 -23.500  0.00  0.00    +0.200 C 
ATOM     25  H   UNL     1      33.316 -10.287 -23.182  0.00  0.00    +0.157 HD
ATOM     26  H   UNL     1      34.966 -12.520 -25.194  0.00  0.00    +0.159 HD
ENDROOT
TORSDOF 0
ENDMDL
MODEL 4
REMARK VINA RESULT:      -7.5     11.886     14.593
REMARK  Name = 11348631
REMARK  0 active torsions:
REMARK  status: ('A' for Active; 'I' for Inactive)
REMARK                            x       y       z     vdW  Elec       q    Type
REMARK                         _______ _______ _______ _____ _____    ______ ____
ROOT
ATOM      1 CL   UNL     1      36.671 -20.722 -21.223  0.00  0.00    -0.082 Cl
ATOM      2  O   UNL     1      33.151 -22.834 -17.006  0.00  0.00    -0.474 OA
ATOM      3  O   UNL     1      33.303 -25.201 -13.710  0.00  0.00    -0.451 OA
ATOM      4  O   UNL     1      37.872 -21.502 -16.388  0.00  0.00    -0.252 OA
ATOM      5  N   UNL     1      35.721 -22.392 -16.401  0.00  0.00    -0.266 N 
ATOM      6  N   UNL     1      37.131 -22.525 -14.516  0.00  0.00    -0.245 N 
ATOM      7  N   UNL     1      35.138 -23.853 -14.124  0.00  0.00    -0.353 NA
ATOM      8  N   UNL     1      36.005 -24.244 -11.491  0.00  0.00    -0.254 NA
ATOM      9  C   UNL     1      31.159 -24.512 -15.531  0.00  0.00    +0.008 C 
ATOM     10  C   UNL     1      31.144 -22.992 -15.727  0.00  0.00    +0.047 C 
ATOM     11  C   UNL     1      30.939 -24.938 -14.076  0.00  0.00    +0.048 C 
ATOM     12  C   UNL     1      31.743 -22.597 -17.077  0.00  0.00    +0.205 C 
ATOM     13  C   UNL     1      32.120 -24.614 -13.158  0.00  0.00    +0.208 C 
ATOM     14  C   UNL     1      33.921 -22.324 -18.021  0.00  0.00    +0.152 C 
ATOM     15  C   UNL     1      35.282 -22.102 -17.721  0.00  0.00    +0.087 C 
ATOM     16  C   UNL     1      33.429 -22.051 -19.304  0.00  0.00    +0.039 C 
ATOM     17  C   UNL     1      36.123 -21.606 -18.725  0.00  0.00    +0.029 C 
ATOM     18  C   UNL     1      34.432 -24.585 -13.235  0.00  0.00    +0.298 C 
ATOM     19  C   UNL     1      34.279 -21.552 -20.288  0.00  0.00    +0.015 C 
ATOM     20  C   UNL     1      35.622 -21.331 -20.000  0.00  0.00    +0.059 C 
ATOM     21  C   UNL     1      36.953 -22.110 -15.832  0.00  0.00    +0.310 C 
ATOM     22  C   UNL     1      36.290 -23.302 -13.686  0.00  0.00    +0.192 C 
ATOM     23  C   UNL     1      34.861 -24.786 -11.943  0.00  0.00    +0.165 C 
ATOM     24  C   UNL     1      36.706 -23.507 -12.379  0.00  0.00    +0.200 C 
ATOM     25  H   UNL     1      35.071 -22.847 -15.818  0.00  0.00    +0.157 HD
ATOM     26  H   UNL     1      37.972 -22.233 -14.097  0.00  0.00    +0.159 HD
ENDROOT
TORSDOF 0
ENDMDL
MODEL 5
REMARK VINA RESULT:      -7.5     11.796     14.357
REMARK  Name = 11348631
REMARK  0 active torsions:
REMARK  status: ('A' for Active; 'I' for Inactive)
REMARK                            x       y       z     vdW  Elec       q    Type
REMARK                         _______ _______ _______ _____ _____    ______ ____
ROOT
ATOM      1 CL   UNL     1      35.279 -19.910 -21.461  0.00  0.00    -0.082 Cl
ATOM      2  O   UNL     1      36.467 -22.728 -16.433  0.00  0.00    -0.474 OA
ATOM      3  O   UNL     1      34.731 -23.627 -12.874  0.00  0.00    -0.451 OA
ATOM      4  O   UNL     1      32.057 -22.596 -18.664  0.00  0.00    -0.252 OA
ATOM      5  N   UNL     1      33.929 -22.678 -17.283  0.00  0.00    -0.266 N 
ATOM      6  N   UNL     1      31.839 -23.551 -16.628  0.00  0.00    -0.245 N 
ATOM      7  N   UNL     1      33.361 -23.610 -14.740  0.00  0.00    -0.353 NA
ATOM      8  N   UNL     1      31.418 -25.032 -13.311  0.00  0.00    -0.254 NA
ATOM      9  C   UNL     1      37.496 -23.361 -13.694  0.00  0.00    +0.008 C 
ATOM     10  C   UNL     1      37.709 -24.160 -14.986  0.00  0.00    +0.047 C 
ATOM     11  C   UNL     1      37.035 -24.225 -12.516  0.00  0.00    +0.048 C 
ATOM     12  C   UNL     1      37.782 -23.241 -16.205  0.00  0.00    +0.205 C 
ATOM     13  C   UNL     1      35.601 -24.743 -12.661  0.00  0.00    +0.208 C 
ATOM     14  C   UNL     1      36.251 -22.074 -17.620  0.00  0.00    +0.152 C 
ATOM     15  C   UNL     1      34.915 -22.025 -18.072  0.00  0.00    +0.087 C 
ATOM     16  C   UNL     1      37.267 -21.454 -18.358  0.00  0.00    +0.039 C 
ATOM     17  C   UNL     1      34.629 -21.349 -19.263  0.00  0.00    +0.029 C 
ATOM     18  C   UNL     1      33.558 -24.017 -13.467  0.00  0.00    +0.298 C 
ATOM     19  C   UNL     1      36.964 -20.791 -19.546  0.00  0.00    +0.015 C 
ATOM     20  C   UNL     1      35.649 -20.738 -19.997  0.00  0.00    +0.059 C 
ATOM     21  C   UNL     1      32.597 -22.900 -17.597  0.00  0.00    +0.310 C 
ATOM     22  C   UNL     1      32.179 -23.927 -15.309  0.00  0.00    +0.192 C 
ATOM     23  C   UNL     1      32.600 -24.708 -12.760  0.00  0.00    +0.165 C 
ATOM     24  C   UNL     1      31.226 -24.630 -14.586  0.00  0.00    +0.200 C 
ATOM     25  H   UNL     1      34.228 -23.016 -16.408  0.00  0.00    +0.157 HD
ATOM     26  H   UNL     1      30.924 -23.787 -16.904  0.00  0.00    +0.159 HD
ENDROOT
TORSDOF 0
ENDMDL
MODEL 6
REMARK VINA RESULT:      -7.4      2.069      4.451
REMARK  Name = 11348631
REMARK  0 active torsions:
REMARK  status: ('A' for Active; 'I' for Inactive)
REMARK                            x       y       z     vdW  Elec       q    Type
REMARK                         _______ _______ _______ _____ _____    ______ ____
ROOT
ATOM      1 CL   UNL     1      34.444 -17.008 -24.121  0.00  0.00    -0.082 Cl
ATOM      2  O   UNL     1      32.440 -12.158 -21.457  0.00  0.00    -0.474 OA
ATOM      3  O   UNL     1      33.327  -8.214 -21.078  0.00  0.00    -0.451 OA
ATOM      4  O   UNL     1      34.544 -12.303 -25.929  0.00  0.00    -0.252 OA
ATOM      5  N   UNL     1      33.711 -11.880 -23.797  0.00  0.00    -0.266 N 
ATOM      6  N   UNL     1      34.267 -10.151 -25.300  0.00  0.00    -0.245 N 
ATOM      7  N   UNL     1      33.740  -9.193 -23.134  0.00  0.00    -0.353 NA
ATOM      8  N   UNL     1      33.913  -6.652 -24.297  0.00  0.00    -0.254 NA
ATOM      9  C   UNL     1      31.875 -10.067 -19.391  0.00  0.00    +0.008 C 
ATOM     10  C   UNL     1      30.865 -10.834 -20.252  0.00  0.00    +0.047 C 
ATOM     11  C   UNL     1      31.644  -8.552 -19.390  0.00  0.00    +0.048 C 
ATOM     12  C   UNL     1      31.345 -12.256 -20.543  0.00  0.00    +0.205 C 
ATOM     13  C   UNL     1      31.980  -7.881 -20.725  0.00  0.00    +0.208 C 
ATOM     14  C   UNL     1      32.869 -13.323 -22.042  0.00  0.00    +0.152 C 
ATOM     15  C   UNL     1      33.556 -13.190 -23.268  0.00  0.00    +0.087 C 
ATOM     16  C   UNL     1      32.680 -14.590 -21.475  0.00  0.00    +0.039 C 
ATOM     17  C   UNL     1      34.040 -14.342 -23.900  0.00  0.00    +0.029 C 
ATOM     18  C   UNL     1      33.540  -8.062 -22.424  0.00  0.00    +0.298 C 
ATOM     19  C   UNL     1      33.163 -15.725 -22.122  0.00  0.00    +0.015 C 
ATOM     20  C   UNL     1      33.841 -15.602 -23.329  0.00  0.00    +0.059 C 
ATOM     21  C   UNL     1      34.201 -11.516 -25.042  0.00  0.00    +0.310 C 
ATOM     22  C   UNL     1      34.022  -9.051 -24.446  0.00  0.00    +0.192 C 
ATOM     23  C   UNL     1      33.634  -6.811 -22.992  0.00  0.00    +0.165 C 
ATOM     24  C   UNL     1      34.107  -7.785 -25.006  0.00  0.00    +0.200 C 
ATOM     25  H   UNL     1      33.437 -11.140 -23.208  0.00  0.00    +0.157 HD
ATOM     26  H   UNL     1      34.524  -9.913 -26.220  0.00  0.00    +0.159 HD
ENDROOT
TORSDOF 0
ENDMDL
MODEL 7
REMARK VINA RESULT:      -7.1     11.344     14.177
REMARK  Name = 11348631
REMARK  0 active torsions:
REMARK  status: ('A' for Active; 'I' for Inactive)
REMARK                            x       y       z     vdW  Elec       q    Type
REMARK                         _______ _______ _______ _____ _____    ______ ____
ROOT
ATOM      1 CL   UNL     1      35.210 -19.748 -22.003  0.00  0.00    -0.082 Cl
ATOM      2  O   UNL     1      32.859 -22.552 -17.395  0.00  0.00    -0.474 OA
ATOM      3  O   UNL     1      33.850 -25.307 -14.581  0.00  0.00    -0.451 OA
ATOM      4  O   UNL     1      37.563 -21.073 -17.746  0.00  0.00    -0.252 OA
ATOM      5  N   UNL     1      35.490 -22.061 -17.365  0.00  0.00    -0.266 N 
ATOM      6  N   UNL     1      37.318 -22.362 -15.907  0.00  0.00    -0.245 N 
ATOM      7  N   UNL     1      35.505 -23.827 -15.234  0.00  0.00    -0.353 NA
ATOM      8  N   UNL     1      36.992 -24.504 -12.961  0.00  0.00    -0.254 NA
ATOM      9  C   UNL     1      31.315 -24.502 -15.728  0.00  0.00    +0.008 C 
ATOM     10  C   UNL     1      31.226 -22.971 -15.708  0.00  0.00    +0.047 C 
ATOM     11  C   UNL     1      31.463 -25.119 -14.333  0.00  0.00    +0.048 C 
ATOM     12  C   UNL     1      31.472 -22.379 -17.096  0.00  0.00    +0.205 C 
ATOM     13  C   UNL     1      32.826 -24.855 -13.688  0.00  0.00    +0.208 C 
ATOM     14  C   UNL     1      33.350 -21.879 -18.485  0.00  0.00    +0.152 C 
ATOM     15  C   UNL     1      34.739 -21.629 -18.492  0.00  0.00    +0.087 C 
ATOM     16  C   UNL     1      32.556 -21.471 -19.565  0.00  0.00    +0.039 C 
ATOM     17  C   UNL     1      35.301 -20.968 -19.590  0.00  0.00    +0.029 C 
ATOM     18  C   UNL     1      35.049 -24.700 -14.310  0.00  0.00    +0.298 C 
ATOM     19  C   UNL     1      33.133 -20.809 -20.647  0.00  0.00    +0.015 C 
ATOM     20  C   UNL     1      34.500 -20.559 -20.659  0.00  0.00    +0.059 C 
ATOM     21  C   UNL     1      36.819 -21.792 -17.074  0.00  0.00    +0.310 C 
ATOM     22  C   UNL     1      36.718 -23.278 -15.013  0.00  0.00    +0.192 C 
ATOM     23  C   UNL     1      35.783 -25.041 -13.197  0.00  0.00    +0.165 C 
ATOM     24  C   UNL     1      37.443 -23.626 -13.883  0.00  0.00    +0.200 C 
ATOM     25  H   UNL     1      35.009 -22.619 -16.712  0.00  0.00    +0.157 HD
ATOM     26  H   UNL     1      38.231 -22.083 -15.664  0.00  0.00    +0.159 HD
ENDROOT
TORSDOF 0
ENDMDL
MODEL 8
REMARK VINA RESULT:      -7.1     13.025     14.922
REMARK  Name = 11348631
REMARK  0 active torsions:
REMARK  status: ('A' for Active; 'I' for Inactive)
REMARK                            x       y       z     vdW  Elec       q    Type
REMARK                         _______ _______ _______ _____ _____    ______ ____
ROOT
ATOM      1 CL   UNL     1      27.540 -23.337 -15.140  0.00  0.00    -0.082 Cl
ATOM      2  O   UNL     1      33.101 -22.724 -16.964  0.00  0.00    -0.474 OA
ATOM      3  O   UNL     1      36.835 -22.178 -15.464  0.00  0.00    -0.451 OA
ATOM      4  O   UNL     1      31.684 -25.068 -12.848  0.00  0.00    -0.252 OA
ATOM      5  N   UNL     1      32.672 -23.875 -14.585  0.00  0.00    -0.266 N 
ATOM      6  N   UNL     1      33.935 -24.879 -12.866  0.00  0.00    -0.245 N 
ATOM      7  N   UNL     1      35.395 -23.517 -14.243  0.00  0.00    -0.353 NA
ATOM      8  N   UNL     1      37.574 -24.531 -12.807  0.00  0.00    -0.254 NA
ATOM      9  C   UNL     1      35.640 -21.545 -18.025  0.00  0.00    +0.008 C 
ATOM     10  C   UNL     1      34.890 -22.780 -18.540  0.00  0.00    +0.047 C 
ATOM     11  C   UNL     1      37.139 -21.789 -17.820  0.00  0.00    +0.048 C 
ATOM     12  C   UNL     1      33.379 -22.629 -18.363  0.00  0.00    +0.205 C 
ATOM     13  C   UNL     1      37.453 -22.712 -16.639  0.00  0.00    +0.208 C 
ATOM     14  C   UNL     1      31.785 -22.859 -16.598  0.00  0.00    +0.152 C 
ATOM     15  C   UNL     1      31.545 -23.448 -15.338  0.00  0.00    +0.087 C 
ATOM     16  C   UNL     1      30.714 -22.423 -17.388  0.00  0.00    +0.039 C 
ATOM     17  C   UNL     1      30.223 -23.588 -14.899  0.00  0.00    +0.029 C 
ATOM     18  C   UNL     1      36.667 -23.145 -14.507  0.00  0.00    +0.298 C 
ATOM     19  C   UNL     1      29.404 -22.577 -16.937  0.00  0.00    +0.015 C 
ATOM     20  C   UNL     1      29.160 -23.157 -15.697  0.00  0.00    +0.059 C 
ATOM     21  C   UNL     1      32.683 -24.614 -13.412  0.00  0.00    +0.310 C 
ATOM     22  C   UNL     1      35.213 -24.416 -13.253  0.00  0.00    +0.192 C 
ATOM     23  C   UNL     1      37.738 -23.635 -13.796  0.00  0.00    +0.165 C 
ATOM     24  C   UNL     1      36.303 -24.907 -12.550  0.00  0.00    +0.200 C 
ATOM     25  H   UNL     1      33.554 -23.617 -14.940  0.00  0.00    +0.157 HD
ATOM     26  H   UNL     1      33.930 -25.484 -12.089  0.00  0.00    +0.159 HD
ENDROOT
TORSDOF 0
ENDMDL
MODEL 9
REMARK VINA RESULT:      -7.0     12.862     15.593
REMARK  Name = 11348631
REMARK  0 active torsions:
REMARK  status: ('A' for Active; 'I' for Inactive)
REMARK                            x       y       z     vdW  Elec       q    Type
REMARK                         _______ _______ _______ _____ _____    ______ ____
ROOT
ATOM      1 CL   UNL     1      28.098 -24.653 -16.751  0.00  0.00    -0.082 Cl
ATOM      2  O   UNL     1      33.219 -24.245 -13.882  0.00  0.00    -0.474 OA
ATOM      3  O   UNL     1      37.214 -24.252 -14.611  0.00  0.00    -0.451 OA
ATOM      4  O   UNL     1      32.303 -22.393 -18.373  0.00  0.00    -0.252 OA
ATOM      5  N   UNL     1      33.099 -23.311 -16.387  0.00  0.00    -0.266 N 
ATOM      6  N   UNL     1      34.509 -22.209 -17.921  0.00  0.00    -0.245 N 
ATOM      7  N   UNL     1      35.858 -23.236 -16.186  0.00  0.00    -0.353 NA
ATOM      8  N   UNL     1      38.099 -21.957 -17.273  0.00  0.00    -0.254 NA
ATOM      9  C   UNL     1      35.648 -24.932 -12.271  0.00  0.00    +0.008 C 
ATOM     10  C   UNL     1      34.634 -23.811 -12.011  0.00  0.00    +0.047 C 
ATOM     11  C   UNL     1      37.103 -24.457 -12.215  0.00  0.00    +0.048 C 
ATOM     12  C   UNL     1      33.227 -24.217 -12.452  0.00  0.00    +0.205 C 
ATOM     13  C   UNL     1      37.501 -23.561 -13.391  0.00  0.00    +0.208 C 
ATOM     14  C   UNL     1      31.996 -24.349 -14.496  0.00  0.00    +0.152 C 
ATOM     15  C   UNL     1      31.922 -23.876 -15.823  0.00  0.00    +0.087 C 
ATOM     16  C   UNL     1      30.868 -24.910 -13.884  0.00  0.00    +0.039 C 
ATOM     17  C   UNL     1      30.707 -23.978 -16.510  0.00  0.00    +0.029 C 
ATOM     18  C   UNL     1      37.094 -23.379 -15.660  0.00  0.00    +0.298 C 
ATOM     19  C   UNL     1      29.665 -24.998 -14.582  0.00  0.00    +0.015 C 
ATOM     20  C   UNL     1      29.585 -24.534 -15.890  0.00  0.00    +0.059 C 
ATOM     21  C   UNL     1      33.229 -22.646 -17.597  0.00  0.00    +0.310 C 
ATOM     22  C   UNL     1      35.740 -22.434 -17.266  0.00  0.00    +0.192 C 
ATOM     23  C   UNL     1      38.198 -22.759 -16.200  0.00  0.00    +0.165 C 
ATOM     24  C   UNL     1      36.861 -21.810 -17.794  0.00  0.00    +0.200 C 
ATOM     25  H   UNL     1      33.921 -23.402 -15.854  0.00  0.00    +0.157 HD
ATOM     26  H   UNL     1      34.566 -21.656 -18.734  0.00  0.00    +0.159 HD
ENDROOT
TORSDOF 0
ENDMDL
