MODEL 1
REMARK VINA RESULT:      -9.5      0.000      0.000
REMARK  Name = 4578
REMARK  3 active torsions:
REMARK  status: ('A' for Active; 'I' for Inactive)
REMARK    1  A    between atoms: C_7  and  O_15
REMARK    2  A    between atoms: O_15  and  C_16
REMARK    3  A    between atoms: C_16  and  C_17
REMARK                            x       y       z     vdW  Elec       q    Type
REMARK                         _______ _______ _______ _____ _____    ______ ____
ROOT
ATOM      1  N   UNL     1      29.036 -22.459 -17.140  0.00  0.00    -0.266 NA
ATOM      2  N   UNL     1      32.238 -23.676 -15.802  0.00  0.00    -0.293 NA
ATOM      3  N   UNL     1      28.186 -23.483 -15.352  0.00  0.00    -0.296 N 
ATOM      4  N   UNL     1      30.297 -24.292 -14.458  0.00  0.00    -0.316 NA
ATOM      5  N   UNL     1      32.459 -24.934 -13.840  0.00  0.00    -0.283 N 
ATOM      6  C   UNL     1      30.102 -22.999 -16.480  0.00  0.00    +0.215 C 
ATOM      7  C   UNL     1      31.466 -23.022 -16.699  0.00  0.00    +0.288 C 
ATOM      8  C   UNL     1      29.549 -23.628 -15.374  0.00  0.00    +0.196 C 
ATOM      9  C   UNL     1      27.910 -22.774 -16.427  0.00  0.00    +0.164 C 
ATOM     10  C   UNL     1      31.615 -24.262 -14.753  0.00  0.00    +0.200 C 
ATOM     11  H   UNL     1      29.069 -21.938 -17.975  0.00  0.00    +0.126 HD
ATOM     12  H   UNL     1      27.554 -23.830 -14.681  0.00  0.00    +0.150 HD
ATOM     13  H   UNL     1      33.433 -24.954 -13.992  0.00  0.00    +0.156 HD
ATOM     14  H   UNL     1      32.076 -25.384 -13.053  0.00  0.00    +0.156 HD
ENDROOT
BRANCH   7  15
ATOM     15  O   UNL     1      32.064 -22.416 -17.773  0.00  0.00    -0.448 OA
BRANCH  15  16
ATOM     16  C   UNL     1      33.403 -22.804 -18.062  0.00  0.00    +0.234 C 
BRANCH  16  17
ATOM     17  C   UNL     1      33.994 -21.831 -19.039  0.00  0.00    +0.021 C 
ATOM     18  C   UNL     1      35.371 -21.807 -19.238  0.00  0.00    -0.001 C 
ATOM     19  C   UNL     1      33.162 -20.963 -19.736  0.00  0.00    -0.001 C 
ATOM     20  C   UNL     1      35.921 -20.903 -20.147  0.00  0.00    -0.000 C 
ATOM     21  C   UNL     1      33.713 -20.059 -20.645  0.00  0.00    -0.000 C 
ATOM     22  C   UNL     1      35.093 -20.029 -20.850  0.00  0.00    -0.000 C 
ENDBRANCH  16  17
ENDBRANCH  15  16
ENDBRANCH   7  15
TORSDOF 3
ENDMDL
MODEL 2
REMARK VINA RESULT:      -9.4      6.575      8.962
REMARK  Name = 4578
REMARK  3 active torsions:
REMARK  status: ('A' for Active; 'I' for Inactive)
REMARK    1  A    between atoms: C_7  and  O_15
REMARK    2  A    between atoms: O_15  and  C_16
REMARK    3  A    between atoms: C_16  and  C_17
REMARK                            x       y       z     vdW  Elec       q    Type
REMARK                         _______ _______ _______ _____ _____    ______ ____
ROOT
ATOM      1  N   UNL     1      33.482 -15.097 -20.475  0.00  0.00    -0.266 NA
ATOM      2  N   UNL     1      35.056 -17.122 -23.111  0.00  0.00    -0.293 NA
ATOM      3  N   UNL     1      32.614 -13.981 -22.199  0.00  0.00    -0.296 N 
ATOM      4  N   UNL     1      33.649 -15.314 -23.949  0.00  0.00    -0.316 NA
ATOM      5  N   UNL     1      34.771 -16.759 -25.406  0.00  0.00    -0.283 N 
ATOM      6  C   UNL     1      33.961 -15.713 -21.595  0.00  0.00    +0.215 C 
ATOM      7  C   UNL     1      34.797 -16.788 -21.826  0.00  0.00    +0.288 C 
ATOM      8  C   UNL     1      33.408 -15.003 -22.651  0.00  0.00    +0.196 C 
ATOM      9  C   UNL     1      32.679 -14.066 -20.886  0.00  0.00    +0.164 C 
ATOM     10  C   UNL     1      34.475 -16.375 -24.078  0.00  0.00    +0.200 C 
ATOM     11  H   UNL     1      33.677 -15.346 -19.543  0.00  0.00    +0.126 HD
ATOM     12  H   UNL     1      32.106 -13.330 -22.735  0.00  0.00    +0.150 HD
ATOM     13  H   UNL     1      35.368 -17.524 -25.576  0.00  0.00    +0.156 HD
ATOM     14  H   UNL     1      34.384 -16.260 -26.161  0.00  0.00    +0.156 HD
ENDROOT
BRANCH   7  15
ATOM     15  O   UNL     1      35.370 -17.524 -20.821  0.00  0.00    -0.448 OA
BRANCH  15  16
ATOM     16  C   UNL     1      35.998 -18.743 -21.199  0.00  0.00    +0.234 C 
BRANCH  16  17
ATOM     17  C   UNL     1      35.276 -19.888 -20.551  0.00  0.00    +0.021 C 
ATOM     18  C   UNL     1      33.888 -19.944 -20.605  0.00  0.00    -0.001 C 
ATOM     19  C   UNL     1      36.002 -20.882 -19.904  0.00  0.00    -0.001 C 
ATOM     20  C   UNL     1      33.216 -21.009 -20.003  0.00  0.00    -0.000 C 
ATOM     21  C   UNL     1      35.330 -21.946 -19.302  0.00  0.00    -0.000 C 
ATOM     22  C   UNL     1      33.937 -22.009 -19.352  0.00  0.00    -0.000 C 
ENDBRANCH  16  17
ENDBRANCH  15  16
ENDBRANCH   7  15
TORSDOF 3
ENDMDL
MODEL 3
REMARK VINA RESULT:      -9.3      2.629      4.415
REMARK  Name = 4578
REMARK  3 active torsions:
REMARK  status: ('A' for Active; 'I' for Inactive)
REMARK    1  A    between atoms: C_7  and  O_15
REMARK    2  A    between atoms: O_15  and  C_16
REMARK    3  A    between atoms: C_16  and  C_17
REMARK                            x       y       z     vdW  Elec       q    Type
REMARK                         _______ _______ _______ _____ _____    ______ ____
ROOT
ATOM      1  N   UNL     1      36.449 -24.987 -15.518  0.00  0.00    -0.266 NA
ATOM      2  N   UNL     1      33.232 -23.207 -15.414  0.00  0.00    -0.293 NA
ATOM      3  N   UNL     1      36.018 -25.376 -13.366  0.00  0.00    -0.296 N 
ATOM      4  N   UNL     1      33.890 -24.203 -13.287  0.00  0.00    -0.316 NA
ATOM      5  N   UNL     1      31.889 -23.012 -13.506  0.00  0.00    -0.283 N 
ATOM      6  C   UNL     1      35.249 -24.386 -15.265  0.00  0.00    +0.215 C 
ATOM      7  C   UNL     1      34.352 -23.659 -16.023  0.00  0.00    +0.288 C 
ATOM      8  C   UNL     1      35.003 -24.642 -13.924  0.00  0.00    +0.196 C 
ATOM      9  C   UNL     1      36.870 -25.567 -14.351  0.00  0.00    +0.164 C 
ATOM     10  C   UNL     1      33.073 -23.503 -14.103  0.00  0.00    +0.200 C 
ATOM     11  H   UNL     1      36.924 -25.001 -16.380  0.00  0.00    +0.126 HD
ATOM     12  H   UNL     1      36.092 -25.691 -12.436  0.00  0.00    +0.150 HD
ATOM     13  H   UNL     1      31.246 -22.493 -14.043  0.00  0.00    +0.156 HD
ATOM     14  H   UNL     1      31.706 -23.189 -12.555  0.00  0.00    +0.156 HD
ENDROOT
BRANCH   7  15
ATOM     15  O   UNL     1      34.544 -23.378 -17.351  0.00  0.00    -0.448 OA
BRANCH  15  16
ATOM     16  C   UNL     1      33.439 -22.824 -18.055  0.00  0.00    +0.234 C 
BRANCH  16  17
ATOM     17  C   UNL     1      33.943 -21.817 -19.046  0.00  0.00    +0.021 C 
ATOM     18  C   UNL     1      33.040 -20.989 -19.705  0.00  0.00    -0.001 C 
ATOM     19  C   UNL     1      35.307 -21.721 -19.297  0.00  0.00    -0.001 C 
ATOM     20  C   UNL     1      33.509 -20.052 -20.626  0.00  0.00    -0.000 C 
ATOM     21  C   UNL     1      35.775 -20.784 -20.218  0.00  0.00    -0.000 C 
ATOM     22  C   UNL     1      34.875 -19.949 -20.882  0.00  0.00    -0.000 C 
ENDBRANCH  16  17
ENDBRANCH  15  16
ENDBRANCH   7  15
TORSDOF 3
ENDMDL
MODEL 4
REMARK VINA RESULT:      -9.3      2.726      4.358
REMARK  Name = 4578
REMARK  3 active torsions:
REMARK  status: ('A' for Active; 'I' for Inactive)
REMARK    1  A    between atoms: C_7  and  O_15
REMARK    2  A    between atoms: O_15  and  C_16
REMARK    3  A    between atoms: C_16  and  C_17
REMARK                            x       y       z     vdW  Elec       q    Type
REMARK                         _______ _______ _______ _____ _____    ______ ____
ROOT
ATOM      1  N   UNL     1      36.643 -24.871 -15.452  0.00  0.00    -0.266 NA
ATOM      2  N   UNL     1      33.406 -23.128 -15.366  0.00  0.00    -0.293 NA
ATOM      3  N   UNL     1      36.124 -25.413 -13.352  0.00  0.00    -0.296 N 
ATOM      4  N   UNL     1      33.982 -24.264 -13.286  0.00  0.00    -0.316 NA
ATOM      5  N   UNL     1      31.980 -23.076 -13.510  0.00  0.00    -0.283 N 
ATOM      6  C   UNL     1      35.427 -24.299 -15.210  0.00  0.00    +0.215 C 
ATOM      7  C   UNL     1      34.556 -23.527 -15.955  0.00  0.00    +0.288 C 
ATOM      8  C   UNL     1      35.126 -24.649 -13.902  0.00  0.00    +0.196 C 
ATOM      9  C   UNL     1      37.020 -25.528 -14.310  0.00  0.00    +0.164 C 
ATOM     10  C   UNL     1      33.194 -23.515 -14.086  0.00  0.00    +0.200 C 
ATOM     11  H   UNL     1      37.156 -24.822 -16.290  0.00  0.00    +0.126 HD
ATOM     12  H   UNL     1      36.161 -25.791 -12.444  0.00  0.00    +0.150 HD
ATOM     13  H   UNL     1      31.355 -22.526 -14.037  0.00  0.00    +0.156 HD
ATOM     14  H   UNL     1      31.758 -23.320 -12.582  0.00  0.00    +0.156 HD
ENDROOT
BRANCH   7  15
ATOM     15  O   UNL     1      34.803 -23.153 -17.250  0.00  0.00    -0.448 OA
BRANCH  15  16
ATOM     16  C   UNL     1      33.668 -22.899 -18.070  0.00  0.00    +0.234 C 
BRANCH  16  17
ATOM     17  C   UNL     1      34.016 -21.840 -19.074  0.00  0.00    +0.021 C 
ATOM     18  C   UNL     1      35.343 -21.660 -19.452  0.00  0.00    -0.001 C 
ATOM     19  C   UNL     1      33.011 -21.049 -19.618  0.00  0.00    -0.001 C 
ATOM     20  C   UNL     1      35.667 -20.675 -20.386  0.00  0.00    -0.000 C 
ATOM     21  C   UNL     1      33.335 -20.065 -20.551  0.00  0.00    -0.000 C 
ATOM     22  C   UNL     1      34.663 -19.878 -20.936  0.00  0.00    -0.000 C 
ENDBRANCH  16  17
ENDBRANCH  15  16
ENDBRANCH   7  15
TORSDOF 3
ENDMDL
MODEL 5
REMARK VINA RESULT:      -9.2      1.448      1.987
REMARK  Name = 4578
REMARK  3 active torsions:
REMARK  status: ('A' for Active; 'I' for Inactive)
REMARK    1  A    between atoms: C_7  and  O_15
REMARK    2  A    between atoms: O_15  and  C_16
REMARK    3  A    between atoms: C_16  and  C_17
REMARK                            x       y       z     vdW  Elec       q    Type
REMARK                         _______ _______ _______ _____ _____    ______ ____
ROOT
ATOM      1  N   UNL     1      30.682 -22.778 -16.842  0.00  0.00    -0.266 NA
ATOM      2  N   UNL     1      34.259 -23.614 -16.654  0.00  0.00    -0.293 NA
ATOM      3  N   UNL     1      30.683 -23.390 -14.698  0.00  0.00    -0.296 N 
ATOM      4  N   UNL     1      33.046 -23.945 -14.563  0.00  0.00    -0.316 NA
ATOM      5  N   UNL     1      35.335 -24.398 -14.728  0.00  0.00    -0.283 N 
ATOM      6  C   UNL     1      31.968 -23.140 -16.560  0.00  0.00    +0.215 C 
ATOM      7  C   UNL     1      33.142 -23.189 -17.287  0.00  0.00    +0.288 C 
ATOM      8  C   UNL     1      31.943 -23.515 -15.224  0.00  0.00    +0.196 C 
ATOM      9  C   UNL     1      29.950 -22.944 -15.697  0.00  0.00    +0.164 C 
ATOM     10  C   UNL     1      34.143 -23.961 -15.351  0.00  0.00    +0.200 C 
ATOM     11  H   UNL     1      30.343 -22.457 -17.709  0.00  0.00    +0.126 HD
ATOM     12  H   UNL     1      30.392 -23.588 -13.779  0.00  0.00    +0.150 HD
ATOM     13  H   UNL     1      36.174 -24.435 -15.243  0.00  0.00    +0.156 HD
ATOM     14  H   UNL     1      35.326 -24.666 -13.781  0.00  0.00    +0.156 HD
ENDROOT
BRANCH   7  15
ATOM     15  O   UNL     1      33.223 -22.830 -18.607  0.00  0.00    -0.448 OA
BRANCH  15  16
ATOM     16  C   UNL     1      34.511 -22.470 -19.094  0.00  0.00    +0.234 C 
BRANCH  16  17
ATOM     17  C   UNL     1      34.402 -21.187 -19.864  0.00  0.00    +0.021 C 
ATOM     18  C   UNL     1      35.555 -20.569 -20.336  0.00  0.00    -0.001 C 
ATOM     19  C   UNL     1      33.151 -20.628 -20.099  0.00  0.00    -0.001 C 
ATOM     20  C   UNL     1      35.455 -19.375 -21.052  0.00  0.00    -0.000 C 
ATOM     21  C   UNL     1      33.051 -19.436 -20.815  0.00  0.00    -0.000 C 
ATOM     22  C   UNL     1      34.204 -18.809 -21.292  0.00  0.00    -0.000 C 
ENDBRANCH  16  17
ENDBRANCH  15  16
ENDBRANCH   7  15
TORSDOF 3
ENDMDL
MODEL 6
REMARK VINA RESULT:      -9.1      0.895      2.603
REMARK  Name = 4578
REMARK  3 active torsions:
REMARK  status: ('A' for Active; 'I' for Inactive)
REMARK    1  A    between atoms: C_7  and  O_15
REMARK    2  A    between atoms: O_15  and  C_16
REMARK    3  A    between atoms: C_16  and  C_17
REMARK                            x       y       z     vdW  Elec       q    Type
REMARK                         _______ _______ _______ _____ _____    ______ ____
ROOT
ATOM      1  N   UNL     1      32.383 -24.481 -14.264  0.00  0.00    -0.266 NA
ATOM      2  N   UNL     1      30.625 -22.748 -16.990  0.00  0.00    -0.293 NA
ATOM      3  N   UNL     1      30.321 -25.036 -13.624  0.00  0.00    -0.296 N 
ATOM      4  N   UNL     1      29.149 -23.895 -15.423  0.00  0.00    -0.316 NA
ATOM      5  N   UNL     1      28.299 -22.712 -17.252  0.00  0.00    -0.283 N 
ATOM      6  C   UNL     1      31.544 -23.913 -15.180  0.00  0.00    +0.215 C 
ATOM      7  C   UNL     1      31.726 -23.140 -16.310  0.00  0.00    +0.288 C 
ATOM      8  C   UNL     1      30.271 -24.273 -14.762  0.00  0.00    +0.196 C 
ATOM      9  C   UNL     1      31.604 -25.143 -13.352  0.00  0.00    +0.164 C 
ATOM     10  C   UNL     1      29.423 -23.143 -16.511  0.00  0.00    +0.200 C 
ATOM     11  H   UNL     1      33.366 -24.425 -14.259  0.00  0.00    +0.126 HD
ATOM     12  H   UNL     1      29.565 -25.420 -13.123  0.00  0.00    +0.150 HD
ATOM     13  H   UNL     1      28.423 -22.159 -18.059  0.00  0.00    +0.156 HD
ATOM     14  H   UNL     1      27.392 -22.961 -16.963  0.00  0.00    +0.156 HD
ENDROOT
BRANCH   7  15
ATOM     15  O   UNL     1      32.960 -22.757 -16.768  0.00  0.00    -0.448 OA
BRANCH  15  16
ATOM     16  C   UNL     1      33.380 -23.307 -18.011  0.00  0.00    +0.234 C 
BRANCH  16  17
ATOM     17  C   UNL     1      33.872 -22.200 -18.896  0.00  0.00    +0.021 C 
ATOM     18  C   UNL     1      35.238 -22.037 -19.099  0.00  0.00    -0.001 C 
ATOM     19  C   UNL     1      32.958 -21.347 -19.504  0.00  0.00    -0.001 C 
ATOM     20  C   UNL     1      35.696 -21.008 -19.922  0.00  0.00    -0.000 C 
ATOM     21  C   UNL     1      33.416 -20.318 -20.327  0.00  0.00    -0.000 C 
ATOM     22  C   UNL     1      34.785 -20.149 -20.536  0.00  0.00    -0.000 C 
ENDBRANCH  16  17
ENDBRANCH  15  16
ENDBRANCH   7  15
TORSDOF 3
ENDMDL
MODEL 7
REMARK VINA RESULT:      -9.1      6.470      8.971
REMARK  Name = 4578
REMARK  3 active torsions:
REMARK  status: ('A' for Active; 'I' for Inactive)
REMARK    1  A    between atoms: C_7  and  O_15
REMARK    2  A    between atoms: O_15  and  C_16
REMARK    3  A    between atoms: C_16  and  C_17
REMARK                            x       y       z     vdW  Elec       q    Type
REMARK                         _______ _______ _______ _____ _____    ______ ____
ROOT
ATOM      1  N   UNL     1      35.287 -17.355 -23.933  0.00  0.00    -0.266 NA
ATOM      2  N   UNL     1      34.155 -15.775 -20.811  0.00  0.00    -0.293 NA
ATOM      3  N   UNL     1      34.010 -15.798 -24.890  0.00  0.00    -0.296 N 
ATOM      4  N   UNL     1      33.256 -14.746 -22.832  0.00  0.00    -0.316 NA
ATOM      5  N   UNL     1      32.701 -13.942 -20.706  0.00  0.00    -0.283 N 
ATOM      6  C   UNL     1      34.752 -16.631 -22.906  0.00  0.00    +0.215 C 
ATOM      7  C   UNL     1      34.850 -16.686 -21.529  0.00  0.00    +0.288 C 
ATOM      8  C   UNL     1      33.964 -15.671 -23.525  0.00  0.00    +0.196 C 
ATOM      9  C   UNL     1      34.814 -16.818 -25.101  0.00  0.00    +0.164 C 
ATOM     10  C   UNL     1      33.412 -14.876 -21.497  0.00  0.00    +0.200 C 
ATOM     11  H   UNL     1      35.900 -18.121 -23.850  0.00  0.00    +0.126 HD
ATOM     12  H   UNL     1      33.546 -15.248 -25.562  0.00  0.00    +0.150 HD
ATOM     13  H   UNL     1      32.768 -13.978 -19.724  0.00  0.00    +0.156 HD
ATOM     14  H   UNL     1      32.140 -13.258 -21.137  0.00  0.00    +0.156 HD
ENDROOT
BRANCH   7  15
ATOM     15  O   UNL     1      35.614 -17.611 -20.867  0.00  0.00    -0.448 OA
BRANCH  15  16
ATOM     16  C   UNL     1      35.780 -18.875 -21.499  0.00  0.00    +0.234 C 
BRANCH  16  17
ATOM     17  C   UNL     1      35.057 -19.920 -20.702  0.00  0.00    +0.021 C 
ATOM     18  C   UNL     1      35.784 -20.863 -19.984  0.00  0.00    -0.001 C 
ATOM     19  C   UNL     1      33.667 -19.937 -20.688  0.00  0.00    -0.001 C 
ATOM     20  C   UNL     1      35.112 -21.836 -19.242  0.00  0.00    -0.000 C 
ATOM     21  C   UNL     1      32.995 -20.909 -19.946  0.00  0.00    -0.000 C 
ATOM     22  C   UNL     1      33.718 -21.858 -19.223  0.00  0.00    -0.000 C 
ENDBRANCH  16  17
ENDBRANCH  15  16
ENDBRANCH   7  15
TORSDOF 3
ENDMDL
MODEL 8
REMARK VINA RESULT:      -9.0      6.417      8.694
REMARK  Name = 4578
REMARK  3 active torsions:
REMARK  status: ('A' for Active; 'I' for Inactive)
REMARK    1  A    between atoms: C_7  and  O_15
REMARK    2  A    between atoms: O_15  and  C_16
REMARK    3  A    between atoms: C_16  and  C_17
REMARK                            x       y       z     vdW  Elec       q    Type
REMARK                         _______ _______ _______ _____ _____    ______ ____
ROOT
ATOM      1  N   UNL     1      34.734 -15.499 -20.432  0.00  0.00    -0.266 NA
ATOM      2  N   UNL     1      35.281 -18.130 -22.943  0.00  0.00    -0.293 NA
ATOM      3  N   UNL     1      33.886 -14.375 -22.160  0.00  0.00    -0.296 N 
ATOM      4  N   UNL     1      34.243 -16.108 -23.828  0.00  0.00    -0.316 NA
ATOM      5  N   UNL     1      34.706 -17.941 -25.205  0.00  0.00    -0.283 N 
ATOM      6  C   UNL     1      34.846 -16.332 -21.508  0.00  0.00    +0.215 C 
ATOM      7  C   UNL     1      35.338 -17.609 -21.696  0.00  0.00    +0.288 C 
ATOM      8  C   UNL     1      34.313 -15.613 -22.567  0.00  0.00    +0.196 C 
ATOM      9  C   UNL     1      34.153 -14.339 -20.871  0.00  0.00    +0.164 C 
ATOM     10  C   UNL     1      34.746 -17.358 -23.917  0.00  0.00    +0.200 C 
ATOM     11  H   UNL     1      35.018 -15.695 -19.510  0.00  0.00    +0.126 HD
ATOM     12  H   UNL     1      33.471 -13.670 -22.709  0.00  0.00    +0.150 HD
ATOM     13  H   UNL     1      35.056 -18.851 -25.344  0.00  0.00    +0.156 HD
ATOM     14  H   UNL     1      34.330 -17.437 -25.962  0.00  0.00    +0.156 HD
ENDROOT
BRANCH   7  15
ATOM     15  O   UNL     1      35.874 -18.364 -20.685  0.00  0.00    -0.448 OA
BRANCH  15  16
ATOM     16  C   UNL     1      36.136 -19.732 -20.978  0.00  0.00    +0.234 C 
BRANCH  16  17
ATOM     17  C   UNL     1      35.187 -20.591 -20.197  0.00  0.00    +0.021 C 
ATOM     18  C   UNL     1      35.686 -21.584 -19.361  0.00  0.00    -0.001 C 
ATOM     19  C   UNL     1      33.817 -20.388 -20.316  0.00  0.00    -0.001 C 
ATOM     20  C   UNL     1      34.803 -22.384 -18.634  0.00  0.00    -0.000 C 
ATOM     21  C   UNL     1      32.934 -21.187 -19.590  0.00  0.00    -0.000 C 
ATOM     22  C   UNL     1      33.428 -22.185 -18.748  0.00  0.00    -0.000 C 
ENDBRANCH  16  17
ENDBRANCH  15  16
ENDBRANCH   7  15
TORSDOF 3
ENDMDL
MODEL 9
REMARK VINA RESULT:      -8.9      5.040      6.363
REMARK  Name = 4578
REMARK  3 active torsions:
REMARK  status: ('A' for Active; 'I' for Inactive)
REMARK    1  A    between atoms: C_7  and  O_15
REMARK    2  A    between atoms: O_15  and  C_16
REMARK    3  A    between atoms: C_16  and  C_17
REMARK                            x       y       z     vdW  Elec       q    Type
REMARK                         _______ _______ _______ _____ _____    ______ ____
ROOT
ATOM      1  N   UNL     1      37.454 -26.157 -15.568  0.00  0.00    -0.266 NA
ATOM      2  N   UNL     1      37.624 -23.060 -13.593  0.00  0.00    -0.293 NA
ATOM      3  N   UNL     1      36.971 -27.089 -13.601  0.00  0.00    -0.296 N 
ATOM      4  N   UNL     1      37.080 -25.047 -12.287  0.00  0.00    -0.316 NA
ATOM      5  N   UNL     1      37.253 -22.941 -11.284  0.00  0.00    -0.283 N 
ATOM      6  C   UNL     1      37.467 -25.137 -14.661  0.00  0.00    +0.215 C 
ATOM      7  C   UNL     1      37.701 -23.778 -14.737  0.00  0.00    +0.288 C 
ATOM      8  C   UNL     1      37.164 -25.740 -13.449  0.00  0.00    +0.196 C 
ATOM      9  C   UNL     1      37.152 -27.307 -14.887  0.00  0.00    +0.164 C 
ATOM     10  C   UNL     1      37.323 -23.729 -12.456  0.00  0.00    +0.200 C 
ATOM     11  H   UNL     1      37.630 -26.083 -16.534  0.00  0.00    +0.126 HD
ATOM     12  H   UNL     1      36.746 -27.748 -12.905  0.00  0.00    +0.150 HD
ATOM     13  H   UNL     1      37.419 -21.971 -11.333  0.00  0.00    +0.156 HD
ATOM     14  H   UNL     1      37.038 -23.360 -10.420  0.00  0.00    +0.156 HD
ENDROOT
BRANCH   7  15
ATOM     15  O   UNL     1      38.003 -23.131 -15.907  0.00  0.00    -0.448 OA
BRANCH  15  16
ATOM     16  C   UNL     1      37.365 -21.879 -16.129  0.00  0.00    +0.234 C 
BRANCH  16  17
ATOM     17  C   UNL     1      36.310 -22.046 -17.182  0.00  0.00    +0.021 C 
ATOM     18  C   UNL     1      36.539 -21.564 -18.467  0.00  0.00    -0.001 C 
ATOM     19  C   UNL     1      35.115 -22.680 -16.865  0.00  0.00    -0.001 C 
ATOM     20  C   UNL     1      35.557 -21.719 -19.447  0.00  0.00    -0.000 C 
ATOM     21  C   UNL     1      34.134 -22.835 -17.844  0.00  0.00    -0.000 C 
ATOM     22  C   UNL     1      34.356 -22.355 -19.136  0.00  0.00    -0.000 C 
ENDBRANCH  16  17
ENDBRANCH  15  16
ENDBRANCH   7  15
TORSDOF 3
ENDMDL
