MODEL 1
REMARK VINA RESULT:      -6.8      0.000      0.000
REMARK  Name = 780
REMARK  5 active torsions:
REMARK  status: ('A' for Active; 'I' for Inactive)
REMARK    1  A    between atoms: C_1  and  C_11
REMARK    2  A    between atoms: C_2  and  O_7
REMARK    3  A    between atoms: C_4  and  O_9
REMARK    4  A    between atoms: C_11  and  C_13
REMARK    5  A    between atoms: C_13  and  O_14
REMARK                            x       y       z     vdW  Elec       q    Type
REMARK                         _______ _______ _______ _____ _____    ______ ____
ROOT
ATOM      1  C   UNL     1      38.254 -25.083 -13.538  0.00  0.00    +0.026 C 
ATOM      2  C   UNL     1      37.156 -24.999 -14.392  0.00  0.00    +0.130 C 
ATOM      3  C   UNL     1      38.282 -24.334 -12.362  0.00  0.00    +0.036 C 
ATOM      4  C   UNL     1      37.210 -23.501 -12.040  0.00  0.00    +0.134 C 
ATOM      5  C   UNL     1      36.085 -24.167 -14.071  0.00  0.00    +0.039 C 
ATOM      6  C   UNL     1      36.111 -23.417 -12.895  0.00  0.00    +0.040 C 
ENDROOT
BRANCH   2   7
ATOM      7  O   UNL     1      37.113 -25.724 -15.545  0.00  0.00    -0.506 OA
ATOM      8  H   UNL     1      36.811 -25.325 -16.338  0.00  0.00    +0.292 HD
ENDBRANCH   2   7
BRANCH   4   9
ATOM      9  O   UNL     1      37.236 -22.771 -10.891  0.00  0.00    -0.506 OA
ATOM     10  H   UNL     1      36.457 -22.351 -10.586  0.00  0.00    +0.292 HD
ENDBRANCH   4   9
BRANCH   1  11
ATOM     11  C   UNL     1      39.412 -25.969 -13.866  0.00  0.00    +0.139 C 
BRANCH  11  13
ATOM     12  O   UNL     1      41.181 -24.460 -14.590  0.00  0.00    -0.250 OA
ATOM     13  C   UNL     1      40.383 -25.350 -14.850  0.00  0.00    +0.318 C 
BRANCH  13  14
ATOM     14  O   UNL     1      40.269 -25.904 -16.087  0.00  0.00    -0.480 OA
ATOM     15  H   UNL     1      39.508 -26.403 -16.309  0.00  0.00    +0.295 HD
ENDBRANCH  13  14
ENDBRANCH  11  13
ENDBRANCH   1  11
TORSDOF 5
ENDMDL
MODEL 2
REMARK VINA RESULT:      -6.6      1.756      4.895
REMARK  Name = 780
REMARK  5 active torsions:
REMARK  status: ('A' for Active; 'I' for Inactive)
REMARK    1  A    between atoms: C_1  and  C_11
REMARK    2  A    between atoms: C_2  and  O_7
REMARK    3  A    between atoms: C_4  and  O_9
REMARK    4  A    between atoms: C_11  and  C_13
REMARK    5  A    between atoms: C_13  and  O_14
REMARK                            x       y       z     vdW  Elec       q    Type
REMARK                         _______ _______ _______ _____ _____    ______ ____
ROOT
ATOM      1  C   UNL     1      37.070 -24.479 -13.038  0.00  0.00    +0.026 C 
ATOM      2  C   UNL     1      38.430 -24.379 -12.749  0.00  0.00    +0.130 C 
ATOM      3  C   UNL     1      36.636 -25.296 -14.082  0.00  0.00    +0.036 C 
ATOM      4  C   UNL     1      37.564 -26.015 -14.836  0.00  0.00    +0.134 C 
ATOM      5  C   UNL     1      39.358 -25.097 -13.503  0.00  0.00    +0.039 C 
ATOM      6  C   UNL     1      38.925 -25.915 -14.547  0.00  0.00    +0.040 C 
ENDROOT
BRANCH   2   7
ATOM      7  O   UNL     1      38.871 -23.585 -11.734  0.00  0.00    -0.506 OA
ATOM      8  H   UNL     1      39.444 -22.866 -11.917  0.00  0.00    +0.292 HD
ENDBRANCH   2   7
BRANCH   4   9
ATOM      9  O   UNL     1      37.141 -26.814 -15.853  0.00  0.00    -0.506 OA
ATOM     10  H   UNL     1      37.656 -27.553 -16.113  0.00  0.00    +0.292 HD
ENDBRANCH   4   9
BRANCH   1  11
ATOM     11  C   UNL     1      36.062 -23.716 -12.242  0.00  0.00    +0.139 C 
BRANCH  11  13
ATOM     12  O   UNL     1      35.097 -25.268 -10.632  0.00  0.00    -0.250 OA
ATOM     13  C   UNL     1      35.811 -24.302 -10.868  0.00  0.00    +0.318 C 
BRANCH  13  14
ATOM     14  O   UNL     1      36.480 -23.622  -9.899  0.00  0.00    -0.480 OA
ATOM     15  H   UNL     1      37.341 -23.294 -10.067  0.00  0.00    +0.295 HD
ENDBRANCH  13  14
ENDBRANCH  11  13
ENDBRANCH   1  11
TORSDOF 5
ENDMDL
MODEL 3
REMARK VINA RESULT:      -6.5      8.347      9.652
REMARK  Name = 780
REMARK  5 active torsions:
REMARK  status: ('A' for Active; 'I' for Inactive)
REMARK    1  A    between atoms: C_1  and  C_11
REMARK    2  A    between atoms: C_2  and  O_7
REMARK    3  A    between atoms: C_4  and  O_9
REMARK    4  A    between atoms: C_11  and  C_13
REMARK    5  A    between atoms: C_13  and  O_14
REMARK                            x       y       z     vdW  Elec       q    Type
REMARK                         _______ _______ _______ _____ _____    ______ ____
ROOT
ATOM      1  C   UNL     1      34.743 -19.733 -20.724  0.00  0.00    +0.026 C 
ATOM      2  C   UNL     1      36.022 -20.134 -20.338  0.00  0.00    +0.130 C 
ATOM      3  C   UNL     1      33.628 -20.455 -20.300  0.00  0.00    +0.036 C 
ATOM      4  C   UNL     1      33.792 -21.579 -19.490  0.00  0.00    +0.134 C 
ATOM      5  C   UNL     1      36.186 -21.257 -19.529  0.00  0.00    +0.039 C 
ATOM      6  C   UNL     1      35.071 -21.980 -19.104  0.00  0.00    +0.040 C 
ENDROOT
BRANCH   2   7
ATOM      7  O   UNL     1      37.122 -19.440 -20.745  0.00  0.00    -0.506 OA
ATOM      8  H   UNL     1      37.023 -18.609 -21.165  0.00  0.00    +0.292 HD
ENDBRANCH   2   7
BRANCH   4   9
ATOM      9  O   UNL     1      32.704 -22.283 -19.074  0.00  0.00    -0.506 OA
ATOM     10  H   UNL     1      32.074 -21.881 -18.509  0.00  0.00    +0.292 HD
ENDBRANCH   4   9
BRANCH   1  11
ATOM     11  C   UNL     1      34.548 -18.533 -21.592  0.00  0.00    +0.139 C 
BRANCH  11  13
ATOM     12  O   UNL     1      34.688 -19.437 -23.849  0.00  0.00    -0.250 OA
ATOM     13  C   UNL     1      35.129 -18.694 -22.982  0.00  0.00    +0.318 C 
BRANCH  13  14
ATOM     14  O   UNL     1      36.221 -17.907 -23.167  0.00  0.00    -0.480 OA
ATOM     15  H   UNL     1      36.115 -17.003 -23.391  0.00  0.00    +0.295 HD
ENDBRANCH  13  14
ENDBRANCH  11  13
ENDBRANCH   1  11
TORSDOF 5
ENDMDL
MODEL 4
REMARK VINA RESULT:      -6.3      2.173      2.547
REMARK  Name = 780
REMARK  5 active torsions:
REMARK  status: ('A' for Active; 'I' for Inactive)
REMARK    1  A    between atoms: C_1  and  C_11
REMARK    2  A    between atoms: C_2  and  O_7
REMARK    3  A    between atoms: C_4  and  O_9
REMARK    4  A    between atoms: C_11  and  C_13
REMARK    5  A    between atoms: C_13  and  O_14
REMARK                            x       y       z     vdW  Elec       q    Type
REMARK                         _______ _______ _______ _____ _____    ______ ____
ROOT
ATOM      1  C   UNL     1      37.665 -24.662 -14.922  0.00  0.00    +0.026 C 
ATOM      2  C   UNL     1      36.323 -25.038 -14.944  0.00  0.00    +0.130 C 
ATOM      3  C   UNL     1      38.047 -23.411 -15.405  0.00  0.00    +0.036 C 
ATOM      4  C   UNL     1      37.086 -22.535 -15.910  0.00  0.00    +0.134 C 
ATOM      5  C   UNL     1      35.362 -24.163 -15.449  0.00  0.00    +0.039 C 
ATOM      6  C   UNL     1      35.743 -22.911 -15.932  0.00  0.00    +0.040 C 
ENDROOT
BRANCH   2   7
ATOM      7  O   UNL     1      35.932 -26.257 -14.478  0.00  0.00    -0.506 OA
ATOM      8  H   UNL     1      36.039 -27.019 -15.012  0.00  0.00    +0.292 HD
ENDBRANCH   2   7
BRANCH   4   9
ATOM      9  O   UNL     1      37.458 -21.313 -16.380  0.00  0.00    -0.506 OA
ATOM     10  H   UNL     1      38.343 -21.022 -16.278  0.00  0.00    +0.292 HD
ENDBRANCH   4   9
BRANCH   1  11
ATOM     11  C   UNL     1      38.708 -25.587 -14.386  0.00  0.00    +0.139 C 
BRANCH  11  13
ATOM     12  O   UNL     1      40.943 -24.621 -14.356  0.00  0.00    -0.250 OA
ATOM     13  C   UNL     1      40.097 -25.302 -14.919  0.00  0.00    +0.318 C 
BRANCH  13  14
ATOM     14  O   UNL     1      40.308 -25.898 -16.123  0.00  0.00    -0.480 OA
ATOM     15  H   UNL     1      39.584 -26.243 -16.608  0.00  0.00    +0.295 HD
ENDBRANCH  13  14
ENDBRANCH  11  13
ENDBRANCH   1  11
TORSDOF 5
ENDMDL
MODEL 5
REMARK VINA RESULT:      -6.2     10.984     12.232
REMARK  Name = 780
REMARK  5 active torsions:
REMARK  status: ('A' for Active; 'I' for Inactive)
REMARK    1  A    between atoms: C_1  and  C_11
REMARK    2  A    between atoms: C_2  and  O_7
REMARK    3  A    between atoms: C_4  and  O_9
REMARK    4  A    between atoms: C_11  and  C_13
REMARK    5  A    between atoms: C_13  and  O_14
REMARK                            x       y       z     vdW  Elec       q    Type
REMARK                         _______ _______ _______ _____ _____    ______ ____
ROOT
ATOM      1  C   UNL     1      35.378 -17.601 -22.315  0.00  0.00    +0.026 C 
ATOM      2  C   UNL     1      34.931 -16.392 -21.783  0.00  0.00    +0.130 C 
ATOM      3  C   UNL     1      35.288 -17.836 -23.687  0.00  0.00    +0.036 C 
ATOM      4  C   UNL     1      34.752 -16.860 -24.527  0.00  0.00    +0.134 C 
ATOM      5  C   UNL     1      34.395 -15.417 -22.623  0.00  0.00    +0.039 C 
ATOM      6  C   UNL     1      34.305 -15.650 -23.995  0.00  0.00    +0.040 C 
ENDROOT
BRANCH   2   7
ATOM      7  O   UNL     1      35.010 -16.148 -20.445  0.00  0.00    -0.506 OA
ATOM      8  H   UNL     1      34.230 -15.998 -19.949  0.00  0.00    +0.292 HD
ENDBRANCH   2   7
BRANCH   4   9
ATOM      9  O   UNL     1      34.666 -17.087 -25.866  0.00  0.00    -0.506 OA
ATOM     10  H   UNL     1      33.846 -16.983 -26.307  0.00  0.00    +0.292 HD
ENDBRANCH   4   9
BRANCH   1  11
ATOM     11  C   UNL     1      35.953 -18.658 -21.430  0.00  0.00    +0.139 C 
BRANCH  11  13
ATOM     12  O   UNL     1      33.761 -19.709 -21.281  0.00  0.00    -0.250 OA
ATOM     13  C   UNL     1      34.916 -19.620 -20.887  0.00  0.00    +0.318 C 
BRANCH  13  14
ATOM     14  O   UNL     1      35.419 -20.392 -19.887  0.00  0.00    -0.480 OA
ATOM     15  H   UNL     1      34.959 -21.162 -19.614  0.00  0.00    +0.295 HD
ENDBRANCH  13  14
ENDBRANCH  11  13
ENDBRANCH   1  11
TORSDOF 5
ENDMDL
MODEL 6
REMARK VINA RESULT:      -6.2      1.280      2.626
REMARK  Name = 780
REMARK  5 active torsions:
REMARK  status: ('A' for Active; 'I' for Inactive)
REMARK    1  A    between atoms: C_1  and  C_11
REMARK    2  A    between atoms: C_2  and  O_7
REMARK    3  A    between atoms: C_4  and  O_9
REMARK    4  A    between atoms: C_11  and  C_13
REMARK    5  A    between atoms: C_13  and  O_14
REMARK                            x       y       z     vdW  Elec       q    Type
REMARK                         _______ _______ _______ _____ _____    ______ ____
ROOT
ATOM      1  C   UNL     1      38.081 -24.806 -13.258  0.00  0.00    +0.026 C 
ATOM      2  C   UNL     1      37.931 -23.783 -12.322  0.00  0.00    +0.130 C 
ATOM      3  C   UNL     1      36.966 -25.303 -13.933  0.00  0.00    +0.036 C 
ATOM      4  C   UNL     1      35.701 -24.776 -13.672  0.00  0.00    +0.134 C 
ATOM      5  C   UNL     1      36.666 -23.257 -12.061  0.00  0.00    +0.039 C 
ATOM      6  C   UNL     1      35.551 -23.753 -12.736  0.00  0.00    +0.040 C 
ENDROOT
BRANCH   2   7
ATOM      7  O   UNL     1      39.009 -23.287 -11.653  0.00  0.00    -0.506 OA
ATOM      8  H   UNL     1      39.205 -23.593 -10.789  0.00  0.00    +0.292 HD
ENDBRANCH   2   7
BRANCH   4   9
ATOM      9  O   UNL     1      34.613 -25.260 -14.333  0.00  0.00    -0.506 OA
ATOM     10  H   UNL     1      33.871 -25.565 -13.851  0.00  0.00    +0.292 HD
ENDBRANCH   4   9
BRANCH   1  11
ATOM     11  C   UNL     1      39.428 -25.383 -13.549  0.00  0.00    +0.139 C 
BRANCH  11  13
ATOM     12  O   UNL     1      40.514 -26.041 -15.627  0.00  0.00    -0.250 OA
ATOM     13  C   UNL     1      39.847 -25.231 -14.997  0.00  0.00    +0.318 C 
BRANCH  13  14
ATOM     14  O   UNL     1      39.394 -24.067 -15.535  0.00  0.00    -0.480 OA
ATOM     15  H   UNL     1      39.325 -23.300 -15.001  0.00  0.00    +0.295 HD
ENDBRANCH  13  14
ENDBRANCH  11  13
ENDBRANCH   1  11
TORSDOF 5
ENDMDL
MODEL 7
REMARK VINA RESULT:      -6.2      7.404      8.562
REMARK  Name = 780
REMARK  5 active torsions:
REMARK  status: ('A' for Active; 'I' for Inactive)
REMARK    1  A    between atoms: C_1  and  C_11
REMARK    2  A    between atoms: C_2  and  O_7
REMARK    3  A    between atoms: C_4  and  O_9
REMARK    4  A    between atoms: C_11  and  C_13
REMARK    5  A    between atoms: C_13  and  O_14
REMARK                            x       y       z     vdW  Elec       q    Type
REMARK                         _______ _______ _______ _____ _____    ______ ____
ROOT
ATOM      1  C   UNL     1      35.852 -20.603 -20.124  0.00  0.00    +0.026 C 
ATOM      2  C   UNL     1      36.339 -19.484 -20.798  0.00  0.00    +0.130 C 
ATOM      3  C   UNL     1      34.479 -20.840 -20.066  0.00  0.00    +0.036 C 
ATOM      4  C   UNL     1      33.593 -19.956 -20.683  0.00  0.00    +0.134 C 
ATOM      5  C   UNL     1      35.454 -18.601 -21.414  0.00  0.00    +0.039 C 
ATOM      6  C   UNL     1      34.080 -18.837 -21.357  0.00  0.00    +0.040 C 
ENDROOT
BRANCH   2   7
ATOM      7  O   UNL     1      37.678 -19.238 -20.863  0.00  0.00    -0.506 OA
ATOM      8  H   UNL     1      37.991 -18.461 -21.284  0.00  0.00    +0.292 HD
ENDBRANCH   2   7
BRANCH   4   9
ATOM      9  O   UNL     1      32.252 -20.188 -20.629  0.00  0.00    -0.506 OA
ATOM     10  H   UNL     1      31.680 -19.770 -21.241  0.00  0.00    +0.292 HD
ENDBRANCH   4   9
BRANCH   1  11
ATOM     11  C   UNL     1      36.786 -21.559 -19.457  0.00  0.00    +0.139 C 
BRANCH  11  13
ATOM     12  O   UNL     1      35.967 -22.499 -17.364  0.00  0.00    -0.250 OA
ATOM     13  C   UNL     1      36.600 -21.634 -17.955  0.00  0.00    +0.318 C 
BRANCH  13  14
ATOM     14  O   UNL     1      37.226 -20.609 -17.317  0.00  0.00    -0.480 OA
ATOM     15  H   UNL     1      37.616 -19.916 -17.814  0.00  0.00    +0.295 HD
ENDBRANCH  13  14
ENDBRANCH  11  13
ENDBRANCH   1  11
TORSDOF 5
ENDMDL
MODEL 8
REMARK VINA RESULT:      -6.2     12.615     13.844
REMARK  Name = 780
REMARK  5 active torsions:
REMARK  status: ('A' for Active; 'I' for Inactive)
REMARK    1  A    between atoms: C_1  and  C_11
REMARK    2  A    between atoms: C_2  and  O_7
REMARK    3  A    between atoms: C_4  and  O_9
REMARK    4  A    between atoms: C_11  and  C_13
REMARK    5  A    between atoms: C_13  and  O_14
REMARK                            x       y       z     vdW  Elec       q    Type
REMARK                         _______ _______ _______ _____ _____    ______ ____
ROOT
ATOM      1  C   UNL     1      34.615 -16.453 -23.580  0.00  0.00    +0.026 C 
ATOM      2  C   UNL     1      34.446 -16.942 -24.875  0.00  0.00    +0.130 C 
ATOM      3  C   UNL     1      34.878 -17.333 -22.530  0.00  0.00    +0.036 C 
ATOM      4  C   UNL     1      34.973 -18.703 -22.777  0.00  0.00    +0.134 C 
ATOM      5  C   UNL     1      34.540 -18.311 -25.121  0.00  0.00    +0.039 C 
ATOM      6  C   UNL     1      34.803 -19.192 -24.072  0.00  0.00    +0.040 C 
ENDROOT
BRANCH   2   7
ATOM      7  O   UNL     1      34.187 -16.096 -25.911  0.00  0.00    -0.506 OA
ATOM      8  H   UNL     1      34.830 -15.468 -26.175  0.00  0.00    +0.292 HD
ENDBRANCH   2   7
BRANCH   4   9
ATOM      9  O   UNL     1      35.232 -19.562 -21.753  0.00  0.00    -0.506 OA
ATOM     10  H   UNL     1      34.577 -20.173 -21.477  0.00  0.00    +0.292 HD
ENDBRANCH   4   9
BRANCH   1  11
ATOM     11  C   UNL     1      34.516 -14.989 -23.297  0.00  0.00    +0.139 C 
BRANCH  11  13
ATOM     12  O   UNL     1      32.358 -14.637 -22.226  0.00  0.00    -0.250 OA
ATOM     13  C   UNL     1      33.090 -14.490 -23.195  0.00  0.00    +0.318 C 
BRANCH  13  14
ATOM     14  O   UNL     1      32.698 -13.848 -24.328  0.00  0.00    -0.480 OA
ATOM     15  H   UNL     1      31.846 -13.460 -24.376  0.00  0.00    +0.295 HD
ENDBRANCH  13  14
ENDBRANCH  11  13
ENDBRANCH   1  11
TORSDOF 5
ENDMDL
MODEL 9
REMARK VINA RESULT:      -6.1     11.959     13.329
REMARK  Name = 780
REMARK  5 active torsions:
REMARK  status: ('A' for Active; 'I' for Inactive)
REMARK    1  A    between atoms: C_1  and  C_11
REMARK    2  A    between atoms: C_2  and  O_7
REMARK    3  A    between atoms: C_4  and  O_9
REMARK    4  A    between atoms: C_11  and  C_13
REMARK    5  A    between atoms: C_13  and  O_14
REMARK                            x       y       z     vdW  Elec       q    Type
REMARK                         _______ _______ _______ _____ _____    ______ ____
ROOT
ATOM      1  C   UNL     1      34.752 -16.268 -22.204  0.00  0.00    +0.026 C 
ATOM      2  C   UNL     1      35.195 -17.559 -21.920  0.00  0.00    +0.130 C 
ATOM      3  C   UNL     1      34.489 -15.895 -23.522  0.00  0.00    +0.036 C 
ATOM      4  C   UNL     1      34.669 -16.815 -24.556  0.00  0.00    +0.134 C 
ATOM      5  C   UNL     1      35.375 -18.478 -22.953  0.00  0.00    +0.039 C 
ATOM      6  C   UNL     1      35.112 -18.106 -24.271  0.00  0.00    +0.040 C 
ENDROOT
BRANCH   2   7
ATOM      7  O   UNL     1      35.458 -17.939 -20.638  0.00  0.00    -0.506 OA
ATOM      8  H   UNL     1      35.053 -18.707 -20.285  0.00  0.00    +0.292 HD
ENDBRANCH   2   7
BRANCH   4   9
ATOM      9  O   UNL     1      34.410 -16.452 -25.842  0.00  0.00    -0.506 OA
ATOM     10  H   UNL     1      33.758 -16.910 -26.336  0.00  0.00    +0.292 HD
ENDBRANCH   4   9
BRANCH   1  11
ATOM     11  C   UNL     1      34.555 -15.270 -21.110  0.00  0.00    +0.139 C 
BRANCH  11  13
ATOM     12  O   UNL     1      32.685 -13.717 -20.949  0.00  0.00    -0.250 OA
ATOM     13  C   UNL     1      33.108 -14.866 -20.918  0.00  0.00    +0.318 C 
BRANCH  13  14
ATOM     14  O   UNL     1      32.307 -15.943 -20.699  0.00  0.00    -0.480 OA
ATOM     15  H   UNL     1      32.425 -16.724 -21.202  0.00  0.00    +0.295 HD
ENDBRANCH  13  14
ENDBRANCH  11  13
ENDBRANCH   1  11
TORSDOF 5
ENDMDL
