MODEL 1
REMARK VINA RESULT:      -8.9      0.000      0.000
REMARK  Name = 3278
REMARK  7 active torsions:
REMARK  status: ('A' for Active; 'I' for Inactive)
REMARK    1  A    between atoms: C_3  and  C_10
REMARK    2  A    between atoms: C_6  and  O_15
REMARK    3  A    between atoms: C_10  and  C_11
REMARK    4  A    between atoms: C_11  and  C_13
REMARK    5  A    between atoms: O_15  and  C_16
REMARK    6  A    between atoms: C_16  and  C_18
REMARK    7  A    between atoms: C_18  and  O_19
REMARK                            x       y       z     vdW  Elec       q    Type
REMARK                         _______ _______ _______ _____ _____    ______ ____
ROOT
ATOM      1 CL   UNL     1      34.853 -16.242 -20.653  0.00  0.00    -0.081 Cl
ATOM      2 CL   UNL     1      34.443 -14.622 -23.374  0.00  0.00    -0.078 Cl
ATOM      3  C   UNL     1      35.025 -18.425 -22.243  0.00  0.00    +0.050 C 
ATOM      4  C   UNL     1      34.848 -17.054 -22.188  0.00  0.00    +0.074 C 
ATOM      5  C   UNL     1      35.028 -19.107 -23.448  0.00  0.00    +0.007 C 
ATOM      6  C   UNL     1      34.671 -17.014 -24.598  0.00  0.00    +0.151 C 
ATOM      7  C   UNL     1      34.671 -16.342 -23.375  0.00  0.00    +0.102 C 
ATOM      8  C   UNL     1      34.850 -18.396 -24.635  0.00  0.00    +0.038 C 
ENDROOT
BRANCH   3  10
ATOM      9  O   UNL     1      36.285 -19.161 -20.415  0.00  0.00    -0.287 OA
ATOM     10  C   UNL     1      35.217 -19.232 -21.017  0.00  0.00    +0.192 C 
BRANCH  10  11
ATOM     11  C   UNL     1      34.126 -20.138 -20.544  0.00  0.00    +0.017 C 
ATOM     12  C   UNL     1      32.843 -19.796 -20.732  0.00  0.00    -0.001 C 
BRANCH  11  13
ATOM     13  C   UNL     1      34.534 -21.364 -19.771  0.00  0.00    +0.030 C 
ATOM     14  C   UNL     1      33.370 -21.961 -18.993  0.00  0.00    +0.005 C 
ENDBRANCH  11  13
ENDBRANCH  10  11
ENDBRANCH   3  10
BRANCH   6  15
ATOM     15  O   UNL     1      34.499 -16.350 -25.777  0.00  0.00    -0.463 OA
BRANCH  15  16
ATOM     16  C   UNL     1      33.160 -16.041 -26.156  0.00  0.00    +0.314 C 
BRANCH  16  18
ATOM     17  O   UNL     1      33.796 -14.117 -27.495  0.00  0.00    -0.246 OA
ATOM     18  C   UNL     1      33.082 -14.621 -26.641  0.00  0.00    +0.359 C 
BRANCH  18  19
ATOM     19  O   UNL     1      32.092 -13.958 -25.992  0.00  0.00    -0.478 OA
ATOM     20  H   UNL     1      32.144 -13.827 -25.066  0.00  0.00    +0.295 HD
ENDBRANCH  18  19
ENDBRANCH  16  18
ENDBRANCH  15  16
ENDBRANCH   6  15
TORSDOF 7
ENDMDL
MODEL 2
REMARK VINA RESULT:      -8.5      2.317      2.811
REMARK  Name = 3278
REMARK  7 active torsions:
REMARK  status: ('A' for Active; 'I' for Inactive)
REMARK    1  A    between atoms: C_3  and  C_10
REMARK    2  A    between atoms: C_6  and  O_15
REMARK    3  A    between atoms: C_10  and  C_11
REMARK    4  A    between atoms: C_11  and  C_13
REMARK    5  A    between atoms: O_15  and  C_16
REMARK    6  A    between atoms: C_16  and  C_18
REMARK    7  A    between atoms: C_18  and  O_19
REMARK                            x       y       z     vdW  Elec       q    Type
REMARK                         _______ _______ _______ _____ _____    ______ ____
ROOT
ATOM      1 CL   UNL     1      35.098 -19.378 -23.899  0.00  0.00    -0.081 Cl
ATOM      2 CL   UNL     1      34.419 -16.666 -25.444  0.00  0.00    -0.078 Cl
ATOM      3  C   UNL     1      35.011 -17.858 -21.662  0.00  0.00    +0.050 C 
ATOM      4  C   UNL     1      34.886 -17.883 -23.040  0.00  0.00    +0.074 C 
ATOM      5  C   UNL     1      34.848 -16.687 -20.941  0.00  0.00    +0.007 C 
ATOM      6  C   UNL     1      34.421 -15.512 -23.008  0.00  0.00    +0.151 C 
ATOM      7  C   UNL     1      34.588 -16.701 -23.718  0.00  0.00    +0.102 C 
ATOM      8  C   UNL     1      34.551 -15.505 -21.619  0.00  0.00    +0.038 C 
ENDROOT
BRANCH   3  10
ATOM      9  O   UNL     1      36.491 -19.308 -20.576  0.00  0.00    -0.287 OA
ATOM     10  C   UNL     1      35.326 -19.081 -20.889  0.00  0.00    +0.192 C 
BRANCH  10  11
ATOM     11  C   UNL     1      34.232 -20.033 -20.525  0.00  0.00    +0.017 C 
ATOM     12  C   UNL     1      32.957 -19.726 -20.804  0.00  0.00    -0.001 C 
BRANCH  11  13
ATOM     13  C   UNL     1      34.620 -21.266 -19.753  0.00  0.00    +0.030 C 
ATOM     14  C   UNL     1      33.423 -21.909 -19.067  0.00  0.00    +0.005 C 
ENDBRANCH  11  13
ENDBRANCH  10  11
ENDBRANCH   3  10
BRANCH   6  15
ATOM     15  O   UNL     1      34.131 -14.338 -23.638  0.00  0.00    -0.463 OA
BRANCH  15  16
ATOM     16  C   UNL     1      32.961 -13.646 -23.209  0.00  0.00    +0.314 C 
BRANCH  16  18
ATOM     17  O   UNL     1      32.444 -11.296 -22.878  0.00  0.00    -0.246 OA
ATOM     18  C   UNL     1      33.170 -12.164 -23.339  0.00  0.00    +0.359 C 
BRANCH  18  19
ATOM     19  O   UNL     1      34.298 -11.910 -24.050  0.00  0.00    -0.478 OA
ATOM     20  H   UNL     1      34.858 -12.615 -24.308  0.00  0.00    +0.295 HD
ENDBRANCH  18  19
ENDBRANCH  16  18
ENDBRANCH  15  16
ENDBRANCH   6  15
TORSDOF 7
ENDMDL
MODEL 3
REMARK VINA RESULT:      -8.3      3.424      4.958
REMARK  Name = 3278
REMARK  7 active torsions:
REMARK  status: ('A' for Active; 'I' for Inactive)
REMARK    1  A    between atoms: C_3  and  C_10
REMARK    2  A    between atoms: C_6  and  O_15
REMARK    3  A    between atoms: C_10  and  C_11
REMARK    4  A    between atoms: C_11  and  C_13
REMARK    5  A    between atoms: O_15  and  C_16
REMARK    6  A    between atoms: C_16  and  C_18
REMARK    7  A    between atoms: C_18  and  O_19
REMARK                            x       y       z     vdW  Elec       q    Type
REMARK                         _______ _______ _______ _____ _____    ______ ____
ROOT
ATOM      1 CL   UNL     1      36.730 -21.811 -19.313  0.00  0.00    -0.081 Cl
ATOM      2 CL   UNL     1      36.900 -19.060 -20.926  0.00  0.00    -0.078 Cl
ATOM      3  C   UNL     1      34.058 -21.602 -19.685  0.00  0.00    +0.050 C 
ATOM      4  C   UNL     1      35.298 -21.030 -19.909  0.00  0.00    +0.074 C 
ATOM      5  C   UNL     1      32.893 -21.009 -20.144  0.00  0.00    +0.007 C 
ATOM      6  C   UNL     1      34.213 -19.218 -21.084  0.00  0.00    +0.151 C 
ATOM      7  C   UNL     1      35.377 -19.829 -20.614  0.00  0.00    +0.102 C 
ATOM      8  C   UNL     1      32.971 -19.808 -20.849  0.00  0.00    +0.038 C 
ENDROOT
BRANCH   3  10
ATOM      9  O   UNL     1      34.024 -23.936 -19.548  0.00  0.00    -0.287 OA
ATOM     10  C   UNL     1      33.913 -22.874 -18.943  0.00  0.00    +0.192 C 
BRANCH  10  11
ATOM     11  C   UNL     1      33.608 -22.851 -17.479  0.00  0.00    +0.017 C 
ATOM     12  C   UNL     1      34.604 -22.954 -16.587  0.00  0.00    -0.001 C 
BRANCH  11  13
ATOM     13  C   UNL     1      32.158 -22.819 -17.077  0.00  0.00    +0.030 C 
ATOM     14  C   UNL     1      31.948 -23.327 -15.657  0.00  0.00    +0.005 C 
ENDBRANCH  11  13
ENDBRANCH  10  11
ENDBRANCH   3  10
BRANCH   6  15
ATOM     15  O   UNL     1      34.253 -18.043 -21.776  0.00  0.00    -0.463 OA
BRANCH  15  16
ATOM     16  C   UNL     1      33.649 -16.909 -21.159  0.00  0.00    +0.314 C 
BRANCH  16  18
ATOM     17  O   UNL     1      34.956 -15.110 -20.182  0.00  0.00    -0.246 OA
ATOM     18  C   UNL     1      34.612 -15.755 -21.161  0.00  0.00    +0.359 C 
BRANCH  18  19
ATOM     19  O   UNL     1      35.060 -15.521 -22.420  0.00  0.00    -0.478 OA
ATOM     20  H   UNL     1      35.306 -16.237 -22.971  0.00  0.00    +0.295 HD
ENDBRANCH  18  19
ENDBRANCH  16  18
ENDBRANCH  15  16
ENDBRANCH   6  15
TORSDOF 7
ENDMDL
MODEL 4
REMARK VINA RESULT:      -8.3      3.168      7.918
REMARK  Name = 3278
REMARK  7 active torsions:
REMARK  status: ('A' for Active; 'I' for Inactive)
REMARK    1  A    between atoms: C_3  and  C_10
REMARK    2  A    between atoms: C_6  and  O_15
REMARK    3  A    between atoms: C_10  and  C_11
REMARK    4  A    between atoms: C_11  and  C_13
REMARK    5  A    between atoms: O_15  and  C_16
REMARK    6  A    between atoms: C_16  and  C_18
REMARK    7  A    between atoms: C_18  and  O_19
REMARK                            x       y       z     vdW  Elec       q    Type
REMARK                         _______ _______ _______ _____ _____    ______ ____
ROOT
ATOM      1 CL   UNL     1      37.057 -19.148 -20.846  0.00  0.00    -0.081 Cl
ATOM      2 CL   UNL     1      36.933 -21.835 -19.126  0.00  0.00    -0.078 Cl
ATOM      3  C   UNL     1      34.364 -19.373 -20.974  0.00  0.00    +0.050 C 
ATOM      4  C   UNL     1      35.542 -19.923 -20.500  0.00  0.00    +0.074 C 
ATOM      5  C   UNL     1      33.136 -19.961 -20.719  0.00  0.00    +0.007 C 
ATOM      6  C   UNL     1      34.263 -21.702 -19.481  0.00  0.00    +0.151 C 
ATOM      7  C   UNL     1      35.492 -21.096 -19.747  0.00  0.00    +0.102 C 
ATOM      8  C   UNL     1      33.085 -21.134 -19.966  0.00  0.00    +0.038 C 
ENDROOT
BRANCH   3  10
ATOM      9  O   UNL     1      34.009 -17.078 -21.251  0.00  0.00    -0.287 OA
ATOM     10  C   UNL     1      34.356 -18.131 -21.778  0.00  0.00    +0.192 C 
BRANCH  10  11
ATOM     11  C   UNL     1      34.742 -18.176 -23.223  0.00  0.00    +0.017 C 
ATOM     12  C   UNL     1      34.839 -19.357 -23.852  0.00  0.00    -0.001 C 
BRANCH  11  13
ATOM     13  C   UNL     1      35.110 -16.873 -23.880  0.00  0.00    +0.030 C 
ATOM     14  C   UNL     1      34.451 -16.715 -25.243  0.00  0.00    +0.005 C 
ENDBRANCH  11  13
ENDBRANCH  10  11
ENDBRANCH   3  10
BRANCH   6  15
ATOM     15  O   UNL     1      34.177 -22.850 -18.749  0.00  0.00    -0.463 OA
BRANCH  15  16
ATOM     16  C   UNL     1      33.164 -22.903 -17.748  0.00  0.00    +0.314 C 
BRANCH  16  18
ATOM     17  O   UNL     1      33.140 -23.593 -15.419  0.00  0.00    -0.246 OA
ATOM     18  C   UNL     1      33.760 -23.356 -16.445  0.00  0.00    +0.359 C 
BRANCH  18  19
ATOM     19  O   UNL     1      35.108 -23.471 -16.560  0.00  0.00    -0.478 OA
ATOM     20  H   UNL     1      35.613 -22.753 -16.886  0.00  0.00    +0.295 HD
ENDBRANCH  18  19
ENDBRANCH  16  18
ENDBRANCH  15  16
ENDBRANCH   6  15
TORSDOF 7
ENDMDL
MODEL 5
REMARK VINA RESULT:      -8.2      3.368      8.105
REMARK  Name = 3278
REMARK  7 active torsions:
REMARK  status: ('A' for Active; 'I' for Inactive)
REMARK    1  A    between atoms: C_3  and  C_10
REMARK    2  A    between atoms: C_6  and  O_15
REMARK    3  A    between atoms: C_10  and  C_11
REMARK    4  A    between atoms: C_11  and  C_13
REMARK    5  A    between atoms: O_15  and  C_16
REMARK    6  A    between atoms: C_16  and  C_18
REMARK    7  A    between atoms: C_18  and  O_19
REMARK                            x       y       z     vdW  Elec       q    Type
REMARK                         _______ _______ _______ _____ _____    ______ ____
ROOT
ATOM      1 CL   UNL     1      32.479 -19.934 -21.009  0.00  0.00    -0.081 Cl
ATOM      2 CL   UNL     1      33.238 -22.037 -18.729  0.00  0.00    -0.078 Cl
ATOM      3  C   UNL     1      35.148 -19.538 -21.216  0.00  0.00    +0.050 C 
ATOM      4  C   UNL     1      34.134 -20.225 -20.571  0.00  0.00    +0.074 C 
ATOM      5  C   UNL     1      36.479 -19.743 -20.895  0.00  0.00    +0.007 C 
ATOM      6  C   UNL     1      35.798 -21.364 -19.240  0.00  0.00    +0.151 C 
ATOM      7  C   UNL     1      34.461 -21.145 -19.575  0.00  0.00    +0.102 C 
ATOM      8  C   UNL     1      36.807 -20.663 -19.900  0.00  0.00    +0.038 C 
ENDROOT
BRANCH   3  10
ATOM      9  O   UNL     1      34.572 -18.947 -23.404  0.00  0.00    -0.287 OA
ATOM     10  C   UNL     1      34.861 -18.549 -22.279  0.00  0.00    +0.192 C 
BRANCH  10  11
ATOM     11  C   UNL     1      34.952 -17.087 -21.981  0.00  0.00    +0.017 C 
ATOM     12  C   UNL     1      34.790 -16.650 -20.723  0.00  0.00    -0.001 C 
BRANCH  11  13
ATOM     13  C   UNL     1      35.119 -16.153 -23.149  0.00  0.00    +0.030 C 
ATOM     14  C   UNL     1      34.347 -14.855 -22.957  0.00  0.00    +0.005 C 
ENDBRANCH  11  13
ENDBRANCH  10  11
ENDBRANCH   3  10
BRANCH   6  15
ATOM     15  O   UNL     1      36.154 -22.255 -18.271  0.00  0.00    -0.463 OA
BRANCH  15  16
ATOM     16  C   UNL     1      36.884 -21.743 -17.158  0.00  0.00    +0.314 C 
BRANCH  16  18
ATOM     17  O   UNL     1      37.881 -22.922 -15.282  0.00  0.00    -0.246 OA
ATOM     18  C   UNL     1      36.965 -22.786 -16.079  0.00  0.00    +0.359 C 
BRANCH  18  19
ATOM     19  O   UNL     1      35.860 -23.574 -16.105  0.00  0.00    -0.478 OA
ATOM     20  H   UNL     1      35.018 -23.208 -15.920  0.00  0.00    +0.295 HD
ENDBRANCH  18  19
ENDBRANCH  16  18
ENDBRANCH  15  16
ENDBRANCH   6  15
TORSDOF 7
ENDMDL
MODEL 6
REMARK VINA RESULT:      -8.2      2.635      3.247
REMARK  Name = 3278
REMARK  7 active torsions:
REMARK  status: ('A' for Active; 'I' for Inactive)
REMARK    1  A    between atoms: C_3  and  C_10
REMARK    2  A    between atoms: C_6  and  O_15
REMARK    3  A    between atoms: C_10  and  C_11
REMARK    4  A    between atoms: C_11  and  C_13
REMARK    5  A    between atoms: O_15  and  C_16
REMARK    6  A    between atoms: C_16  and  C_18
REMARK    7  A    between atoms: C_18  and  O_19
REMARK                            x       y       z     vdW  Elec       q    Type
REMARK                         _______ _______ _______ _____ _____    ______ ____
ROOT
ATOM      1 CL   UNL     1      34.981 -18.627 -24.145  0.00  0.00    -0.081 Cl
ATOM      2 CL   UNL     1      34.009 -15.766 -25.178  0.00  0.00    -0.078 Cl
ATOM      3  C   UNL     1      35.026 -17.475 -21.697  0.00  0.00    +0.050 C 
ATOM      4  C   UNL     1      34.771 -17.299 -23.045  0.00  0.00    +0.074 C 
ATOM      5  C   UNL     1      34.870 -16.440 -20.789  0.00  0.00    +0.007 C 
ATOM      6  C   UNL     1      34.182 -14.998 -22.600  0.00  0.00    +0.151 C 
ATOM      7  C   UNL     1      34.344 -16.051 -23.501  0.00  0.00    +0.102 C 
ATOM      8  C   UNL     1      34.444 -15.192 -21.244  0.00  0.00    +0.038 C 
ENDROOT
BRANCH   3  10
ATOM      9  O   UNL     1      36.683 -19.018 -21.111  0.00  0.00    -0.287 OA
ATOM     10  C   UNL     1      35.481 -18.775 -21.156  0.00  0.00    +0.192 C 
BRANCH  10  11
ATOM     11  C   UNL     1      34.476 -19.784 -20.700  0.00  0.00    +0.017 C 
ATOM     12  C   UNL     1      33.169 -19.572 -20.918  0.00  0.00    -0.001 C 
BRANCH  11  13
ATOM     13  C   UNL     1      34.987 -20.960 -19.911  0.00  0.00    +0.030 C 
ATOM     14  C   UNL     1      33.854 -21.831 -19.387  0.00  0.00    +0.005 C 
ENDBRANCH  11  13
ENDBRANCH  10  11
ENDBRANCH   3  10
BRANCH   6  15
ATOM     15  O   UNL     1      33.768 -13.765 -23.010  0.00  0.00    -0.463 OA
BRANCH  15  16
ATOM     16  C   UNL     1      32.369 -13.498 -22.947  0.00  0.00    +0.314 C 
BRANCH  16  18
ATOM     17  O   UNL     1      31.848 -12.379 -20.856  0.00  0.00    -0.246 OA
ATOM     18  C   UNL     1      32.114 -12.323 -22.047  0.00  0.00    +0.359 C 
BRANCH  18  19
ATOM     19  O   UNL     1      32.223 -11.164 -22.746  0.00  0.00    -0.478 OA
ATOM     20  H   UNL     1      33.039 -10.931 -23.142  0.00  0.00    +0.295 HD
ENDBRANCH  18  19
ENDBRANCH  16  18
ENDBRANCH  15  16
ENDBRANCH   6  15
TORSDOF 7
ENDMDL
MODEL 7
REMARK VINA RESULT:      -8.2      6.334     10.832
REMARK  Name = 3278
REMARK  7 active torsions:
REMARK  status: ('A' for Active; 'I' for Inactive)
REMARK    1  A    between atoms: C_3  and  C_10
REMARK    2  A    between atoms: C_6  and  O_15
REMARK    3  A    between atoms: C_10  and  C_11
REMARK    4  A    between atoms: C_11  and  C_13
REMARK    5  A    between atoms: O_15  and  C_16
REMARK    6  A    between atoms: C_16  and  C_18
REMARK    7  A    between atoms: C_18  and  O_19
REMARK                            x       y       z     vdW  Elec       q    Type
REMARK                         _______ _______ _______ _____ _____    ______ ____
ROOT
ATOM      1 CL   UNL     1      32.190 -23.456 -17.007  0.00  0.00    -0.081 Cl
ATOM      2 CL   UNL     1      33.264 -23.651 -14.006  0.00  0.00    -0.078 Cl
ATOM      3  C   UNL     1      34.713 -22.694 -17.620  0.00  0.00    +0.050 C 
ATOM      4  C   UNL     1      33.841 -23.083 -16.618  0.00  0.00    +0.074 C 
ATOM      5  C   UNL     1      36.036 -22.390 -17.351  0.00  0.00    +0.007 C 
ATOM      6  C   UNL     1      35.637 -22.867 -15.017  0.00  0.00    +0.151 C 
ATOM      7  C   UNL     1      34.307 -23.171 -15.306  0.00  0.00    +0.102 C 
ATOM      8  C   UNL     1      36.503 -22.477 -16.039  0.00  0.00    +0.038 C 
ENDROOT
BRANCH   3  10
ATOM      9  O   UNL     1      34.088 -23.607 -19.681  0.00  0.00    -0.287 OA
ATOM     10  C   UNL     1      34.275 -22.583 -19.030  0.00  0.00    +0.192 C 
BRANCH  10  11
ATOM     11  C   UNL     1      34.093 -21.234 -19.648  0.00  0.00    +0.017 C 
ATOM     12  C   UNL     1      32.868 -20.693 -19.724  0.00  0.00    -0.001 C 
BRANCH  11  13
ATOM     13  C   UNL     1      35.306 -20.587 -20.261  0.00  0.00    +0.030 C 
ATOM     14  C   UNL     1      34.948 -19.334 -21.047  0.00  0.00    +0.005 C 
ENDBRANCH  11  13
ENDBRANCH  10  11
ENDBRANCH   3  10
BRANCH   6  15
ATOM     15  O   UNL     1      36.126 -22.941 -13.746  0.00  0.00    -0.463 OA
BRANCH  15  16
ATOM     16  C   UNL     1      37.261 -23.779 -13.537  0.00  0.00    +0.314 C 
BRANCH  16  18
ATOM     17  O   UNL     1      37.672 -24.555 -11.272  0.00  0.00    -0.246 OA
ATOM     18  C   UNL     1      37.721 -23.668 -12.111  0.00  0.00    +0.359 C 
BRANCH  18  19
ATOM     19  O   UNL     1      38.210 -22.424 -11.872  0.00  0.00    -0.478 OA
ATOM     20  H   UNL     1      37.993 -21.980 -11.076  0.00  0.00    +0.295 HD
ENDBRANCH  18  19
ENDBRANCH  16  18
ENDBRANCH  15  16
ENDBRANCH   6  15
TORSDOF 7
ENDMDL
MODEL 8
REMARK VINA RESULT:      -8.1      5.258      8.384
REMARK  Name = 3278
REMARK  7 active torsions:
REMARK  status: ('A' for Active; 'I' for Inactive)
REMARK    1  A    between atoms: C_3  and  C_10
REMARK    2  A    between atoms: C_6  and  O_15
REMARK    3  A    between atoms: C_10  and  C_11
REMARK    4  A    between atoms: C_11  and  C_13
REMARK    5  A    between atoms: O_15  and  C_16
REMARK    6  A    between atoms: C_16  and  C_18
REMARK    7  A    between atoms: C_18  and  O_19
REMARK                            x       y       z     vdW  Elec       q    Type
REMARK                         _______ _______ _______ _____ _____    ______ ____
ROOT
ATOM      1 CL   UNL     1      31.027 -11.362 -20.926  0.00  0.00    -0.081 Cl
ATOM      2 CL   UNL     1      32.291 -14.244 -21.469  0.00  0.00    -0.078 Cl
ATOM      3  C   UNL     1      32.498 -10.566 -23.053  0.00  0.00    +0.050 C 
ATOM      4  C   UNL     1      32.144 -11.621 -22.230  0.00  0.00    +0.074 C 
ATOM      5  C   UNL     1      33.385 -10.733 -24.104  0.00  0.00    +0.007 C 
ATOM      6  C   UNL     1      33.588 -13.068 -23.519  0.00  0.00    +0.151 C 
ATOM      7  C   UNL     1      32.693 -12.882 -22.465  0.00  0.00    +0.102 C 
ATOM      8  C   UNL     1      33.934 -11.994 -24.339  0.00  0.00    +0.038 C 
ENDROOT
BRANCH   3  10
ATOM      9  O   UNL     1      30.839  -8.937 -23.301  0.00  0.00    -0.287 OA
ATOM     10  C   UNL     1      31.949  -9.207 -22.852  0.00  0.00    +0.192 C 
BRANCH  10  11
ATOM     11  C   UNL     1      32.758  -8.176 -22.131  0.00  0.00    +0.017 C 
ATOM     12  C   UNL     1      32.765  -8.149 -20.790  0.00  0.00    -0.001 C 
BRANCH  11  13
ATOM     13  C   UNL     1      33.454  -7.137 -22.968  0.00  0.00    +0.030 C 
ATOM     14  C   UNL     1      34.844  -7.585 -23.395  0.00  0.00    +0.005 C 
ENDBRANCH  11  13
ENDBRANCH  10  11
ENDBRANCH   3  10
BRANCH   6  15
ATOM     15  O   UNL     1      34.144 -14.286 -23.777  0.00  0.00    -0.463 OA
BRANCH  15  16
ATOM     16  C   UNL     1      33.514 -15.087 -24.774  0.00  0.00    +0.314 C 
BRANCH  16  18
ATOM     17  O   UNL     1      34.046 -17.222 -25.802  0.00  0.00    -0.246 OA
ATOM     18  C   UNL     1      34.303 -16.348 -24.989  0.00  0.00    +0.359 C 
BRANCH  18  19
ATOM     19  O   UNL     1      35.363 -16.387 -24.143  0.00  0.00    -0.478 OA
ATOM     20  H   UNL     1      36.079 -15.795 -24.261  0.00  0.00    +0.295 HD
ENDBRANCH  18  19
ENDBRANCH  16  18
ENDBRANCH  15  16
ENDBRANCH   6  15
TORSDOF 7
ENDMDL
MODEL 9
REMARK VINA RESULT:      -7.9      2.723      3.451
REMARK  Name = 3278
REMARK  7 active torsions:
REMARK  status: ('A' for Active; 'I' for Inactive)
REMARK    1  A    between atoms: C_3  and  C_10
REMARK    2  A    between atoms: C_6  and  O_15
REMARK    3  A    between atoms: C_10  and  C_11
REMARK    4  A    between atoms: C_11  and  C_13
REMARK    5  A    between atoms: O_15  and  C_16
REMARK    6  A    between atoms: C_16  and  C_18
REMARK    7  A    between atoms: C_18  and  O_19
REMARK                            x       y       z     vdW  Elec       q    Type
REMARK                         _______ _______ _______ _____ _____    ______ ____
ROOT
ATOM      1 CL   UNL     1      32.751 -15.400 -19.991  0.00  0.00    -0.081 Cl
ATOM      2 CL   UNL     1      31.801 -12.909 -21.750  0.00  0.00    -0.078 Cl
ATOM      3  C   UNL     1      34.247 -16.062 -22.146  0.00  0.00    +0.050 C 
ATOM      4  C   UNL     1      33.346 -15.162 -21.605  0.00  0.00    +0.074 C 
ATOM      5  C   UNL     1      34.745 -15.906 -23.429  0.00  0.00    +0.007 C 
ATOM      6  C   UNL     1      33.421 -13.899 -23.664  0.00  0.00    +0.151 C 
ATOM      7  C   UNL     1      32.930 -14.071 -22.370  0.00  0.00    +0.102 C 
ATOM      8  C   UNL     1      34.329 -14.816 -24.194  0.00  0.00    +0.038 C 
ENDROOT
BRANCH   3  10
ATOM      9  O   UNL     1      35.470 -17.065 -20.423  0.00  0.00    -0.287 OA
ATOM     10  C   UNL     1      34.724 -17.236 -21.383  0.00  0.00    +0.192 C 
BRANCH  10  11
ATOM     11  C   UNL     1      34.316 -18.613 -21.802  0.00  0.00    +0.017 C 
ATOM     12  C   UNL     1      34.782 -19.127 -22.950  0.00  0.00    -0.001 C 
BRANCH  11  13
ATOM     13  C   UNL     1      33.299 -19.322 -20.948  0.00  0.00    +0.030 C 
ATOM     14  C   UNL     1      33.897 -20.525 -20.231  0.00  0.00    +0.005 C 
ENDBRANCH  11  13
ENDBRANCH  10  11
ENDBRANCH   3  10
BRANCH   6  15
ATOM     15  O   UNL     1      33.035 -12.846 -24.440  0.00  0.00    -0.463 OA
BRANCH  15  16
ATOM     16  C   UNL     1      34.063 -11.976 -24.907  0.00  0.00    +0.314 C 
BRANCH  16  18
ATOM     17  O   UNL     1      33.080 -10.209 -23.560  0.00  0.00    -0.246 OA
ATOM     18  C   UNL     1      34.054 -10.702 -24.110  0.00  0.00    +0.359 C 
BRANCH  18  19
ATOM     19  O   UNL     1      35.297 -10.159 -24.078  0.00  0.00    -0.478 OA
ATOM     20  H   UNL     1      35.422  -9.292 -23.746  0.00  0.00    +0.295 HD
ENDBRANCH  18  19
ENDBRANCH  16  18
ENDBRANCH  15  16
ENDBRANCH   6  15
TORSDOF 7
ENDMDL
