MODEL 1
REMARK VINA RESULT:      -8.6      0.000      0.000
REMARK  Name = 151182
REMARK  6 active torsions:
REMARK  status: ('A' for Active; 'I' for Inactive)
REMARK    1  A    between atoms: C_2  and  C_13
REMARK    2  A    between atoms: C_8  and  O_11
REMARK    3  A    between atoms: C_13  and  C_14
REMARK    4  A    between atoms: C_14  and  N_15
REMARK    5  A    between atoms: N_15  and  C_17
REMARK    6  A    between atoms: N_15  and  C_20
REMARK                            x       y       z     vdW  Elec       q    Type
REMARK                         _______ _______ _______ _____ _____    ______ ____
ROOT
ATOM      1  N   UNL     1      37.177 -19.556 -20.752  0.00  0.00    -0.312 N 
ATOM      2  C   UNL     1      35.242 -18.827 -21.558  0.00  0.00    -0.008 C 
ATOM      3  C   UNL     1      34.976 -19.912 -20.676  0.00  0.00    +0.014 C 
ATOM      4  C   UNL     1      36.208 -20.351 -20.183  0.00  0.00    +0.048 C 
ATOM      5  C   UNL     1      36.603 -18.632 -21.584  0.00  0.00    +0.058 C 
ATOM      6  C   UNL     1      33.803 -20.564 -20.247  0.00  0.00    +0.038 C 
ATOM      7  C   UNL     1      36.325 -21.414 -19.281  0.00  0.00    +0.018 C 
ATOM      8  C   UNL     1      33.905 -21.629 -19.344  0.00  0.00    +0.139 C 
ATOM      9  C   UNL     1      35.147 -22.046 -18.870  0.00  0.00    +0.038 C 
ATOM     10  H   UNL     1      38.144 -19.639 -20.584  0.00  0.00    +0.152 HD
ENDROOT
BRANCH   8  11
ATOM     11  O   UNL     1      32.774 -22.265 -18.926  0.00  0.00    -0.471 OA
ATOM     12  C   UNL     1      32.816 -22.883 -17.643  0.00  0.00    +0.252 C 
ENDBRANCH   8  11
BRANCH   2  13
ATOM     13  C   UNL     1      34.242 -18.045 -22.313  0.00  0.00    +0.005 C 
BRANCH  13  14
ATOM     14  C   UNL     1      34.691 -16.595 -22.576  0.00  0.00    -0.072 C 
BRANCH  14  15
ATOM     15  N   UNL     1      33.555 -15.689 -22.700  0.00  0.00    +0.390 N 
ATOM     16  H   UNL     1      32.729 -16.241 -22.932  0.00  0.00    -0.080 HD
BRANCH  15  17
ATOM     17  C   UNL     1      33.782 -14.721 -23.775  0.00  0.00    -0.058 C 
ATOM     18  C   UNL     1      32.826 -13.541 -23.636  0.00  0.00    -0.023 C 
ATOM     19  C   UNL     1      33.609 -15.412 -25.124  0.00  0.00    -0.023 C 
ENDBRANCH  15  17
BRANCH  15  20
ATOM     20  C   UNL     1      33.310 -14.994 -21.435  0.00  0.00    -0.058 C 
ATOM     21  C   UNL     1      34.593 -14.927 -20.611  0.00  0.00    -0.023 C 
ATOM     22  C   UNL     1      32.203 -15.710 -20.668  0.00  0.00    -0.023 C 
ENDBRANCH  15  20
ENDBRANCH  14  15
ENDBRANCH  13  14
ENDBRANCH   2  13
TORSDOF 6
ENDMDL
MODEL 2
REMARK VINA RESULT:      -8.4      0.514      2.039
REMARK  Name = 151182
REMARK  6 active torsions:
REMARK  status: ('A' for Active; 'I' for Inactive)
REMARK    1  A    between atoms: C_2  and  C_13
REMARK    2  A    between atoms: C_8  and  O_11
REMARK    3  A    between atoms: C_13  and  C_14
REMARK    4  A    between atoms: C_14  and  N_15
REMARK    5  A    between atoms: N_15  and  C_17
REMARK    6  A    between atoms: N_15  and  C_20
REMARK                            x       y       z     vdW  Elec       q    Type
REMARK                         _______ _______ _______ _____ _____    ______ ____
ROOT
ATOM      1  N   UNL     1      37.136 -19.527 -20.754  0.00  0.00    -0.312 N 
ATOM      2  C   UNL     1      35.180 -18.859 -21.563  0.00  0.00    -0.008 C 
ATOM      3  C   UNL     1      34.948 -19.952 -20.681  0.00  0.00    +0.014 C 
ATOM      4  C   UNL     1      36.192 -20.352 -20.187  0.00  0.00    +0.048 C 
ATOM      5  C   UNL     1      36.535 -18.622 -21.587  0.00  0.00    +0.058 C 
ATOM      6  C   UNL     1      33.795 -20.641 -20.254  0.00  0.00    +0.038 C 
ATOM      7  C   UNL     1      36.341 -21.411 -19.284  0.00  0.00    +0.018 C 
ATOM      8  C   UNL     1      33.929 -21.702 -19.351  0.00  0.00    +0.139 C 
ATOM      9  C   UNL     1      35.184 -22.079 -18.875  0.00  0.00    +0.038 C 
ATOM     10  H   UNL     1      38.105 -19.580 -20.585  0.00  0.00    +0.152 HD
ENDROOT
BRANCH   8  11
ATOM     11  O   UNL     1      32.818 -22.373 -18.934  0.00  0.00    -0.471 OA
ATOM     12  C   UNL     1      32.855 -22.936 -17.626  0.00  0.00    +0.252 C 
ENDBRANCH   8  11
BRANCH   2  13
ATOM     13  C   UNL     1      34.158 -18.109 -22.320  0.00  0.00    +0.005 C 
BRANCH  13  14
ATOM     14  C   UNL     1      34.764 -17.034 -23.242  0.00  0.00    -0.072 C 
BRANCH  14  15
ATOM     15  N   UNL     1      34.422 -15.686 -22.804  0.00  0.00    +0.390 N 
ATOM     16  H   UNL     1      35.285 -15.151 -22.712  0.00  0.00    -0.080 HD
BRANCH  15  17
ATOM     17  C   UNL     1      33.758 -15.722 -21.499  0.00  0.00    -0.058 C 
ATOM     18  C   UNL     1      32.428 -14.976 -21.562  0.00  0.00    -0.023 C 
ATOM     19  C   UNL     1      34.678 -15.114 -20.445  0.00  0.00    -0.023 C 
ENDBRANCH  15  17
BRANCH  15  20
ATOM     20  C   UNL     1      33.567 -15.025 -23.791  0.00  0.00    -0.058 C 
ATOM     21  C   UNL     1      33.670 -15.733 -25.139  0.00  0.00    -0.023 C 
ATOM     22  C   UNL     1      33.970 -13.558 -23.911  0.00  0.00    -0.023 C 
ENDBRANCH  15  20
ENDBRANCH  14  15
ENDBRANCH  13  14
ENDBRANCH   2  13
TORSDOF 6
ENDMDL
MODEL 3
REMARK VINA RESULT:      -8.0      3.753      8.149
REMARK  Name = 151182
REMARK  6 active torsions:
REMARK  status: ('A' for Active; 'I' for Inactive)
REMARK    1  A    between atoms: C_2  and  C_13
REMARK    2  A    between atoms: C_8  and  O_11
REMARK    3  A    between atoms: C_13  and  C_14
REMARK    4  A    between atoms: C_14  and  N_15
REMARK    5  A    between atoms: N_15  and  C_17
REMARK    6  A    between atoms: N_15  and  C_20
REMARK                            x       y       z     vdW  Elec       q    Type
REMARK                         _______ _______ _______ _____ _____    ______ ____
ROOT
ATOM      1  N   UNL     1      33.894 -10.796 -24.716  0.00  0.00    -0.312 N 
ATOM      2  C   UNL     1      33.421 -12.872 -24.091  0.00  0.00    -0.008 C 
ATOM      3  C   UNL     1      32.787 -11.979 -23.183  0.00  0.00    +0.014 C 
ATOM      4  C   UNL     1      33.099 -10.682 -23.598  0.00  0.00    +0.048 C 
ATOM      5  C   UNL     1      34.093 -12.115 -25.022  0.00  0.00    +0.058 C 
ATOM      6  C   UNL     1      31.975 -12.149 -22.044  0.00  0.00    +0.038 C 
ATOM      7  C   UNL     1      32.639  -9.543 -22.927  0.00  0.00    +0.018 C 
ATOM      8  C   UNL     1      31.506 -11.018 -21.364  0.00  0.00    +0.139 C 
ATOM      9  C   UNL     1      31.834  -9.736 -21.801  0.00  0.00    +0.038 C 
ATOM     10  H   UNL     1      34.264 -10.038 -25.223  0.00  0.00    +0.152 HD
ENDROOT
BRANCH   8  11
ATOM     11  O   UNL     1      30.720 -11.176 -20.261  0.00  0.00    -0.471 OA
ATOM     12  C   UNL     1      31.259 -10.741 -19.015  0.00  0.00    +0.252 C 
ENDBRANCH   8  11
BRANCH   2  13
ATOM     13  C   UNL     1      33.371 -14.348 -24.050  0.00  0.00    +0.005 C 
BRANCH  13  14
ATOM     14  C   UNL     1      34.472 -14.961 -23.164  0.00  0.00    -0.072 C 
BRANCH  14  15
ATOM     15  N   UNL     1      34.040 -16.208 -22.544  0.00  0.00    +0.390 N 
ATOM     16  H   UNL     1      33.159 -16.490 -22.974  0.00  0.00    -0.080 HD
BRANCH  15  17
ATOM     17  C   UNL     1      33.816 -16.019 -21.109  0.00  0.00    -0.058 C 
ATOM     18  C   UNL     1      32.333 -15.801 -20.829  0.00  0.00    -0.023 C 
ATOM     19  C   UNL     1      34.647 -14.838 -20.617  0.00  0.00    -0.023 C 
ENDBRANCH  15  17
BRANCH  15  20
ATOM     20  C   UNL     1      35.027 -17.265 -22.770  0.00  0.00    -0.058 C 
ATOM     21  C   UNL     1      34.933 -17.779 -24.204  0.00  0.00    -0.023 C 
ATOM     22  C   UNL     1      34.803 -18.393 -21.768  0.00  0.00    -0.023 C 
ENDBRANCH  15  20
ENDBRANCH  14  15
ENDBRANCH  13  14
ENDBRANCH   2  13
TORSDOF 6
ENDMDL
MODEL 4
REMARK VINA RESULT:      -7.9      2.727      5.024
REMARK  Name = 151182
REMARK  6 active torsions:
REMARK  status: ('A' for Active; 'I' for Inactive)
REMARK    1  A    between atoms: C_2  and  C_13
REMARK    2  A    between atoms: C_8  and  O_11
REMARK    3  A    between atoms: C_13  and  C_14
REMARK    4  A    between atoms: C_14  and  N_15
REMARK    5  A    between atoms: N_15  and  C_17
REMARK    6  A    between atoms: N_15  and  C_20
REMARK                            x       y       z     vdW  Elec       q    Type
REMARK                         _______ _______ _______ _____ _____    ______ ____
ROOT
ATOM      1  N   UNL     1      34.015 -17.035 -25.464  0.00  0.00    -0.312 N 
ATOM      2  C   UNL     1      34.256 -15.455 -23.923  0.00  0.00    -0.008 C 
ATOM      3  C   UNL     1      34.657 -16.697 -23.355  0.00  0.00    +0.014 C 
ATOM      4  C   UNL     1      34.496 -17.671 -24.343  0.00  0.00    +0.048 C 
ATOM      5  C   UNL     1      33.867 -15.695 -25.221  0.00  0.00    +0.058 C 
ATOM      6  C   UNL     1      35.143 -17.087 -22.091  0.00  0.00    +0.038 C 
ATOM      7  C   UNL     1      34.796 -19.021 -24.128  0.00  0.00    +0.018 C 
ATOM      8  C   UNL     1      35.449 -18.433 -21.863  0.00  0.00    +0.139 C 
ATOM      9  C   UNL     1      35.277 -19.384 -22.867  0.00  0.00    +0.038 C 
ATOM     10  H   UNL     1      33.807 -17.478 -26.319  0.00  0.00    +0.152 HD
ENDROOT
BRANCH   8  11
ATOM     11  O   UNL     1      35.919 -18.818 -20.642  0.00  0.00    -0.471 OA
ATOM     12  C   UNL     1      35.897 -20.212 -20.349  0.00  0.00    +0.252 C 
ENDBRANCH   8  11
BRANCH   2  13
ATOM     13  C   UNL     1      34.256 -14.141 -23.251  0.00  0.00    +0.005 C 
BRANCH  13  14
ATOM     14  C   UNL     1      33.351 -13.109 -23.950  0.00  0.00    -0.072 C 
BRANCH  14  15
ATOM     15  N   UNL     1      33.894 -11.759 -23.858  0.00  0.00    +0.390 N 
ATOM     16  H   UNL     1      34.841 -11.819 -23.484  0.00  0.00    -0.080 HD
BRANCH  15  17
ATOM     17  C   UNL     1      33.088 -10.940 -22.951  0.00  0.00    -0.058 C 
ATOM     18  C   UNL     1      31.921 -11.754 -22.400  0.00  0.00    -0.023 C 
ATOM     19  C   UNL     1      32.592  -9.701 -23.690  0.00  0.00    -0.023 C 
ENDBRANCH  15  17
BRANCH  15  20
ATOM     20  C   UNL     1      33.957 -11.138 -25.183  0.00  0.00    -0.058 C 
ATOM     21  C   UNL     1      33.676 -12.175 -26.267  0.00  0.00    -0.023 C 
ATOM     22  C   UNL     1      35.327 -10.497 -25.379  0.00  0.00    -0.023 C 
ENDBRANCH  15  20
ENDBRANCH  14  15
ENDBRANCH  13  14
ENDBRANCH   2  13
TORSDOF 6
ENDMDL
MODEL 5
REMARK VINA RESULT:      -7.9      3.235      7.498
REMARK  Name = 151182
REMARK  6 active torsions:
REMARK  status: ('A' for Active; 'I' for Inactive)
REMARK    1  A    between atoms: C_2  and  C_13
REMARK    2  A    between atoms: C_8  and  O_11
REMARK    3  A    between atoms: C_13  and  C_14
REMARK    4  A    between atoms: C_14  and  N_15
REMARK    5  A    between atoms: N_15  and  C_17
REMARK    6  A    between atoms: N_15  and  C_20
REMARK                            x       y       z     vdW  Elec       q    Type
REMARK                         _______ _______ _______ _____ _____    ______ ____
ROOT
ATOM      1  N   UNL     1      33.972 -13.936 -23.912  0.00  0.00    -0.312 N 
ATOM      2  C   UNL     1      33.513 -15.110 -22.086  0.00  0.00    -0.008 C 
ATOM      3  C   UNL     1      32.901 -13.832 -21.959  0.00  0.00    +0.014 C 
ATOM      4  C   UNL     1      33.204 -13.114 -23.118  0.00  0.00    +0.048 C 
ATOM      5  C   UNL     1      34.164 -15.143 -23.297  0.00  0.00    +0.058 C 
ATOM      6  C   UNL     1      32.114 -13.214 -20.965  0.00  0.00    +0.038 C 
ATOM      7  C   UNL     1      32.760 -11.805 -23.334  0.00  0.00    +0.018 C 
ATOM      8  C   UNL     1      31.663 -11.905 -21.168  0.00  0.00    +0.139 C 
ATOM      9  C   UNL     1      31.981 -11.213 -22.335  0.00  0.00    +0.038 C 
ATOM     10  H   UNL     1      34.331 -13.690 -24.796  0.00  0.00    +0.152 HD
ENDROOT
BRANCH   8  11
ATOM     11  O   UNL     1      30.903 -11.301 -20.211  0.00  0.00    -0.471 OA
ATOM     12  C   UNL     1      31.596 -10.637 -19.158  0.00  0.00    +0.252 C 
ENDBRANCH   8  11
BRANCH   2  13
ATOM     13  C   UNL     1      33.463 -16.210 -21.101  0.00  0.00    +0.005 C 
BRANCH  13  14
ATOM     14  C   UNL     1      34.655 -17.178 -21.224  0.00  0.00    -0.072 C 
BRANCH  14  15
ATOM     15  N   UNL     1      34.245 -18.484 -21.728  0.00  0.00    +0.390 N 
ATOM     16  H   UNL     1      33.350 -18.375 -22.207  0.00  0.00    -0.080 HD
BRANCH  15  17
ATOM     17  C   UNL     1      34.069 -19.430 -20.626  0.00  0.00    -0.058 C 
ATOM     18  C   UNL     1      35.197 -20.457 -20.625  0.00  0.00    -0.023 C 
ATOM     19  C   UNL     1      32.709 -20.109 -20.751  0.00  0.00    -0.023 C 
ENDBRANCH  15  17
BRANCH  15  20
ATOM     20  C   UNL     1      35.225 -18.997 -22.687  0.00  0.00    -0.058 C 
ATOM     21  C   UNL     1      36.501 -18.160 -22.637  0.00  0.00    -0.023 C 
ATOM     22  C   UNL     1      34.619 -18.989 -24.087  0.00  0.00    -0.023 C 
ENDBRANCH  15  20
ENDBRANCH  14  15
ENDBRANCH  13  14
ENDBRANCH   2  13
TORSDOF 6
ENDMDL
MODEL 6
REMARK VINA RESULT:      -7.8      5.857     10.324
REMARK  Name = 151182
REMARK  6 active torsions:
REMARK  status: ('A' for Active; 'I' for Inactive)
REMARK    1  A    between atoms: C_2  and  C_13
REMARK    2  A    between atoms: C_8  and  O_11
REMARK    3  A    between atoms: C_13  and  C_14
REMARK    4  A    between atoms: C_14  and  N_15
REMARK    5  A    between atoms: N_15  and  C_17
REMARK    6  A    between atoms: N_15  and  C_20
REMARK                            x       y       z     vdW  Elec       q    Type
REMARK                         _______ _______ _______ _____ _____    ______ ____
ROOT
ATOM      1  N   UNL     1      32.324  -9.274 -19.094  0.00  0.00    -0.312 N 
ATOM      2  C   UNL     1      31.713 -10.785 -20.601  0.00  0.00    -0.008 C 
ATOM      3  C   UNL     1      31.813  -9.523 -21.251  0.00  0.00    +0.014 C 
ATOM      4  C   UNL     1      32.198  -8.592 -20.284  0.00  0.00    +0.048 C 
ATOM      5  C   UNL     1      32.033 -10.599 -19.276  0.00  0.00    +0.058 C 
ATOM      6  C   UNL     1      31.612  -9.082 -22.574  0.00  0.00    +0.038 C 
ATOM      7  C   UNL     1      32.393  -7.237 -20.574  0.00  0.00    +0.018 C 
ATOM      8  C   UNL     1      31.804  -7.729 -22.880  0.00  0.00    +0.139 C 
ATOM      9  C   UNL     1      32.188  -6.823 -21.894  0.00  0.00    +0.038 C 
ATOM     10  H   UNL     1      32.586  -8.867 -18.237  0.00  0.00    +0.152 HD
ENDROOT
BRANCH   8  11
ATOM     11  O   UNL     1      31.611  -7.296 -24.158  0.00  0.00    -0.471 OA
ATOM     12  C   UNL     1      31.260  -5.925 -24.330  0.00  0.00    +0.252 C 
ENDBRANCH   8  11
BRANCH   2  13
ATOM     13  C   UNL     1      31.335 -12.068 -21.227  0.00  0.00    +0.005 C 
BRANCH  13  14
ATOM     14  C   UNL     1      32.184 -12.403 -22.468  0.00  0.00    -0.072 C 
BRANCH  14  15
ATOM     15  N   UNL     1      32.609 -13.798 -22.476  0.00  0.00    +0.390 N 
ATOM     16  H   UNL     1      31.828 -14.368 -22.802  0.00  0.00    -0.080 HD
BRANCH  15  17
ATOM     17  C   UNL     1      32.971 -14.234 -21.126  0.00  0.00    -0.058 C 
ATOM     18  C   UNL     1      34.484 -14.377 -21.004  0.00  0.00    -0.023 C 
ATOM     19  C   UNL     1      32.268 -15.551 -20.813  0.00  0.00    -0.023 C 
ENDBRANCH  15  17
BRANCH  15  20
ATOM     20  C   UNL     1      33.736 -13.987 -23.391  0.00  0.00    -0.058 C 
ATOM     21  C   UNL     1      33.930 -12.745 -24.256  0.00  0.00    -0.023 C 
ATOM     22  C   UNL     1      33.490 -15.222 -24.251  0.00  0.00    -0.023 C 
ENDBRANCH  15  20
ENDBRANCH  14  15
ENDBRANCH  13  14
ENDBRANCH   2  13
TORSDOF 6
ENDMDL
MODEL 7
REMARK VINA RESULT:      -7.8      3.391      6.303
REMARK  Name = 151182
REMARK  6 active torsions:
REMARK  status: ('A' for Active; 'I' for Inactive)
REMARK    1  A    between atoms: C_2  and  C_13
REMARK    2  A    between atoms: C_8  and  O_11
REMARK    3  A    between atoms: C_13  and  C_14
REMARK    4  A    between atoms: C_14  and  N_15
REMARK    5  A    between atoms: N_15  and  C_17
REMARK    6  A    between atoms: N_15  and  C_20
REMARK                            x       y       z     vdW  Elec       q    Type
REMARK                         _______ _______ _______ _____ _____    ______ ____
ROOT
ATOM      1  N   UNL     1      33.315 -14.411 -24.768  0.00  0.00    -0.312 N 
ATOM      2  C   UNL     1      32.741 -13.756 -22.727  0.00  0.00    -0.008 C 
ATOM      3  C   UNL     1      33.575 -14.902 -22.608  0.00  0.00    +0.014 C 
ATOM      4  C   UNL     1      33.922 -15.293 -23.903  0.00  0.00    +0.048 C 
ATOM      5  C   UNL     1      32.599 -13.478 -24.066  0.00  0.00    +0.058 C 
ATOM      6  C   UNL     1      34.071 -15.647 -21.520  0.00  0.00    +0.038 C 
ATOM      7  C   UNL     1      34.742 -16.396 -24.166  0.00  0.00    +0.018 C 
ATOM      8  C   UNL     1      34.893 -16.753 -21.767  0.00  0.00    +0.139 C 
ATOM      9  C   UNL     1      35.222 -17.120 -23.070  0.00  0.00    +0.038 C 
ATOM     10  H   UNL     1      33.385 -14.445 -25.750  0.00  0.00    +0.152 HD
ENDROOT
BRANCH   8  11
ATOM     11  O   UNL     1      35.376 -17.478 -20.718  0.00  0.00    -0.471 OA
ATOM     12  C   UNL     1      36.042 -18.699 -21.028  0.00  0.00    +0.252 C 
ENDBRANCH   8  11
BRANCH   2  13
ATOM     13  C   UNL     1      32.132 -12.994 -21.617  0.00  0.00    +0.005 C 
BRANCH  13  14
ATOM     14  C   UNL     1      31.548 -11.642 -22.069  0.00  0.00    -0.072 C 
BRANCH  14  15
ATOM     15  N   UNL     1      32.300 -10.516 -21.527  0.00  0.00    +0.390 N 
ATOM     16  H   UNL     1      33.195 -10.865 -21.183  0.00  0.00    -0.080 HD
BRANCH  15  17
ATOM     17  C   UNL     1      31.580  -9.907 -20.407  0.00  0.00    -0.058 C 
ATOM     18  C   UNL     1      32.253  -8.602 -19.993  0.00  0.00    -0.023 C 
ATOM     19  C   UNL     1      31.526 -10.890 -19.242  0.00  0.00    -0.023 C 
ENDBRANCH  15  17
BRANCH  15  20
ATOM     20  C   UNL     1      32.558  -9.520 -22.568  0.00  0.00    -0.058 C 
ATOM     21  C   UNL     1      31.248  -9.077 -23.213  0.00  0.00    -0.023 C 
ATOM     22  C   UNL     1      33.509 -10.106 -23.606  0.00  0.00    -0.023 C 
ENDBRANCH  15  20
ENDBRANCH  14  15
ENDBRANCH  13  14
ENDBRANCH   2  13
TORSDOF 6
ENDMDL
MODEL 8
REMARK VINA RESULT:      -7.7      5.390      8.286
REMARK  Name = 151182
REMARK  6 active torsions:
REMARK  status: ('A' for Active; 'I' for Inactive)
REMARK    1  A    between atoms: C_2  and  C_13
REMARK    2  A    between atoms: C_8  and  O_11
REMARK    3  A    between atoms: C_13  and  C_14
REMARK    4  A    between atoms: C_14  and  N_15
REMARK    5  A    between atoms: N_15  and  C_17
REMARK    6  A    between atoms: N_15  and  C_20
REMARK                            x       y       z     vdW  Elec       q    Type
REMARK                         _______ _______ _______ _____ _____    ______ ____
ROOT
ATOM      1  N   UNL     1      31.938 -12.729 -19.878  0.00  0.00    -0.312 N 
ATOM      2  C   UNL     1      31.752 -11.406 -21.651  0.00  0.00    -0.008 C 
ATOM      3  C   UNL     1      32.274 -12.658 -22.082  0.00  0.00    +0.014 C 
ATOM      4  C   UNL     1      32.381 -13.470 -20.951  0.00  0.00    +0.048 C 
ATOM      5  C   UNL     1      31.556 -11.481 -20.291  0.00  0.00    +0.058 C 
ATOM      6  C   UNL     1      32.666 -13.180 -23.331  0.00  0.00    +0.038 C 
ATOM      7  C   UNL     1      32.864 -14.782 -21.006  0.00  0.00    +0.018 C 
ATOM      8  C   UNL     1      33.151 -14.491 -23.401  0.00  0.00    +0.139 C 
ATOM      9  C   UNL     1      33.247 -15.278 -22.255  0.00  0.00    +0.038 C 
ATOM     10  H   UNL     1      31.901 -13.051 -18.948  0.00  0.00    +0.152 HD
ENDROOT
BRANCH   8  11
ATOM     11  O   UNL     1      33.533 -15.002 -24.606  0.00  0.00    -0.471 OA
ATOM     12  C   UNL     1      32.958 -14.415 -25.770  0.00  0.00    +0.252 C 
ENDBRANCH   8  11
BRANCH   2  13
ATOM     13  C   UNL     1      31.467 -10.233 -22.502  0.00  0.00    +0.005 C 
BRANCH  13  14
ATOM     14  C   UNL     1      32.380  -9.031 -22.190  0.00  0.00    -0.072 C 
BRANCH  14  15
ATOM     15  N   UNL     1      32.753  -8.305 -23.398  0.00  0.00    +0.390 N 
ATOM     16  H   UNL     1      32.350  -8.790 -24.201  0.00  0.00    -0.080 HD
BRANCH  15  17
ATOM     17  C   UNL     1      34.208  -8.280 -23.555  0.00  0.00    -0.058 C 
ATOM     18  C   UNL     1      34.629  -7.076 -24.392  0.00  0.00    -0.023 C 
ATOM     19  C   UNL     1      34.673  -9.583 -24.197  0.00  0.00    -0.023 C 
ENDBRANCH  15  17
BRANCH  15  20
ATOM     20  C   UNL     1      32.222  -6.941 -23.364  0.00  0.00    -0.058 C 
ATOM     21  C   UNL     1      31.975  -6.506 -21.922  0.00  0.00    -0.023 C 
ATOM     22  C   UNL     1      30.937  -6.876 -24.184  0.00  0.00    -0.023 C 
ENDBRANCH  15  20
ENDBRANCH  14  15
ENDBRANCH  13  14
ENDBRANCH   2  13
TORSDOF 6
ENDMDL
MODEL 9
REMARK VINA RESULT:      -7.6      3.465      6.448
REMARK  Name = 151182
REMARK  6 active torsions:
REMARK  status: ('A' for Active; 'I' for Inactive)
REMARK    1  A    between atoms: C_2  and  C_13
REMARK    2  A    between atoms: C_8  and  O_11
REMARK    3  A    between atoms: C_13  and  C_14
REMARK    4  A    between atoms: C_14  and  N_15
REMARK    5  A    between atoms: N_15  and  C_17
REMARK    6  A    between atoms: N_15  and  C_20
REMARK                            x       y       z     vdW  Elec       q    Type
REMARK                         _______ _______ _______ _____ _____    ______ ____
ROOT
ATOM      1  N   UNL     1      33.388 -15.152 -25.974  0.00  0.00    -0.312 N 
ATOM      2  C   UNL     1      33.329 -13.763 -24.244  0.00  0.00    -0.008 C 
ATOM      3  C   UNL     1      33.918 -14.985 -23.814  0.00  0.00    +0.014 C 
ATOM      4  C   UNL     1      33.944 -15.839 -24.918  0.00  0.00    +0.048 C 
ATOM      5  C   UNL     1      33.014 -13.897 -25.576  0.00  0.00    +0.058 C 
ATOM      6  C   UNL     1      34.435 -15.447 -22.587  0.00  0.00    +0.038 C 
ATOM      7  C   UNL     1      34.460 -17.139 -24.857  0.00  0.00    +0.018 C 
ATOM      8  C   UNL     1      34.955 -16.744 -22.511  0.00  0.00    +0.139 C 
ATOM      9  C   UNL     1      34.967 -17.575 -23.629  0.00  0.00    +0.038 C 
ATOM     10  H   UNL     1      33.276 -15.512 -26.884  0.00  0.00    +0.152 HD
ENDROOT
BRANCH   8  11
ATOM     11  O   UNL     1      35.456 -17.198 -21.327  0.00  0.00    -0.471 OA
ATOM     12  C   UNL     1      35.850 -18.567 -21.273  0.00  0.00    +0.252 C 
ENDBRANCH   8  11
BRANCH   2  13
ATOM     13  C   UNL     1      33.095 -12.562 -23.417  0.00  0.00    +0.005 C 
BRANCH  13  14
ATOM     14  C   UNL     1      33.710 -11.287 -24.025  0.00  0.00    -0.072 C 
BRANCH  14  15
ATOM     15  N   UNL     1      33.438 -10.110 -23.208  0.00  0.00    +0.390 N 
ATOM     16  H   UNL     1      33.930 -10.215 -22.321  0.00  0.00    -0.080 HD
BRANCH  15  17
ATOM     17  C   UNL     1      32.005  -9.993 -22.933  0.00  0.00    -0.058 C 
ATOM     18  C   UNL     1      31.441  -8.735 -23.586  0.00  0.00    -0.023 C 
ATOM     19  C   UNL     1      31.777  -9.979 -21.425  0.00  0.00    -0.023 C 
ENDBRANCH  15  17
BRANCH  15  20
ATOM     20  C   UNL     1      33.928  -8.899 -23.870  0.00  0.00    -0.058 C 
ATOM     21  C   UNL     1      35.039  -9.248 -24.857  0.00  0.00    -0.023 C 
ATOM     22  C   UNL     1      34.420  -7.909 -22.819  0.00  0.00    -0.023 C 
ENDBRANCH  15  20
ENDBRANCH  14  15
ENDBRANCH  13  14
ENDBRANCH   2  13
TORSDOF 6
ENDMDL
