MODEL 1
REMARK VINA RESULT:      -8.6      0.000      0.000
REMARK  Name = 461278
REMARK  6 active torsions:
REMARK  status: ('A' for Active; 'I' for Inactive)
REMARK    1  A    between atoms: C_2  and  N_8
REMARK    2  A    between atoms: C_3  and  C_16
REMARK    3  A    between atoms: C_16  and  O_17
REMARK    4  A    between atoms: O_17  and  P_18
REMARK    5  A    between atoms: P_18  and  O_20
REMARK    6  A    between atoms: P_18  and  O_22
REMARK                            x       y       z     vdW  Elec       q    Type
REMARK                         _______ _______ _______ _____ _____    ______ ____
ROOT
ATOM      1  O   UNL     1      34.505 -19.491 -22.738  0.00  0.00    -0.329 OA
ATOM      2  C   UNL     1      35.414 -18.407 -23.000  0.00  0.00    +0.223 C 
ATOM      3  C   UNL     1      34.865 -20.092 -21.474  0.00  0.00    +0.169 C 
ATOM      4  C   UNL     1      36.345 -18.360 -21.849  0.00  0.00    +0.022 C 
ATOM      5  C   UNL     1      36.036 -19.319 -20.979  0.00  0.00    +0.005 C 
ENDROOT
BRANCH   2   8
ATOM      6  O   UNL     1      34.741 -17.073 -25.427  0.00  0.00    -0.252 OA
ATOM      7  O   UNL     1      32.565 -13.705 -23.175  0.00  0.00    -0.270 OA
ATOM      8  N   UNL     1      34.662 -17.161 -23.097  0.00  0.00    -0.215 N 
ATOM      9  N   UNL     1      33.659 -15.400 -24.291  0.00  0.00    -0.236 N 
ATOM     10  C   UNL     1      34.239 -16.573 -21.923  0.00  0.00    +0.072 C 
ATOM     11  C   UNL     1      34.388 -16.592 -24.347  0.00  0.00    +0.316 C 
ATOM     12  C   UNL     1      33.542 -15.431 -21.872  0.00  0.00    +0.047 C 
ATOM     13  C   UNL     1      33.202 -14.754 -23.151  0.00  0.00    +0.250 C 
ATOM     14  C   UNL     1      33.085 -14.797 -20.598  0.00  0.00    +0.037 C 
ATOM     15  H   UNL     1      33.448 -14.972 -25.153  0.00  0.00    +0.159 HD
ENDBRANCH   2   8
BRANCH   3  16
ATOM     16  C   UNL     1      33.670 -20.022 -20.539  0.00  0.00    +0.188 C 
BRANCH  16  17
ATOM     17  O   UNL     1      33.158 -21.331 -20.352  0.00  0.00    -0.270 OA
BRANCH  17  18
ATOM     18  P   UNL     1      33.771 -22.236 -19.158  0.00  0.00    +0.473 P 
ATOM     19  O   UNL     1      35.014 -21.687 -18.519  0.00  0.00    -0.227 OA
BRANCH  18  20
ATOM     20  O   UNL     1      33.925 -23.701 -19.826  0.00  0.00    -0.303 OA
ATOM     21  H   UNL     1      34.437 -23.630 -20.648  0.00  0.00    +0.222 HD
ENDBRANCH  18  20
BRANCH  18  22
ATOM     22  O   UNL     1      32.512 -22.414 -18.158  0.00  0.00    -0.303 OA
ATOM     23  H   UNL     1      31.898 -21.672 -18.277  0.00  0.00    +0.222 HD
ENDBRANCH  18  22
ENDBRANCH  17  18
ENDBRANCH  16  17
ENDBRANCH   3  16
TORSDOF 6
ENDMDL
MODEL 2
REMARK VINA RESULT:      -8.5      7.289      9.753
REMARK  Name = 461278
REMARK  6 active torsions:
REMARK  status: ('A' for Active; 'I' for Inactive)
REMARK    1  A    between atoms: C_2  and  N_8
REMARK    2  A    between atoms: C_3  and  C_16
REMARK    3  A    between atoms: C_16  and  O_17
REMARK    4  A    between atoms: O_17  and  P_18
REMARK    5  A    between atoms: P_18  and  O_20
REMARK    6  A    between atoms: P_18  and  O_22
REMARK                            x       y       z     vdW  Elec       q    Type
REMARK                         _______ _______ _______ _____ _____    ______ ____
ROOT
ATOM      1  O   UNL     1      31.837 -25.386 -14.369  0.00  0.00    -0.329 OA
ATOM      2  C   UNL     1      32.659 -24.395 -13.728  0.00  0.00    +0.223 C 
ATOM      3  C   UNL     1      30.463 -24.946 -14.313  0.00  0.00    +0.169 C 
ATOM      4  C   UNL     1      31.739 -23.324 -13.278  0.00  0.00    +0.022 C 
ATOM      5  C   UNL     1      30.488 -23.635 -13.609  0.00  0.00    +0.005 C 
ENDROOT
BRANCH   2   8
ATOM      6  O   UNL     1      35.432 -23.971 -13.229  0.00  0.00    -0.252 OA
ATOM      7  O   UNL     1      36.138 -22.399 -17.493  0.00  0.00    -0.270 OA
ATOM      8  N   UNL     1      33.618 -23.869 -14.693  0.00  0.00    -0.215 N 
ATOM      9  N   UNL     1      35.770 -23.189 -15.358  0.00  0.00    -0.236 N 
ATOM     10  C   UNL     1      33.154 -23.547 -15.951  0.00  0.00    +0.072 C 
ATOM     11  C   UNL     1      34.963 -23.701 -14.337  0.00  0.00    +0.316 C 
ATOM     12  C   UNL     1      33.929 -23.057 -16.927  0.00  0.00    +0.047 C 
ATOM     13  C   UNL     1      35.373 -22.845 -16.642  0.00  0.00    +0.250 C 
ATOM     14  C   UNL     1      33.423 -22.709 -18.289  0.00  0.00    +0.037 C 
ATOM     15  H   UNL     1      36.722 -23.058 -15.143  0.00  0.00    +0.159 HD
ENDBRANCH   2   8
BRANCH   3  16
ATOM     16  C   UNL     1      29.920 -24.848 -15.728  0.00  0.00    +0.188 C 
BRANCH  16  17
ATOM     17  O   UNL     1      28.630 -24.260 -15.684  0.00  0.00    -0.270 OA
BRANCH  17  18
ATOM     18  P   UNL     1      28.302 -23.043 -16.699  0.00  0.00    +0.473 P 
ATOM     19  O   UNL     1      27.419 -23.404 -17.858  0.00  0.00    -0.227 OA
BRANCH  18  20
ATOM     20  O   UNL     1      29.761 -22.467 -17.094  0.00  0.00    -0.303 OA
ATOM     21  H   UNL     1      29.668 -21.805 -17.797  0.00  0.00    +0.222 HD
ENDBRANCH  18  20
BRANCH  18  22
ATOM     22  O   UNL     1      27.706 -21.905 -15.716  0.00  0.00    -0.303 OA
ATOM     23  H   UNL     1      28.434 -21.371 -15.361  0.00  0.00    +0.222 HD
ENDBRANCH  18  22
ENDBRANCH  17  18
ENDBRANCH  16  17
ENDBRANCH   3  16
TORSDOF 6
ENDMDL
MODEL 3
REMARK VINA RESULT:      -8.4      6.415      8.947
REMARK  Name = 461278
REMARK  6 active torsions:
REMARK  status: ('A' for Active; 'I' for Inactive)
REMARK    1  A    between atoms: C_2  and  N_8
REMARK    2  A    between atoms: C_3  and  C_16
REMARK    3  A    between atoms: C_16  and  O_17
REMARK    4  A    between atoms: O_17  and  P_18
REMARK    5  A    between atoms: P_18  and  O_20
REMARK    6  A    between atoms: P_18  and  O_22
REMARK                            x       y       z     vdW  Elec       q    Type
REMARK                         _______ _______ _______ _____ _____    ______ ____
ROOT
ATOM      1  O   UNL     1      35.830 -22.875 -14.602  0.00  0.00    -0.329 OA
ATOM      2  C   UNL     1      34.506 -23.384 -14.842  0.00  0.00    +0.223 C 
ATOM      3  C   UNL     1      36.703 -23.990 -14.320  0.00  0.00    +0.169 C 
ATOM      4  C   UNL     1      34.597 -24.856 -14.700  0.00  0.00    +0.022 C 
ATOM      5  C   UNL     1      35.846 -25.203 -14.402  0.00  0.00    +0.005 C 
ENDROOT
BRANCH   2   8
ATOM      6  O   UNL     1      31.844 -23.554 -15.847  0.00  0.00    -0.252 OA
ATOM      7  O   UNL     1      33.120 -21.996 -19.981  0.00  0.00    -0.270 OA
ATOM      8  N   UNL     1      34.091 -23.028 -16.194  0.00  0.00    -0.215 N 
ATOM      9  N   UNL     1      32.495 -22.777 -17.904  0.00  0.00    -0.236 N 
ATOM     10  C   UNL     1      35.059 -22.572 -17.064  0.00  0.00    +0.072 C 
ATOM     11  C   UNL     1      32.750 -23.153 -16.582  0.00  0.00    +0.316 C 
ATOM     12  C   UNL     1      34.812 -22.213 -18.330  0.00  0.00    +0.047 C 
ATOM     13  C   UNL     1      33.415 -22.310 -18.831  0.00  0.00    +0.250 C 
ATOM     14  C   UNL     1      35.862 -21.718 -19.270  0.00  0.00    +0.037 C 
ATOM     15  H   UNL     1      31.562 -22.852 -18.211  0.00  0.00    +0.159 HD
ENDBRANCH   2   8
BRANCH   3  16
ATOM     16  C   UNL     1      37.837 -23.996 -15.331  0.00  0.00    +0.188 C 
BRANCH  16  17
ATOM     17  O   UNL     1      39.053 -24.259 -14.654  0.00  0.00    -0.270 OA
BRANCH  17  18
ATOM     18  P   UNL     1      39.693 -25.742 -14.765  0.00  0.00    +0.473 P 
ATOM     19  O   UNL     1      38.750 -26.866 -14.447  0.00  0.00    -0.227 OA
BRANCH  18  20
ATOM     20  O   UNL     1      41.013 -25.662 -13.833  0.00  0.00    -0.303 OA
ATOM     21  H   UNL     1      40.757 -25.417 -12.929  0.00  0.00    +0.222 HD
ENDBRANCH  18  20
BRANCH  18  22
ATOM     22  O   UNL     1      40.298 -25.762 -16.265  0.00  0.00    -0.303 OA
ATOM     23  H   UNL     1      40.209 -24.881 -16.661  0.00  0.00    +0.222 HD
ENDBRANCH  18  22
ENDBRANCH  17  18
ENDBRANCH  16  17
ENDBRANCH   3  16
TORSDOF 6
ENDMDL
MODEL 4
REMARK VINA RESULT:      -8.4      7.257      9.616
REMARK  Name = 461278
REMARK  6 active torsions:
REMARK  status: ('A' for Active; 'I' for Inactive)
REMARK    1  A    between atoms: C_2  and  N_8
REMARK    2  A    between atoms: C_3  and  C_16
REMARK    3  A    between atoms: C_16  and  O_17
REMARK    4  A    between atoms: O_17  and  P_18
REMARK    5  A    between atoms: P_18  and  O_20
REMARK    6  A    between atoms: P_18  and  O_22
REMARK                            x       y       z     vdW  Elec       q    Type
REMARK                         _______ _______ _______ _____ _____    ______ ____
ROOT
ATOM      1  O   UNL     1      37.477 -23.504 -14.472  0.00  0.00    -0.329 OA
ATOM      2  C   UNL     1      36.206 -22.884 -14.207  0.00  0.00    +0.223 C 
ATOM      3  C   UNL     1      37.586 -24.688 -13.652  0.00  0.00    +0.169 C 
ATOM      4  C   UNL     1      35.534 -23.733 -13.195  0.00  0.00    +0.022 C 
ATOM      5  C   UNL     1      36.318 -24.760 -12.877  0.00  0.00    +0.005 C 
ENDROOT
BRANCH   2   8
ATOM      6  O   UNL     1      37.209 -22.155 -16.773  0.00  0.00    -0.252 OA
ATOM      7  O   UNL     1      33.105 -22.791 -18.750  0.00  0.00    -0.270 OA
ATOM      8  N   UNL     1      35.424 -22.845 -15.438  0.00  0.00    -0.215 N 
ATOM      9  N   UNL     1      35.157 -22.476 -17.746  0.00  0.00    -0.236 N 
ATOM     10  C   UNL     1      34.089 -23.185 -15.363  0.00  0.00    +0.072 C 
ATOM     11  C   UNL     1      36.023 -22.469 -16.648  0.00  0.00    +0.316 C 
ATOM     12  C   UNL     1      33.262 -23.190 -16.416  0.00  0.00    +0.047 C 
ATOM     13  C   UNL     1      33.810 -22.807 -17.744  0.00  0.00    +0.250 C 
ATOM     14  C   UNL     1      31.818 -23.561 -16.331  0.00  0.00    +0.037 C 
ATOM     15  H   UNL     1      35.544 -22.217 -18.614  0.00  0.00    +0.159 HD
ENDBRANCH   2   8
BRANCH   3  16
ATOM     16  C   UNL     1      37.799 -25.892 -14.553  0.00  0.00    +0.188 C 
BRANCH  16  17
ATOM     17  O   UNL     1      38.970 -26.574 -14.136  0.00  0.00    -0.270 OA
BRANCH  17  18
ATOM     18  P   UNL     1      40.410 -25.935 -14.509  0.00  0.00    +0.473 P 
ATOM     19  O   UNL     1      40.703 -24.612 -13.864  0.00  0.00    -0.227 OA
BRANCH  18  20
ATOM     20  O   UNL     1      40.423 -25.935 -16.126  0.00  0.00    -0.303 OA
ATOM     21  H   UNL     1      39.831 -25.239 -16.455  0.00  0.00    +0.222 HD
ENDBRANCH  18  20
BRANCH  18  22
ATOM     22  O   UNL     1      41.440 -27.123 -14.129  0.00  0.00    -0.303 OA
ATOM     23  H   UNL     1      42.293 -26.961 -14.562  0.00  0.00    +0.222 HD
ENDBRANCH  18  22
ENDBRANCH  17  18
ENDBRANCH  16  17
ENDBRANCH   3  16
TORSDOF 6
ENDMDL
MODEL 5
REMARK VINA RESULT:      -8.4      7.411      9.433
REMARK  Name = 461278
REMARK  6 active torsions:
REMARK  status: ('A' for Active; 'I' for Inactive)
REMARK    1  A    between atoms: C_2  and  N_8
REMARK    2  A    between atoms: C_3  and  C_16
REMARK    3  A    between atoms: C_16  and  O_17
REMARK    4  A    between atoms: O_17  and  P_18
REMARK    5  A    between atoms: P_18  and  O_20
REMARK    6  A    between atoms: P_18  and  O_22
REMARK                            x       y       z     vdW  Elec       q    Type
REMARK                         _______ _______ _______ _____ _____    ______ ____
ROOT
ATOM      1  O   UNL     1      35.150 -24.713 -15.813  0.00  0.00    -0.329 OA
ATOM      2  C   UNL     1      34.751 -23.516 -16.504  0.00  0.00    +0.223 C 
ATOM      3  C   UNL     1      36.144 -24.361 -14.827  0.00  0.00    +0.169 C 
ATOM      4  C   UNL     1      35.534 -22.411 -15.903  0.00  0.00    +0.022 C 
ATOM      5  C   UNL     1      36.329 -22.889 -14.949  0.00  0.00    +0.005 C 
ENDROOT
BRANCH   2   8
ATOM      6  O   UNL     1      32.921 -22.621 -18.497  0.00  0.00    -0.252 OA
ATOM      7  O   UNL     1      29.387 -22.742 -15.557  0.00  0.00    -0.270 OA
ATOM      8  N   UNL     1      33.323 -23.297 -16.301  0.00  0.00    -0.215 N 
ATOM      9  N   UNL     1      31.168 -22.685 -17.020  0.00  0.00    -0.236 N 
ATOM     10  C   UNL     1      32.808 -23.539 -15.044  0.00  0.00    +0.072 C 
ATOM     11  C   UNL     1      32.515 -22.853 -17.356  0.00  0.00    +0.316 C 
ATOM     12  C   UNL     1      31.518 -23.378 -14.725  0.00  0.00    +0.047 C 
ATOM     13  C   UNL     1      30.583 -22.910 -15.782  0.00  0.00    +0.250 C 
ATOM     14  C   UNL     1      30.964 -23.642 -13.363  0.00  0.00    +0.037 C 
ATOM     15  H   UNL     1      30.571 -22.374 -17.738  0.00  0.00    +0.159 HD
ENDBRANCH   2   8
BRANCH   3  16
ATOM     16  C   UNL     1      35.647 -24.784 -13.455  0.00  0.00    +0.188 C 
BRANCH  16  17
ATOM     17  O   UNL     1      35.696 -23.665 -12.586  0.00  0.00    -0.270 OA
BRANCH  17  18
ATOM     18  P   UNL     1      36.452 -23.825 -11.163  0.00  0.00    +0.473 P 
ATOM     19  O   UNL     1      35.582 -24.283 -10.030  0.00  0.00    -0.227 OA
BRANCH  18  20
ATOM     20  O   UNL     1      37.173 -22.393 -10.948  0.00  0.00    -0.303 OA
ATOM     21  H   UNL     1      37.066 -21.853 -11.748  0.00  0.00    +0.222 HD
ENDBRANCH  18  20
BRANCH  18  22
ATOM     22  O   UNL     1      37.684 -24.811 -11.519  0.00  0.00    -0.303 OA
ATOM     23  H   UNL     1      38.433 -24.288 -11.846  0.00  0.00    +0.222 HD
ENDBRANCH  18  22
ENDBRANCH  17  18
ENDBRANCH  16  17
ENDBRANCH   3  16
TORSDOF 6
ENDMDL
MODEL 6
REMARK VINA RESULT:      -8.1      3.091      4.883
REMARK  Name = 461278
REMARK  6 active torsions:
REMARK  status: ('A' for Active; 'I' for Inactive)
REMARK    1  A    between atoms: C_2  and  N_8
REMARK    2  A    between atoms: C_3  and  C_16
REMARK    3  A    between atoms: C_16  and  O_17
REMARK    4  A    between atoms: O_17  and  P_18
REMARK    5  A    between atoms: P_18  and  O_20
REMARK    6  A    between atoms: P_18  and  O_22
REMARK                            x       y       z     vdW  Elec       q    Type
REMARK                         _______ _______ _______ _____ _____    ______ ____
ROOT
ATOM      1  O   UNL     1      34.633 -14.098 -21.839  0.00  0.00    -0.329 OA
ATOM      2  C   UNL     1      33.493 -13.329 -22.260  0.00  0.00    +0.223 C 
ATOM      3  C   UNL     1      34.161 -15.249 -21.106  0.00  0.00    +0.169 C 
ATOM      4  C   UNL     1      32.299 -14.053 -21.763  0.00  0.00    +0.022 C 
ATOM      5  C   UNL     1      32.677 -15.145 -21.104  0.00  0.00    +0.005 C 
ENDROOT
BRANCH   2   8
ATOM      6  O   UNL     1      34.028 -10.992 -23.801  0.00  0.00    -0.252 OA
ATOM      7  O   UNL     1      33.373 -13.240 -27.759  0.00  0.00    -0.270 OA
ATOM      8  N   UNL     1      33.473 -13.257 -23.717  0.00  0.00    -0.215 N 
ATOM      9  N   UNL     1      33.698 -12.126 -25.767  0.00  0.00    -0.236 N 
ATOM     10  C   UNL     1      33.171 -14.408 -24.413  0.00  0.00    +0.072 C 
ATOM     11  C   UNL     1      33.752 -12.050 -24.372  0.00  0.00    +0.316 C 
ATOM     12  C   UNL     1      33.119 -14.478 -25.750  0.00  0.00    +0.047 C 
ATOM     13  C   UNL     1      33.403 -13.245 -26.532  0.00  0.00    +0.250 C 
ATOM     14  C   UNL     1      32.792 -15.727 -26.501  0.00  0.00    +0.037 C 
ATOM     15  H   UNL     1      33.890 -11.295 -26.261  0.00  0.00    +0.159 HD
ENDBRANCH   2   8
BRANCH   3  16
ATOM     16  C   UNL     1      34.667 -16.508 -21.790  0.00  0.00    +0.188 C 
BRANCH  16  17
ATOM     17  O   UNL     1      35.233 -17.364 -20.812  0.00  0.00    -0.270 OA
BRANCH  17  18
ATOM     18  P   UNL     1      35.908 -18.752 -21.299  0.00  0.00    +0.473 P 
ATOM     19  O   UNL     1      36.676 -19.490 -20.241  0.00  0.00    -0.227 OA
BRANCH  18  20
ATOM     20  O   UNL     1      36.763 -18.327 -22.604  0.00  0.00    -0.303 OA
ATOM     21  H   UNL     1      36.999 -19.121 -23.109  0.00  0.00    +0.222 HD
ENDBRANCH  18  20
BRANCH  18  22
ATOM     22  O   UNL     1      34.655 -19.562 -21.923  0.00  0.00    -0.303 OA
ATOM     23  H   UNL     1      34.637 -19.439 -22.885  0.00  0.00    +0.222 HD
ENDBRANCH  18  22
ENDBRANCH  17  18
ENDBRANCH  16  17
ENDBRANCH   3  16
TORSDOF 6
ENDMDL
MODEL 7
REMARK VINA RESULT:      -7.7      3.723      5.733
REMARK  Name = 461278
REMARK  6 active torsions:
REMARK  status: ('A' for Active; 'I' for Inactive)
REMARK    1  A    between atoms: C_2  and  N_8
REMARK    2  A    between atoms: C_3  and  C_16
REMARK    3  A    between atoms: C_16  and  O_17
REMARK    4  A    between atoms: O_17  and  P_18
REMARK    5  A    between atoms: P_18  and  O_20
REMARK    6  A    between atoms: P_18  and  O_22
REMARK                            x       y       z     vdW  Elec       q    Type
REMARK                         _______ _______ _______ _____ _____    ______ ____
ROOT
ATOM      1  O   UNL     1      33.024 -14.748 -23.393  0.00  0.00    -0.329 OA
ATOM      2  C   UNL     1      32.588 -13.886 -24.460  0.00  0.00    +0.223 C 
ATOM      3  C   UNL     1      33.769 -15.843 -23.968  0.00  0.00    +0.169 C 
ATOM      4  C   UNL     1      33.096 -14.490 -25.714  0.00  0.00    +0.022 C 
ATOM      5  C   UNL     1      33.768 -15.605 -25.436  0.00  0.00    +0.005 C 
ENDROOT
BRANCH   2   8
ATOM      6  O   UNL     1      31.996 -12.138 -22.289  0.00  0.00    -0.252 OA
ATOM      7  O   UNL     1      34.835  -8.897 -23.896  0.00  0.00    -0.270 OA
ATOM      8  N   UNL     1      33.157 -12.557 -24.268  0.00  0.00    -0.215 N 
ATOM      9  N   UNL     1      33.415 -10.530 -23.102  0.00  0.00    -0.236 N 
ATOM     10  C   UNL     1      34.056 -12.101 -25.210  0.00  0.00    +0.072 C 
ATOM     11  C   UNL     1      32.792 -11.781 -23.160  0.00  0.00    +0.316 C 
ATOM     12  C   UNL     1      34.650 -10.903 -25.152  0.00  0.00    +0.047 C 
ATOM     13  C   UNL     1      34.325 -10.009 -24.009  0.00  0.00    +0.250 C 
ATOM     14  C   UNL     1      35.624 -10.412 -26.174  0.00  0.00    +0.037 C 
ATOM     15  H   UNL     1      33.181  -9.957 -22.336  0.00  0.00    +0.159 HD
ENDBRANCH   2   8
BRANCH   3  16
ATOM     16  C   UNL     1      35.166 -15.855 -23.370  0.00  0.00    +0.188 C 
BRANCH  16  17
ATOM     17  O   UNL     1      35.412 -17.132 -22.807  0.00  0.00    -0.270 OA
BRANCH  17  18
ATOM     18  P   UNL     1      34.876 -17.432 -21.310  0.00  0.00    +0.473 P 
ATOM     19  O   UNL     1      33.508 -18.046 -21.236  0.00  0.00    -0.227 OA
BRANCH  18  20
ATOM     20  O   UNL     1      35.040 -16.013 -20.551  0.00  0.00    -0.303 OA
ATOM     21  H   UNL     1      34.286 -15.875 -19.957  0.00  0.00    +0.222 HD
ENDBRANCH  18  20
BRANCH  18  22
ATOM     22  O   UNL     1      36.062 -18.332 -20.677  0.00  0.00    -0.303 OA
ATOM     23  H   UNL     1      35.748 -19.242 -20.555  0.00  0.00    +0.222 HD
ENDBRANCH  18  22
ENDBRANCH  17  18
ENDBRANCH  16  17
ENDBRANCH   3  16
TORSDOF 6
ENDMDL
MODEL 8
REMARK VINA RESULT:      -7.7      2.997      6.765
REMARK  Name = 461278
REMARK  6 active torsions:
REMARK  status: ('A' for Active; 'I' for Inactive)
REMARK    1  A    between atoms: C_2  and  N_8
REMARK    2  A    between atoms: C_3  and  C_16
REMARK    3  A    between atoms: C_16  and  O_17
REMARK    4  A    between atoms: O_17  and  P_18
REMARK    5  A    between atoms: P_18  and  O_20
REMARK    6  A    between atoms: P_18  and  O_22
REMARK                            x       y       z     vdW  Elec       q    Type
REMARK                         _______ _______ _______ _____ _____    ______ ____
ROOT
ATOM      1  O   UNL     1      35.782 -16.536 -22.511  0.00  0.00    -0.329 OA
ATOM      2  C   UNL     1      36.015 -17.870 -22.995  0.00  0.00    +0.223 C 
ATOM      3  C   UNL     1      34.738 -15.936 -23.308  0.00  0.00    +0.169 C 
ATOM      4  C   UNL     1      35.072 -18.072 -24.121  0.00  0.00    +0.022 C 
ATOM      5  C   UNL     1      34.345 -16.972 -24.301  0.00  0.00    +0.005 C 
ENDROOT
BRANCH   2   8
ATOM      6  O   UNL     1      37.981 -19.058 -21.308  0.00  0.00    -0.252 OA
ATOM      7  O   UNL     1      34.805 -21.460 -19.007  0.00  0.00    -0.270 OA
ATOM      8  N   UNL     1      35.744 -18.825 -21.927  0.00  0.00    -0.215 N 
ATOM      9  N   UNL     1      36.387 -20.250 -20.169  0.00  0.00    -0.236 N 
ATOM     10  C   UNL     1      34.431 -19.189 -21.709  0.00  0.00    +0.072 C 
ATOM     11  C   UNL     1      36.792 -19.347 -21.157  0.00  0.00    +0.316 C 
ATOM     12  C   UNL     1      34.046 -20.054 -20.762  0.00  0.00    +0.047 C 
ATOM     13  C   UNL     1      35.090 -20.660 -19.894  0.00  0.00    +0.250 C 
ATOM     14  C   UNL     1      32.624 -20.446 -20.529  0.00  0.00    +0.037 C 
ATOM     15  H   UNL     1      37.098 -20.637 -19.609  0.00  0.00    +0.159 HD
ENDBRANCH   2   8
BRANCH   3  16
ATOM     16  C   UNL     1      33.595 -15.526 -22.395  0.00  0.00    +0.188 C 
BRANCH  16  17
ATOM     17  O   UNL     1      33.634 -14.121 -22.217  0.00  0.00    -0.270 OA
BRANCH  17  18
ATOM     18  P   UNL     1      33.062 -13.177 -23.401  0.00  0.00    +0.473 P 
ATOM     19  O   UNL     1      32.433 -13.910 -24.549  0.00  0.00    -0.227 OA
BRANCH  18  20
ATOM     20  O   UNL     1      34.321 -12.237 -23.786  0.00  0.00    -0.303 OA
ATOM     21  H   UNL     1      34.868 -12.685 -24.451  0.00  0.00    +0.222 HD
ENDBRANCH  18  20
BRANCH  18  22
ATOM     22  O   UNL     1      32.074 -12.168 -22.612  0.00  0.00    -0.303 OA
ATOM     23  H   UNL     1      31.894 -12.519 -21.725  0.00  0.00    +0.222 HD
ENDBRANCH  18  22
ENDBRANCH  17  18
ENDBRANCH  16  17
ENDBRANCH   3  16
TORSDOF 6
ENDMDL
MODEL 9
REMARK VINA RESULT:      -7.5      4.006      6.035
REMARK  Name = 461278
REMARK  6 active torsions:
REMARK  status: ('A' for Active; 'I' for Inactive)
REMARK    1  A    between atoms: C_2  and  N_8
REMARK    2  A    between atoms: C_3  and  C_16
REMARK    3  A    between atoms: C_16  and  O_17
REMARK    4  A    between atoms: O_17  and  P_18
REMARK    5  A    between atoms: P_18  and  O_20
REMARK    6  A    between atoms: P_18  and  O_22
REMARK                            x       y       z     vdW  Elec       q    Type
REMARK                         _______ _______ _______ _____ _____    ______ ____
ROOT
ATOM      1  O   UNL     1      32.022 -13.965 -22.256  0.00  0.00    -0.329 OA
ATOM      2  C   UNL     1      32.246 -12.787 -23.050  0.00  0.00    +0.223 C 
ATOM      3  C   UNL     1      33.198 -14.799 -22.335  0.00  0.00    +0.169 C 
ATOM      4  C   UNL     1      33.608 -12.925 -23.619  0.00  0.00    +0.022 C 
ATOM      5  C   UNL     1      34.151 -14.070 -23.214  0.00  0.00    +0.005 C 
ENDROOT
BRANCH   2   8
ATOM      6  O   UNL     1      32.806 -10.116 -23.872  0.00  0.00    -0.252 OA
ATOM      7  O   UNL     1      31.905  -8.452 -19.680  0.00  0.00    -0.270 OA
ATOM      8  N   UNL     1      32.170 -11.608 -22.195  0.00  0.00    -0.215 N 
ATOM      9  N   UNL     1      32.354  -9.300 -21.776  0.00  0.00    -0.236 N 
ATOM     10  C   UNL     1      31.798 -11.792 -20.879  0.00  0.00    +0.072 C 
ATOM     11  C   UNL     1      32.469 -10.338 -22.706  0.00  0.00    +0.316 C 
ATOM     12  C   UNL     1      31.689 -10.796 -19.991  0.00  0.00    +0.047 C 
ATOM     13  C   UNL     1      31.985  -9.411 -20.444  0.00  0.00    +0.250 C 
ATOM     14  C   UNL     1      31.285 -10.998 -18.567  0.00  0.00    +0.037 C 
ATOM     15  H   UNL     1      32.557  -8.393 -22.102  0.00  0.00    +0.159 HD
ENDBRANCH   2   8
BRANCH   3  16
ATOM     16  C   UNL     1      33.738 -15.022 -20.932  0.00  0.00    +0.188 C 
BRANCH  16  17
ATOM     17  O   UNL     1      34.900 -15.830 -21.012  0.00  0.00    -0.270 OA
BRANCH  17  18
ATOM     18  P   UNL     1      34.726 -17.401 -21.359  0.00  0.00    +0.473 P 
ATOM     19  O   UNL     1      33.358 -17.962 -21.096  0.00  0.00    -0.227 OA
BRANCH  18  20
ATOM     20  O   UNL     1      35.932 -18.110 -20.549  0.00  0.00    -0.303 OA
ATOM     21  H   UNL     1      35.746 -19.058 -20.455  0.00  0.00    +0.222 HD
ENDBRANCH  18  20
BRANCH  18  22
ATOM     22  O   UNL     1      35.212 -17.486 -22.900  0.00  0.00    -0.303 OA
ATOM     23  H   UNL     1      35.009 -18.365 -23.255  0.00  0.00    +0.222 HD
ENDBRANCH  18  22
ENDBRANCH  17  18
ENDBRANCH  16  17
ENDBRANCH   3  16
TORSDOF 6
ENDMDL
