MODEL 1
REMARK VINA RESULT:      -8.6      0.000      0.000
REMARK  Name = 5287571
REMARK  5 active torsions:
REMARK  status: ('A' for Active; 'I' for Inactive)
REMARK    1  A    between atoms: N_1  and  C_16
REMARK    2  A    between atoms: C_16  and  C_17
REMARK    3  A    between atoms: C_17  and  O_19
REMARK    4  A    between atoms: O_19  and  C_20
REMARK    5  A    between atoms: C_20  and  P_21
REMARK                            x       y       z     vdW  Elec       q    Type
REMARK                         _______ _______ _______ _____ _____    ______ ____
ROOT
ATOM      1  N   UNL     1      34.609 -24.095 -14.958  0.00  0.00    -0.258 N 
ATOM      2  N   UNL     1      32.629 -23.907 -13.949  0.00  0.00    -0.240 NA
ATOM      3  N   UNL     1      34.027 -23.283 -17.172  0.00  0.00    -0.311 NA
ATOM      4  N   UNL     1      31.671 -22.659 -17.296  0.00  0.00    -0.312 NA
ATOM      5  N   UNL     1      33.090 -22.452 -19.148  0.00  0.00    -0.283 N 
ATOM      6  C   UNL     1      33.751 -23.598 -15.897  0.00  0.00    +0.220 C 
ATOM      7  C   UNL     1      32.530 -23.489 -15.252  0.00  0.00    +0.167 C 
ATOM      8  C   UNL     1      33.888 -24.265 -13.804  0.00  0.00    +0.222 C 
ATOM      9  C   UNL     1      31.465 -22.997 -16.001  0.00  0.00    +0.212 C 
ATOM     10  C   UNL     1      32.921 -22.820 -17.794  0.00  0.00    +0.199 C 
ATOM     11  H   UNL     1      33.972 -22.543 -19.577  0.00  0.00    +0.156 HD
ATOM     12  H   UNL     1      32.326 -22.105 -19.663  0.00  0.00    +0.156 HD
ATOM     13  N   UNL     1      30.190 -22.853 -15.426  0.00  0.00    -0.331 N 
ATOM     14  H   UNL     1      29.444 -22.504 -15.966  0.00  0.00    +0.145 HD
ATOM     15  H   UNL     1      30.043 -23.099 -14.485  0.00  0.00    +0.145 HD
ENDROOT
BRANCH   1  16
ATOM     16  C   UNL     1      36.009 -24.391 -15.136  0.00  0.00    +0.124 C 
BRANCH  16  17
ATOM     17  C   UNL     1      36.916 -23.222 -14.738  0.00  0.00    +0.136 C 
ATOM     18  C   UNL     1      37.141 -22.285 -15.916  0.00  0.00    +0.034 C 
BRANCH  17  19
ATOM     19  O   UNL     1      38.192 -23.713 -14.335  0.00  0.00    -0.343 OA
BRANCH  19  20
ATOM     20  C   UNL     1      38.910 -24.239 -15.438  0.00  0.00    +0.262 C 
BRANCH  20  21
ATOM     21  P   UNL     1      40.035 -25.507 -14.687  0.00  0.00    +0.425 P 
ATOM     22  O   UNL     1      40.959 -24.650 -13.831  0.00  0.00    -0.136 OA
ATOM     23  O   UNL     1      40.684 -26.148 -15.908  0.00  0.00    -0.251 OA
ATOM     24  O   UNL     1      39.069 -26.398 -13.913  0.00  0.00    -0.136 OA
ENDBRANCH  20  21
ENDBRANCH  19  20
ENDBRANCH  17  19
ENDBRANCH  16  17
ENDBRANCH   1  16
TORSDOF 5
ENDMDL
MODEL 2
REMARK VINA RESULT:      -8.6      1.812      2.468
REMARK  Name = 5287571
REMARK  5 active torsions:
REMARK  status: ('A' for Active; 'I' for Inactive)
REMARK    1  A    between atoms: N_1  and  C_16
REMARK    2  A    between atoms: C_16  and  C_17
REMARK    3  A    between atoms: C_17  and  O_19
REMARK    4  A    between atoms: O_19  and  C_20
REMARK    5  A    between atoms: C_20  and  P_21
REMARK                            x       y       z     vdW  Elec       q    Type
REMARK                         _______ _______ _______ _____ _____    ______ ____
ROOT
ATOM      1  N   UNL     1      33.915 -23.528 -15.116  0.00  0.00    -0.258 N 
ATOM      2  N   UNL     1      33.126 -24.427 -13.234  0.00  0.00    -0.240 NA
ATOM      3  N   UNL     1      31.824 -23.049 -16.257  0.00  0.00    -0.311 NA
ATOM      4  N   UNL     1      29.904 -23.725 -14.910  0.00  0.00    -0.312 NA
ATOM      5  N   UNL     1      29.634 -22.745 -17.020  0.00  0.00    -0.283 N 
ATOM      6  C   UNL     1      32.554 -23.509 -15.229  0.00  0.00    +0.220 C 
ATOM      7  C   UNL     1      32.084 -24.070 -14.053  0.00  0.00    +0.167 C 
ATOM      8  C   UNL     1      34.210 -24.089 -13.902  0.00  0.00    +0.222 C 
ATOM      9  C   UNL     1      30.703 -24.170 -13.911  0.00  0.00    +0.212 C 
ATOM     10  C   UNL     1      30.506 -23.199 -16.005  0.00  0.00    +0.199 C 
ATOM     11  H   UNL     1      30.001 -22.352 -17.845  0.00  0.00    +0.156 HD
ATOM     12  H   UNL     1      28.659 -22.822 -16.903  0.00  0.00    +0.156 HD
ATOM     13  N   UNL     1      30.139 -24.726 -12.749  0.00  0.00    -0.331 N 
ATOM     14  H   UNL     1      29.160 -24.791 -12.660  0.00  0.00    +0.145 HD
ATOM     15  H   UNL     1      30.722 -25.049 -12.025  0.00  0.00    +0.145 HD
ENDROOT
BRANCH   1  16
ATOM     16  C   UNL     1      34.869 -23.052 -16.088  0.00  0.00    +0.124 C 
BRANCH  16  17
ATOM     17  C   UNL     1      36.296 -22.989 -15.533  0.00  0.00    +0.136 C 
ATOM     18  C   UNL     1      37.108 -21.918 -16.246  0.00  0.00    +0.034 C 
BRANCH  17  19
ATOM     19  O   UNL     1      36.955 -24.235 -15.747  0.00  0.00    -0.343 OA
BRANCH  19  20
ATOM     20  C   UNL     1      37.674 -24.638 -14.593  0.00  0.00    +0.262 C 
BRANCH  20  21
ATOM     21  P   UNL     1      37.328 -26.454 -14.451  0.00  0.00    +0.425 P 
ATOM     22  O   UNL     1      38.685 -27.066 -14.777  0.00  0.00    -0.136 OA
ATOM     23  O   UNL     1      36.243 -26.673 -15.499  0.00  0.00    -0.251 OA
ATOM     24  O   UNL     1      36.879 -26.598 -13.001  0.00  0.00    -0.136 OA
ENDBRANCH  20  21
ENDBRANCH  19  20
ENDBRANCH  17  19
ENDBRANCH  16  17
ENDBRANCH   1  16
TORSDOF 5
ENDMDL
MODEL 3
REMARK VINA RESULT:      -8.6      2.309      3.773
REMARK  Name = 5287571
REMARK  5 active torsions:
REMARK  status: ('A' for Active; 'I' for Inactive)
REMARK    1  A    between atoms: N_1  and  C_16
REMARK    2  A    between atoms: C_16  and  C_17
REMARK    3  A    between atoms: C_17  and  O_19
REMARK    4  A    between atoms: O_19  and  C_20
REMARK    5  A    between atoms: C_20  and  P_21
REMARK                            x       y       z     vdW  Elec       q    Type
REMARK                         _______ _______ _______ _____ _____    ______ ____
ROOT
ATOM      1  N   UNL     1      33.720 -23.616 -16.125  0.00  0.00    -0.258 N 
ATOM      2  N   UNL     1      32.287 -22.763 -17.605  0.00  0.00    -0.240 NA
ATOM      3  N   UNL     1      32.171 -24.271 -14.373  0.00  0.00    -0.311 NA
ATOM      4  N   UNL     1      29.868 -23.735 -14.980  0.00  0.00    -0.312 NA
ATOM      5  N   UNL     1      30.388 -24.755 -12.937  0.00  0.00    -0.283 N 
ATOM      6  C   UNL     1      32.480 -23.744 -15.567  0.00  0.00    +0.220 C 
ATOM      7  C   UNL     1      31.606 -23.210 -16.500  0.00  0.00    +0.167 C 
ATOM      8  C   UNL     1      33.552 -23.021 -17.348  0.00  0.00    +0.222 C 
ATOM      9  C   UNL     1      30.254 -23.218 -16.171  0.00  0.00    +0.212 C 
ATOM     10  C   UNL     1      30.837 -24.223 -14.167  0.00  0.00    +0.199 C 
ATOM     11  H   UNL     1      31.037 -25.127 -12.295  0.00  0.00    +0.156 HD
ATOM     12  H   UNL     1      29.427 -24.754 -12.721  0.00  0.00    +0.156 HD
ATOM     13  N   UNL     1      29.296 -22.697 -17.059  0.00  0.00    -0.331 N 
ATOM     14  H   UNL     1      28.342 -22.708 -16.815  0.00  0.00    +0.145 HD
ATOM     15  H   UNL     1      29.579 -22.322 -17.924  0.00  0.00    +0.145 HD
ENDROOT
BRANCH   1  16
ATOM     16  C   UNL     1      34.976 -24.025 -15.544  0.00  0.00    +0.124 C 
BRANCH  16  17
ATOM     17  C   UNL     1      35.780 -22.847 -14.985  0.00  0.00    +0.136 C 
ATOM     18  C   UNL     1      36.914 -22.470 -15.927  0.00  0.00    +0.034 C 
BRANCH  17  19
ATOM     19  O   UNL     1      36.365 -23.208 -13.736  0.00  0.00    -0.343 OA
BRANCH  19  20
ATOM     20  C   UNL     1      35.426 -23.867 -12.903  0.00  0.00    +0.262 C 
BRANCH  20  21
ATOM     21  P   UNL     1      36.411 -24.363 -11.412  0.00  0.00    +0.425 P 
ATOM     22  O   UNL     1      37.331 -25.437 -11.977  0.00  0.00    -0.136 OA
ATOM     23  O   UNL     1      35.339 -24.861 -10.450  0.00  0.00    -0.251 OA
ATOM     24  O   UNL     1      37.096 -23.061 -11.014  0.00  0.00    -0.136 OA
ENDBRANCH  20  21
ENDBRANCH  19  20
ENDBRANCH  17  19
ENDBRANCH  16  17
ENDBRANCH   1  16
TORSDOF 5
ENDMDL
MODEL 4
REMARK VINA RESULT:      -8.5      5.522      7.784
REMARK  Name = 5287571
REMARK  5 active torsions:
REMARK  status: ('A' for Active; 'I' for Inactive)
REMARK    1  A    between atoms: N_1  and  C_16
REMARK    2  A    between atoms: C_16  and  C_17
REMARK    3  A    between atoms: C_17  and  O_19
REMARK    4  A    between atoms: O_19  and  C_20
REMARK    5  A    between atoms: C_20  and  P_21
REMARK                            x       y       z     vdW  Elec       q    Type
REMARK                         _______ _______ _______ _____ _____    ______ ____
ROOT
ATOM      1  N   UNL     1      33.121 -23.373 -14.739  0.00  0.00    -0.258 N 
ATOM      2  N   UNL     1      34.665 -24.047 -16.200  0.00  0.00    -0.240 NA
ATOM      3  N   UNL     1      34.242 -23.936 -12.659  0.00  0.00    -0.311 NA
ATOM      4  N   UNL     1      36.433 -24.930 -13.073  0.00  0.00    -0.312 NA
ATOM      5  N   UNL     1      35.627 -24.609 -10.898  0.00  0.00    -0.283 N 
ATOM      6  C   UNL     1      34.157 -23.865 -13.996  0.00  0.00    +0.220 C 
ATOM      7  C   UNL     1      35.103 -24.277 -14.920  0.00  0.00    +0.167 C 
ATOM      8  C   UNL     1      33.473 -23.506 -16.057  0.00  0.00    +0.222 C 
ATOM      9  C   UNL     1      36.278 -24.826 -14.415  0.00  0.00    +0.212 C 
ATOM     10  C   UNL     1      35.420 -24.484 -12.290  0.00  0.00    +0.199 C 
ATOM     11  H   UNL     1      34.933 -24.306 -10.267  0.00  0.00    +0.156 HD
ATOM     12  H   UNL     1      36.465 -24.999 -10.557  0.00  0.00    +0.156 HD
ATOM     13  N   UNL     1      37.292 -25.271 -15.281  0.00  0.00    -0.331 N 
ATOM     14  H   UNL     1      38.120 -25.657 -14.911  0.00  0.00    +0.145 HD
ATOM     15  H   UNL     1      37.177 -25.194 -16.255  0.00  0.00    +0.145 HD
ENDROOT
BRANCH   1  16
ATOM     16  C   UNL     1      31.886 -22.820 -14.240  0.00  0.00    +0.124 C 
BRANCH  16  17
ATOM     17  C   UNL     1      30.738 -23.835 -14.247  0.00  0.00    +0.136 C 
ATOM     18  C   UNL     1      31.182 -25.158 -13.638  0.00  0.00    +0.034 C 
BRANCH  17  19
ATOM     19  O   UNL     1      30.331 -24.099 -15.586  0.00  0.00    -0.343 OA
BRANCH  19  20
ATOM     20  C   UNL     1      28.931 -24.310 -15.663  0.00  0.00    +0.262 C 
BRANCH  20  21
ATOM     21  P   UNL     1      28.306 -22.869 -16.650  0.00  0.00    +0.425 P 
ATOM     22  O   UNL     1      29.599 -22.249 -17.165  0.00  0.00    -0.136 OA
ATOM     23  O   UNL     1      27.557 -22.047 -15.608  0.00  0.00    -0.251 OA
ATOM     24  O   UNL     1      27.437 -23.538 -17.708  0.00  0.00    -0.136 OA
ENDBRANCH  20  21
ENDBRANCH  19  20
ENDBRANCH  17  19
ENDBRANCH  16  17
ENDBRANCH   1  16
TORSDOF 5
ENDMDL
MODEL 5
REMARK VINA RESULT:      -8.4      5.465      7.131
REMARK  Name = 5287571
REMARK  5 active torsions:
REMARK  status: ('A' for Active; 'I' for Inactive)
REMARK    1  A    between atoms: N_1  and  C_16
REMARK    2  A    between atoms: C_16  and  C_17
REMARK    3  A    between atoms: C_17  and  O_19
REMARK    4  A    between atoms: O_19  and  C_20
REMARK    5  A    between atoms: C_20  and  P_21
REMARK                            x       y       z     vdW  Elec       q    Type
REMARK                         _______ _______ _______ _____ _____    ______ ____
ROOT
ATOM      1  N   UNL     1      33.520 -23.958 -14.877  0.00  0.00    -0.258 N 
ATOM      2  N   UNL     1      35.636 -23.308 -14.600  0.00  0.00    -0.240 NA
ATOM      3  N   UNL     1      33.181 -23.300 -17.191  0.00  0.00    -0.311 NA
ATOM      4  N   UNL     1      35.193 -22.281 -18.126  0.00  0.00    -0.312 NA
ATOM      5  N   UNL     1      33.245 -22.539 -19.401  0.00  0.00    -0.283 N 
ATOM      6  C   UNL     1      33.911 -23.421 -16.071  0.00  0.00    +0.220 C 
ATOM      7  C   UNL     1      35.224 -23.025 -15.878  0.00  0.00    +0.167 C 
ATOM      8  C   UNL     1      34.590 -23.867 -14.026  0.00  0.00    +0.222 C 
ATOM      9  C   UNL     1      35.868 -22.436 -16.962  0.00  0.00    +0.212 C 
ATOM     10  C   UNL     1      33.910 -22.717 -18.167  0.00  0.00    +0.199 C 
ATOM     11  H   UNL     1      32.311 -22.831 -19.505  0.00  0.00    +0.156 HD
ATOM     12  H   UNL     1      33.717 -22.121 -20.159  0.00  0.00    +0.156 HD
ATOM     13  N   UNL     1      37.202 -22.004 -16.856  0.00  0.00    -0.331 N 
ATOM     14  H   UNL     1      37.648 -21.588 -17.630  0.00  0.00    +0.145 HD
ATOM     15  H   UNL     1      37.691 -22.117 -16.009  0.00  0.00    +0.145 HD
ENDROOT
BRANCH   1  16
ATOM     16  C   UNL     1      32.228 -24.516 -14.561  0.00  0.00    +0.124 C 
BRANCH  16  17
ATOM     17  C   UNL     1      31.228 -23.459 -14.083  0.00  0.00    +0.136 C 
ATOM     18  C   UNL     1      30.355 -24.007 -12.963  0.00  0.00    +0.034 C 
BRANCH  17  19
ATOM     19  O   UNL     1      30.364 -23.088 -15.154  0.00  0.00    -0.343 OA
BRANCH  19  20
ATOM     20  C   UNL     1      29.286 -24.000 -15.281  0.00  0.00    +0.262 C 
BRANCH  20  21
ATOM     21  P   UNL     1      28.180 -23.225 -16.551  0.00  0.00    +0.425 P 
ATOM     22  O   UNL     1      27.037 -22.689 -15.697  0.00  0.00    -0.136 OA
ATOM     23  O   UNL     1      27.826 -24.400 -17.453  0.00  0.00    -0.251 OA
ATOM     24  O   UNL     1      29.079 -22.164 -17.176  0.00  0.00    -0.136 OA
ENDBRANCH  20  21
ENDBRANCH  19  20
ENDBRANCH  17  19
ENDBRANCH  16  17
ENDBRANCH   1  16
TORSDOF 5
ENDMDL
MODEL 6
REMARK VINA RESULT:      -8.3      1.805      2.146
REMARK  Name = 5287571
REMARK  5 active torsions:
REMARK  status: ('A' for Active; 'I' for Inactive)
REMARK    1  A    between atoms: N_1  and  C_16
REMARK    2  A    between atoms: C_16  and  C_17
REMARK    3  A    between atoms: C_17  and  O_19
REMARK    4  A    between atoms: O_19  and  C_20
REMARK    5  A    between atoms: C_20  and  P_21
REMARK                            x       y       z     vdW  Elec       q    Type
REMARK                         _______ _______ _______ _____ _____    ______ ____
ROOT
ATOM      1  N   UNL     1      34.605 -23.964 -15.210  0.00  0.00    -0.258 N 
ATOM      2  N   UNL     1      32.612 -23.979 -14.209  0.00  0.00    -0.240 NA
ATOM      3  N   UNL     1      33.975 -23.072 -17.380  0.00  0.00    -0.311 NA
ATOM      4  N   UNL     1      31.579 -22.615 -17.489  0.00  0.00    -0.312 NA
ATOM      5  N   UNL     1      32.988 -22.199 -19.313  0.00  0.00    -0.283 N 
ATOM      6  C   UNL     1      33.717 -23.478 -16.127  0.00  0.00    +0.220 C 
ATOM      7  C   UNL     1      32.488 -23.495 -15.488  0.00  0.00    +0.167 C 
ATOM      8  C   UNL     1      33.893 -24.251 -14.074  0.00  0.00    +0.222 C 
ATOM      9  C   UNL     1      31.393 -23.041 -16.216  0.00  0.00    +0.212 C 
ATOM     10  C   UNL     1      32.840 -22.656 -17.984  0.00  0.00    +0.199 C 
ATOM     11  H   UNL     1      33.876 -22.201 -19.739  0.00  0.00    +0.156 HD
ATOM     12  H   UNL     1      32.202 -21.880 -19.814  0.00  0.00    +0.156 HD
ATOM     13  N   UNL     1      30.108 -23.023 -15.646  0.00  0.00    -0.331 N 
ATOM     14  H   UNL     1      29.341 -22.699 -16.172  0.00  0.00    +0.145 HD
ATOM     15  H   UNL     1      29.976 -23.333 -14.721  0.00  0.00    +0.145 HD
ENDROOT
BRANCH   1  16
ATOM     16  C   UNL     1      36.024 -24.145 -15.393  0.00  0.00    +0.124 C 
BRANCH  16  17
ATOM     17  C   UNL     1      36.810 -22.837 -15.259  0.00  0.00    +0.136 C 
ATOM     18  C   UNL     1      37.336 -22.380 -16.612  0.00  0.00    +0.034 C 
BRANCH  17  19
ATOM     19  O   UNL     1      37.936 -23.033 -14.408  0.00  0.00    -0.343 OA
BRANCH  19  20
ATOM     20  C   UNL     1      37.841 -24.263 -13.708  0.00  0.00    +0.262 C 
BRANCH  20  21
ATOM     21  P   UNL     1      37.652 -23.763 -11.932  0.00  0.00    +0.425 P 
ATOM     22  O   UNL     1      36.443 -22.837 -11.987  0.00  0.00    -0.136 OA
ATOM     23  O   UNL     1      38.982 -23.083 -11.630  0.00  0.00    -0.251 OA
ATOM     24  O   UNL     1      37.421 -25.096 -11.231  0.00  0.00    -0.136 OA
ENDBRANCH  20  21
ENDBRANCH  19  20
ENDBRANCH  17  19
ENDBRANCH  16  17
ENDBRANCH   1  16
TORSDOF 5
ENDMDL
MODEL 7
REMARK VINA RESULT:      -8.3      7.182      8.948
REMARK  Name = 5287571
REMARK  5 active torsions:
REMARK  status: ('A' for Active; 'I' for Inactive)
REMARK    1  A    between atoms: N_1  and  C_16
REMARK    2  A    between atoms: C_16  and  C_17
REMARK    3  A    between atoms: C_17  and  O_19
REMARK    4  A    between atoms: O_19  and  C_20
REMARK    5  A    between atoms: C_20  and  P_21
REMARK                            x       y       z     vdW  Elec       q    Type
REMARK                         _______ _______ _______ _____ _____    ______ ____
ROOT
ATOM      1  N   UNL     1      34.617 -19.909 -20.751  0.00  0.00    -0.258 N 
ATOM      2  N   UNL     1      32.700 -20.920 -20.227  0.00  0.00    -0.240 NA
ATOM      3  N   UNL     1      36.107 -20.994 -19.169  0.00  0.00    -0.311 NA
ATOM      4  N   UNL     1      34.909 -22.615 -17.792  0.00  0.00    -0.312 NA
ATOM      5  N   UNL     1      37.207 -22.246 -17.527  0.00  0.00    -0.283 N 
ATOM      6  C   UNL     1      34.912 -20.780 -19.741  0.00  0.00    +0.220 C 
ATOM      7  C   UNL     1      33.712 -21.397 -19.431  0.00  0.00    +0.167 C 
ATOM      8  C   UNL     1      33.276 -20.029 -21.006  0.00  0.00    +0.222 C 
ATOM      9  C   UNL     1      33.737 -22.347 -18.415  0.00  0.00    +0.212 C 
ATOM     10  C   UNL     1      36.006 -21.932 -18.202  0.00  0.00    +0.199 C 
ATOM     11  H   UNL     1      38.044 -21.788 -17.772  0.00  0.00    +0.156 HD
ATOM     12  H   UNL     1      37.207 -22.923 -16.811  0.00  0.00    +0.156 HD
ATOM     13  N   UNL     1      32.564 -23.023 -18.035  0.00  0.00    -0.331 N 
ATOM     14  H   UNL     1      32.594 -23.694 -17.315  0.00  0.00    +0.145 HD
ATOM     15  H   UNL     1      31.713 -22.827 -18.489  0.00  0.00    +0.145 HD
ENDROOT
BRANCH   1  16
ATOM     16  C   UNL     1      35.535 -19.024 -21.425  0.00  0.00    +0.124 C 
BRANCH  16  17
ATOM     17  C   UNL     1      34.844 -18.132 -22.461  0.00  0.00    +0.136 C 
ATOM     18  C   UNL     1      35.235 -18.541 -23.874  0.00  0.00    +0.034 C 
BRANCH  17  19
ATOM     19  O   UNL     1      35.249 -16.777 -22.283  0.00  0.00    -0.343 OA
BRANCH  19  20
ATOM     20  C   UNL     1      34.224 -15.881 -22.678  0.00  0.00    +0.262 C 
BRANCH  20  21
ATOM     21  P   UNL     1      33.573 -15.201 -21.080  0.00  0.00    +0.425 P 
ATOM     22  O   UNL     1      32.402 -16.132 -20.789  0.00  0.00    -0.136 OA
ATOM     23  O   UNL     1      33.194 -13.772 -21.450  0.00  0.00    -0.251 OA
ATOM     24  O   UNL     1      34.767 -15.343 -20.143  0.00  0.00    -0.136 OA
ENDBRANCH  20  21
ENDBRANCH  19  20
ENDBRANCH  17  19
ENDBRANCH  16  17
ENDBRANCH   1  16
TORSDOF 5
ENDMDL
MODEL 8
REMARK VINA RESULT:      -8.3      2.396      3.872
REMARK  Name = 5287571
REMARK  5 active torsions:
REMARK  status: ('A' for Active; 'I' for Inactive)
REMARK    1  A    between atoms: N_1  and  C_16
REMARK    2  A    between atoms: C_16  and  C_17
REMARK    3  A    between atoms: C_17  and  O_19
REMARK    4  A    between atoms: O_19  and  C_20
REMARK    5  A    between atoms: C_20  and  P_21
REMARK                            x       y       z     vdW  Elec       q    Type
REMARK                         _______ _______ _______ _____ _____    ______ ____
ROOT
ATOM      1  N   UNL     1      35.911 -22.695 -16.015  0.00  0.00    -0.258 N 
ATOM      2  N   UNL     1      35.831 -22.123 -18.169  0.00  0.00    -0.240 NA
ATOM      3  N   UNL     1      33.582 -23.284 -15.652  0.00  0.00    -0.311 NA
ATOM      4  N   UNL     1      32.270 -23.003 -17.691  0.00  0.00    -0.312 NA
ATOM      5  N   UNL     1      31.292 -23.755 -15.700  0.00  0.00    -0.283 N 
ATOM      6  C   UNL     1      34.613 -22.863 -16.403  0.00  0.00    +0.220 C 
ATOM      7  C   UNL     1      34.583 -22.504 -17.740  0.00  0.00    +0.167 C 
ATOM      8  C   UNL     1      36.604 -22.249 -17.110  0.00  0.00    +0.222 C 
ATOM      9  C   UNL     1      33.354 -22.586 -18.387  0.00  0.00    +0.212 C 
ATOM     10  C   UNL     1      32.449 -23.322 -16.386  0.00  0.00    +0.199 C 
ATOM     11  H   UNL     1      31.347 -24.003 -14.748  0.00  0.00    +0.156 HD
ATOM     12  H   UNL     1      30.430 -23.809 -16.173  0.00  0.00    +0.156 HD
ATOM     13  N   UNL     1      33.233 -22.241 -19.745  0.00  0.00    -0.331 N 
ATOM     14  H   UNL     1      32.358 -22.304 -20.192  0.00  0.00    +0.145 HD
ATOM     15  H   UNL     1      34.022 -21.938 -20.248  0.00  0.00    +0.145 HD
ENDROOT
BRANCH   1  16
ATOM     16  C   UNL     1      36.460 -22.937 -14.703  0.00  0.00    +0.124 C 
BRANCH  16  17
ATOM     17  C   UNL     1      37.319 -24.205 -14.646  0.00  0.00    +0.136 C 
ATOM     18  C   UNL     1      36.515 -25.423 -15.077  0.00  0.00    +0.034 C 
BRANCH  17  19
ATOM     19  O   UNL     1      37.755 -24.435 -13.309  0.00  0.00    -0.343 OA
BRANCH  19  20
ATOM     20  C   UNL     1      37.201 -23.481 -12.418  0.00  0.00    +0.262 C 
BRANCH  20  21
ATOM     21  P   UNL     1      36.064 -24.471 -11.339  0.00  0.00    +0.425 P 
ATOM     22  O   UNL     1      36.534 -25.897 -11.602  0.00  0.00    -0.136 OA
ATOM     23  O   UNL     1      34.687 -24.125 -11.892  0.00  0.00    -0.251 OA
ATOM     24  O   UNL     1      36.368 -23.931  -9.946  0.00  0.00    -0.136 OA
ENDBRANCH  20  21
ENDBRANCH  19  20
ENDBRANCH  17  19
ENDBRANCH  16  17
ENDBRANCH   1  16
TORSDOF 5
ENDMDL
MODEL 9
REMARK VINA RESULT:      -8.2      1.530      2.925
REMARK  Name = 5287571
REMARK  5 active torsions:
REMARK  status: ('A' for Active; 'I' for Inactive)
REMARK    1  A    between atoms: N_1  and  C_16
REMARK    2  A    between atoms: C_16  and  C_17
REMARK    3  A    between atoms: C_17  and  O_19
REMARK    4  A    between atoms: O_19  and  C_20
REMARK    5  A    between atoms: C_20  and  P_21
REMARK                            x       y       z     vdW  Elec       q    Type
REMARK                         _______ _______ _______ _____ _____    ______ ____
ROOT
ATOM      1  N   UNL     1      35.630 -23.021 -14.968  0.00  0.00    -0.258 N 
ATOM      2  N   UNL     1      35.856 -22.666 -17.158  0.00  0.00    -0.240 NA
ATOM      3  N   UNL     1      33.235 -23.412 -14.854  0.00  0.00    -0.311 NA
ATOM      4  N   UNL     1      32.205 -23.252 -17.061  0.00  0.00    -0.312 NA
ATOM      5  N   UNL     1      30.937 -23.731 -15.152  0.00  0.00    -0.283 N 
ATOM      6  C   UNL     1      34.378 -23.140 -15.502  0.00  0.00    +0.220 C 
ATOM      7  C   UNL     1      34.540 -22.916 -16.860  0.00  0.00    +0.167 C 
ATOM      8  C   UNL     1      36.483 -22.735 -16.002  0.00  0.00    +0.222 C 
ATOM      9  C   UNL     1      33.395 -22.981 -17.649  0.00  0.00    +0.212 C 
ATOM     10  C   UNL     1      32.199 -23.448 -15.720  0.00  0.00    +0.199 C 
ATOM     11  H   UNL     1      30.856 -23.884 -14.182  0.00  0.00    +0.156 HD
ATOM     12  H   UNL     1      30.137 -23.775 -15.725  0.00  0.00    +0.156 HD
ATOM     13  N   UNL     1      33.467 -22.768 -19.037  0.00  0.00    -0.331 N 
ATOM     14  H   UNL     1      32.650 -22.817 -19.584  0.00  0.00    +0.145 HD
ATOM     15  H   UNL     1      34.333 -22.572 -19.460  0.00  0.00    +0.145 HD
ENDROOT
BRANCH   1  16
ATOM     16  C   UNL     1      35.994 -23.165 -13.580  0.00  0.00    +0.124 C 
BRANCH  16  17
ATOM     17  C   UNL     1      36.825 -24.425 -13.314  0.00  0.00    +0.136 C 
ATOM     18  C   UNL     1      36.427 -25.066 -11.992  0.00  0.00    +0.034 C 
BRANCH  17  19
ATOM     19  O   UNL     1      38.206 -24.086 -13.225  0.00  0.00    -0.343 OA
BRANCH  19  20
ATOM     20  C   UNL     1      38.991 -25.220 -12.894  0.00  0.00    +0.262 C 
BRANCH  20  21
ATOM     21  P   UNL     1      39.711 -25.762 -14.514  0.00  0.00    +0.425 P 
ATOM     22  O   UNL     1      38.697 -26.798 -14.986  0.00  0.00    -0.136 OA
ATOM     23  O   UNL     1      41.071 -26.318 -14.110  0.00  0.00    -0.251 OA
ATOM     24  O   UNL     1      39.742 -24.468 -15.319  0.00  0.00    -0.136 OA
ENDBRANCH  20  21
ENDBRANCH  19  20
ENDBRANCH  17  19
ENDBRANCH  16  17
ENDBRANCH   1  16
TORSDOF 5
ENDMDL
