MODEL 1
REMARK VINA RESULT:      -8.8      0.000      0.000
REMARK  Name = 93114
REMARK  2 active torsions:
REMARK  status: ('A' for Active; 'I' for Inactive)
REMARK    1  A    between atoms: C_5  and  C_13
REMARK    2  A    between atoms: C_6  and  C_19
REMARK                            x       y       z     vdW  Elec       q    Type
REMARK                         _______ _______ _______ _____ _____    ______ ____
ROOT
ATOM      1  N   UNL     1      33.986 -15.514 -23.825  0.00  0.00    -0.337 NA
ATOM      2  N   UNL     1      34.170 -17.277 -25.458  0.00  0.00    -0.317 NA
ATOM      3  N   UNL     1      34.828 -19.454 -24.809  0.00  0.00    -0.335 N 
ATOM      4  N   UNL     1      33.518 -15.113 -26.090  0.00  0.00    -0.283 N 
ATOM      5  C   UNL     1      34.659 -17.724 -23.143  0.00  0.00    +0.138 C 
ATOM      6  C   UNL     1      34.365 -16.401 -22.881  0.00  0.00    +0.112 C 
ATOM      7  C   UNL     1      34.542 -18.109 -24.463  0.00  0.00    +0.178 C 
ATOM      8  C   UNL     1      33.911 -16.013 -25.074  0.00  0.00    +0.196 C 
ATOM      9  H   UNL     1      34.751 -19.748 -25.745  0.00  0.00    +0.144 HD
ATOM     10  H   UNL     1      35.104 -20.093 -24.113  0.00  0.00    +0.144 HD
ATOM     11  H   UNL     1      33.316 -14.176 -25.865  0.00  0.00    +0.156 HD
ATOM     12  H   UNL     1      33.445 -15.423 -27.021  0.00  0.00    +0.156 HD
ENDROOT
BRANCH   5  13
ATOM     13  C   UNL     1      35.061 -18.638 -22.095  0.00  0.00    -0.008 C 
ATOM     14  C   UNL     1      34.117 -19.473 -21.497  0.00  0.00    -0.003 C 
ATOM     15  C   UNL     1      36.392 -18.684 -21.684  0.00  0.00    -0.003 C 
ATOM     16  C   UNL     1      34.505 -20.354 -20.489  0.00  0.00    -0.000 C 
ATOM     17  C   UNL     1      36.781 -19.567 -20.676  0.00  0.00    -0.000 C 
ATOM     18  C   UNL     1      35.838 -20.401 -20.078  0.00  0.00    -0.000 C 
ENDBRANCH   5  13
BRANCH   6  19
ATOM     19  C   UNL     1      34.450 -15.854 -21.491  0.00  0.00    +0.056 C 
ATOM     20  C   UNL     1      33.074 -15.598 -20.886  0.00  0.00    +0.008 C 
ENDBRANCH   6  19
TORSDOF 2
ENDMDL
MODEL 2
REMARK VINA RESULT:      -8.8      0.032      1.208
REMARK  Name = 93114
REMARK  2 active torsions:
REMARK  status: ('A' for Active; 'I' for Inactive)
REMARK    1  A    between atoms: C_5  and  C_13
REMARK    2  A    between atoms: C_6  and  C_19
REMARK                            x       y       z     vdW  Elec       q    Type
REMARK                         _______ _______ _______ _____ _____    ______ ____
ROOT
ATOM      1  N   UNL     1      34.014 -15.521 -23.803  0.00  0.00    -0.337 NA
ATOM      2  N   UNL     1      34.183 -17.283 -25.438  0.00  0.00    -0.317 NA
ATOM      3  N   UNL     1      34.833 -19.464 -24.793  0.00  0.00    -0.335 N 
ATOM      4  N   UNL     1      33.538 -15.116 -26.065  0.00  0.00    -0.283 N 
ATOM      5  C   UNL     1      34.679 -17.734 -23.125  0.00  0.00    +0.138 C 
ATOM      6  C   UNL     1      34.392 -16.410 -22.861  0.00  0.00    +0.112 C 
ATOM      7  C   UNL     1      34.555 -18.118 -24.445  0.00  0.00    +0.178 C 
ATOM      8  C   UNL     1      33.931 -16.018 -25.052  0.00  0.00    +0.196 C 
ATOM      9  H   UNL     1      34.751 -19.757 -25.730  0.00  0.00    +0.144 HD
ATOM     10  H   UNL     1      35.108 -20.105 -24.099  0.00  0.00    +0.144 HD
ATOM     11  H   UNL     1      33.342 -14.178 -25.839  0.00  0.00    +0.156 HD
ATOM     12  H   UNL     1      33.461 -15.425 -26.996  0.00  0.00    +0.156 HD
ENDROOT
BRANCH   5  13
ATOM     13  C   UNL     1      35.081 -18.650 -22.079  0.00  0.00    -0.008 C 
ATOM     14  C   UNL     1      36.415 -18.709 -21.677  0.00  0.00    -0.003 C 
ATOM     15  C   UNL     1      34.134 -19.474 -21.472  0.00  0.00    -0.003 C 
ATOM     16  C   UNL     1      36.802 -19.590 -20.668  0.00  0.00    -0.000 C 
ATOM     17  C   UNL     1      34.520 -20.356 -20.462  0.00  0.00    -0.000 C 
ATOM     18  C   UNL     1      35.853 -20.413 -20.061  0.00  0.00    -0.000 C 
ENDBRANCH   5  13
BRANCH   6  19
ATOM     19  C   UNL     1      34.486 -15.864 -21.471  0.00  0.00    +0.056 C 
ATOM     20  C   UNL     1      33.114 -15.586 -20.867  0.00  0.00    +0.008 C 
ENDBRANCH   6  19
TORSDOF 2
ENDMDL
MODEL 3
REMARK VINA RESULT:      -8.5      1.492      3.074
REMARK  Name = 93114
REMARK  2 active torsions:
REMARK  status: ('A' for Active; 'I' for Inactive)
REMARK    1  A    between atoms: C_5  and  C_13
REMARK    2  A    between atoms: C_6  and  C_19
REMARK                            x       y       z     vdW  Elec       q    Type
REMARK                         _______ _______ _______ _____ _____    ______ ____
ROOT
ATOM      1  N   UNL     1      34.661 -15.903 -24.065  0.00  0.00    -0.337 NA
ATOM      2  N   UNL     1      34.425 -14.789 -21.941  0.00  0.00    -0.317 NA
ATOM      3  N   UNL     1      34.619 -16.000 -19.919  0.00  0.00    -0.335 N 
ATOM      4  N   UNL     1      34.235 -13.598 -23.954  0.00  0.00    -0.283 N 
ATOM      5  C   UNL     1      34.862 -17.156 -22.017  0.00  0.00    +0.138 C 
ATOM      6  C   UNL     1      34.864 -17.057 -23.394  0.00  0.00    +0.112 C 
ATOM      7  C   UNL     1      34.636 -15.977 -21.336  0.00  0.00    +0.178 C 
ATOM      8  C   UNL     1      34.451 -14.824 -23.287  0.00  0.00    +0.196 C 
ATOM      9  H   UNL     1      34.459 -15.170 -19.415  0.00  0.00    +0.144 HD
ATOM     10  H   UNL     1      34.768 -16.847 -19.439  0.00  0.00    +0.144 HD
ATOM     11  H   UNL     1      34.243 -13.566 -24.938  0.00  0.00    +0.156 HD
ATOM     12  H   UNL     1      34.076 -12.777 -23.435  0.00  0.00    +0.156 HD
ENDROOT
BRANCH   5  13
ATOM     13  C   UNL     1      35.084 -18.417 -21.344  0.00  0.00    -0.008 C 
ATOM     14  C   UNL     1      36.382 -18.824 -21.035  0.00  0.00    -0.003 C 
ATOM     15  C   UNL     1      34.001 -19.225 -21.002  0.00  0.00    -0.003 C 
ATOM     16  C   UNL     1      36.596 -20.038 -20.383  0.00  0.00    -0.000 C 
ATOM     17  C   UNL     1      34.214 -20.440 -20.350  0.00  0.00    -0.000 C 
ATOM     18  C   UNL     1      35.511 -20.846 -20.041  0.00  0.00    -0.000 C 
ENDBRANCH   5  13
BRANCH   6  19
ATOM     19  C   UNL     1      35.098 -18.260 -24.252  0.00  0.00    +0.056 C 
ATOM     20  C   UNL     1      33.926 -18.538 -25.187  0.00  0.00    +0.008 C 
ENDBRANCH   6  19
TORSDOF 2
ENDMDL
MODEL 4
REMARK VINA RESULT:      -7.9     10.249     11.964
REMARK  Name = 93114
REMARK  2 active torsions:
REMARK  status: ('A' for Active; 'I' for Inactive)
REMARK    1  A    between atoms: C_5  and  C_13
REMARK    2  A    between atoms: C_6  and  C_19
REMARK                            x       y       z     vdW  Elec       q    Type
REMARK                         _______ _______ _______ _____ _____    ______ ____
ROOT
ATOM      1  N   UNL     1      38.906 -24.670 -13.530  0.00  0.00    -0.337 NA
ATOM      2  N   UNL     1      38.315 -26.689 -14.704  0.00  0.00    -0.317 NA
ATOM      3  N   UNL     1      36.123 -27.000 -15.536  0.00  0.00    -0.335 N 
ATOM      4  N   UNL     1      40.486 -26.370 -13.875  0.00  0.00    -0.283 N 
ATOM      5  C   UNL     1      36.667 -24.966 -14.368  0.00  0.00    +0.138 C 
ATOM      6  C   UNL     1      37.639 -24.240 -13.710  0.00  0.00    +0.112 C 
ATOM      7  C   UNL     1      37.067 -26.196 -14.849  0.00  0.00    +0.178 C 
ATOM      8  C   UNL     1      39.171 -25.886 -14.045  0.00  0.00    +0.196 C 
ATOM      9  H   UNL     1      36.389 -27.881 -15.887  0.00  0.00    +0.144 HD
ATOM     10  H   UNL     1      35.202 -26.677 -15.663  0.00  0.00    +0.144 HD
ATOM     11  H   UNL     1      41.153 -25.823 -13.400  0.00  0.00    +0.156 HD
ATOM     12  H   UNL     1      40.737 -27.252 -14.231  0.00  0.00    +0.156 HD
ENDROOT
BRANCH   5  13
ATOM     13  C   UNL     1      35.321 -24.461 -14.537  0.00  0.00    -0.008 C 
ATOM     14  C   UNL     1      34.383 -24.622 -13.517  0.00  0.00    -0.003 C 
ATOM     15  C   UNL     1      34.963 -23.812 -15.718  0.00  0.00    -0.003 C 
ATOM     16  C   UNL     1      33.087 -24.133 -13.679  0.00  0.00    -0.000 C 
ATOM     17  C   UNL     1      33.667 -23.323 -15.880  0.00  0.00    -0.000 C 
ATOM     18  C   UNL     1      32.729 -23.484 -14.861  0.00  0.00    -0.000 C 
ENDBRANCH   5  13
BRANCH   6  19
ATOM     19  C   UNL     1      37.338 -22.890 -13.140  0.00  0.00    +0.056 C 
ATOM     20  C   UNL     1      37.171 -22.927 -11.625  0.00  0.00    +0.008 C 
ENDBRANCH   6  19
TORSDOF 2
ENDMDL
MODEL 5
REMARK VINA RESULT:      -7.9      6.230      9.150
REMARK  Name = 93114
REMARK  2 active torsions:
REMARK  status: ('A' for Active; 'I' for Inactive)
REMARK    1  A    between atoms: C_5  and  C_13
REMARK    2  A    between atoms: C_6  and  C_19
REMARK                            x       y       z     vdW  Elec       q    Type
REMARK                         _______ _______ _______ _____ _____    ______ ____
ROOT
ATOM      1  N   UNL     1      33.954 -12.082 -24.013  0.00  0.00    -0.337 NA
ATOM      2  N   UNL     1      32.081 -12.874 -22.719  0.00  0.00    -0.317 NA
ATOM      3  N   UNL     1      30.646 -11.348 -21.621  0.00  0.00    -0.335 N 
ATOM      4  N   UNL     1      33.512 -14.378 -23.813  0.00  0.00    -0.283 N 
ATOM      5  C   UNL     1      32.505 -10.510 -22.902  0.00  0.00    +0.138 C 
ATOM      6  C   UNL     1      33.593 -10.821 -23.693  0.00  0.00    +0.112 C 
ATOM      7  C   UNL     1      31.778 -11.589 -22.440  0.00  0.00    +0.178 C 
ATOM      8  C   UNL     1      33.165 -13.046 -23.499  0.00  0.00    +0.196 C 
ATOM      9  H   UNL     1      30.114 -12.104 -21.282  0.00  0.00    +0.144 HD
ATOM     10  H   UNL     1      30.391 -10.425 -21.393  0.00  0.00    +0.144 HD
ATOM     11  H   UNL     1      34.295 -14.561 -24.380  0.00  0.00    +0.156 HD
ATOM     12  H   UNL     1      32.970 -15.123 -23.465  0.00  0.00    +0.156 HD
ENDROOT
BRANCH   5  13
ATOM     13  C   UNL     1      32.158  -9.141 -22.587  0.00  0.00    -0.008 C 
ATOM     14  C   UNL     1      32.645  -8.549 -21.421  0.00  0.00    -0.003 C 
ATOM     15  C   UNL     1      31.338  -8.414 -23.448  0.00  0.00    -0.003 C 
ATOM     16  C   UNL     1      32.313  -7.229 -21.119  0.00  0.00    -0.000 C 
ATOM     17  C   UNL     1      31.005  -7.093 -23.145  0.00  0.00    -0.000 C 
ATOM     18  C   UNL     1      31.492  -6.501 -21.981  0.00  0.00    -0.000 C 
ENDBRANCH   5  13
BRANCH   6  19
ATOM     19  C   UNL     1      34.464  -9.746 -24.259  0.00  0.00    +0.056 C 
ATOM     20  C   UNL     1      35.285 -10.235 -25.448  0.00  0.00    +0.008 C 
ENDBRANCH   6  19
TORSDOF 2
ENDMDL
MODEL 6
REMARK VINA RESULT:      -7.9      2.864      5.709
REMARK  Name = 93114
REMARK  2 active torsions:
REMARK  status: ('A' for Active; 'I' for Inactive)
REMARK    1  A    between atoms: C_5  and  C_13
REMARK    2  A    between atoms: C_6  and  C_19
REMARK                            x       y       z     vdW  Elec       q    Type
REMARK                         _______ _______ _______ _____ _____    ______ ____
ROOT
ATOM      1  N   UNL     1      34.688 -16.571 -23.619  0.00  0.00    -0.337 NA
ATOM      2  N   UNL     1      33.600 -16.248 -25.745  0.00  0.00    -0.317 NA
ATOM      3  N   UNL     1      32.509 -14.209 -26.241  0.00  0.00    -0.335 N 
ATOM      4  N   UNL     1      34.685 -18.266 -25.242  0.00  0.00    -0.283 N 
ATOM      5  C   UNL     1      33.582 -14.486 -24.103  0.00  0.00    +0.138 C 
ATOM      6  C   UNL     1      34.307 -15.322 -23.278  0.00  0.00    +0.112 C 
ATOM      7  C   UNL     1      33.254 -15.009 -25.338  0.00  0.00    +0.178 C 
ATOM      8  C   UNL     1      34.305 -16.964 -24.850  0.00  0.00    +0.196 C 
ATOM      9  H   UNL     1      32.265 -14.563 -27.127  0.00  0.00    +0.144 HD
ATOM     10  H   UNL     1      32.236 -13.299 -25.983  0.00  0.00    +0.144 HD
ATOM     11  H   UNL     1      35.202 -18.834 -24.626  0.00  0.00    +0.156 HD
ATOM     12  H   UNL     1      34.433 -18.606 -26.131  0.00  0.00    +0.156 HD
ENDROOT
BRANCH   5  13
ATOM     13  C   UNL     1      33.197 -13.154 -23.691  0.00  0.00    -0.008 C 
ATOM     14  C   UNL     1      32.181 -12.979 -22.752  0.00  0.00    -0.003 C 
ATOM     15  C   UNL     1      33.844 -12.043 -24.232  0.00  0.00    -0.003 C 
ATOM     16  C   UNL     1      31.813 -11.695 -22.354  0.00  0.00    -0.000 C 
ATOM     17  C   UNL     1      33.476 -10.758 -23.834  0.00  0.00    -0.000 C 
ATOM     18  C   UNL     1      32.460 -10.584 -22.895  0.00  0.00    -0.000 C 
ENDBRANCH   5  13
BRANCH   6  19
ATOM     19  C   UNL     1      34.728 -14.879 -21.913  0.00  0.00    +0.056 C 
ATOM     20  C   UNL     1      34.650 -16.008 -20.890  0.00  0.00    +0.008 C 
ENDBRANCH   6  19
TORSDOF 2
ENDMDL
MODEL 7
REMARK VINA RESULT:      -7.8      6.168      9.099
REMARK  Name = 93114
REMARK  2 active torsions:
REMARK  status: ('A' for Active; 'I' for Inactive)
REMARK    1  A    between atoms: C_5  and  C_13
REMARK    2  A    between atoms: C_6  and  C_19
REMARK                            x       y       z     vdW  Elec       q    Type
REMARK                         _______ _______ _______ _____ _____    ______ ____
ROOT
ATOM      1  N   UNL     1      32.084 -12.752 -22.331  0.00  0.00    -0.337 NA
ATOM      2  N   UNL     1      33.775 -12.104 -23.921  0.00  0.00    -0.317 NA
ATOM      3  N   UNL     1      34.177  -9.819 -24.384  0.00  0.00    -0.335 N 
ATOM      4  N   UNL     1      33.366 -14.366 -23.452  0.00  0.00    -0.283 N 
ATOM      5  C   UNL     1      32.477 -10.420 -22.789  0.00  0.00    +0.138 C 
ATOM      6  C   UNL     1      31.817 -11.443 -22.138  0.00  0.00    +0.112 C 
ATOM      7  C   UNL     1      33.456 -10.815 -23.677  0.00  0.00    +0.178 C 
ATOM      8  C   UNL     1      33.060 -13.007 -23.224  0.00  0.00    +0.196 C 
ATOM      9  H   UNL     1      34.880 -10.080 -25.023  0.00  0.00    +0.144 HD
ATOM     10  H   UNL     1      33.975  -8.867 -24.237  0.00  0.00    +0.144 HD
ATOM     11  H   UNL     1      32.874 -15.069 -22.969  0.00  0.00    +0.156 HD
ATOM     12  H   UNL     1      34.071 -14.611 -24.094  0.00  0.00    +0.156 HD
ENDROOT
BRANCH   5  13
ATOM     13  C   UNL     1      32.155  -9.030 -22.547  0.00  0.00    -0.008 C 
ATOM     14  C   UNL     1      32.754  -8.349 -21.488  0.00  0.00    -0.003 C 
ATOM     15  C   UNL     1      31.246  -8.371 -23.375  0.00  0.00    -0.003 C 
ATOM     16  C   UNL     1      32.445  -7.009 -21.257  0.00  0.00    -0.000 C 
ATOM     17  C   UNL     1      30.938  -7.030 -23.144  0.00  0.00    -0.000 C 
ATOM     18  C   UNL     1      31.537  -6.350 -22.085  0.00  0.00    -0.000 C 
ENDBRANCH   5  13
BRANCH   6  19
ATOM     19  C   UNL     1      30.734 -11.153 -21.148  0.00  0.00    +0.056 C 
ATOM     20  C   UNL     1      31.244 -11.179 -19.710  0.00  0.00    +0.008 C 
ENDBRANCH   6  19
TORSDOF 2
ENDMDL
MODEL 8
REMARK VINA RESULT:      -7.7      3.263      6.238
REMARK  Name = 93114
REMARK  2 active torsions:
REMARK  status: ('A' for Active; 'I' for Inactive)
REMARK    1  A    between atoms: C_5  and  C_13
REMARK    2  A    between atoms: C_6  and  C_19
REMARK                            x       y       z     vdW  Elec       q    Type
REMARK                         _______ _______ _______ _____ _____    ______ ____
ROOT
ATOM      1  N   UNL     1      33.683 -16.028 -25.682  0.00  0.00    -0.337 NA
ATOM      2  N   UNL     1      34.703 -16.368 -23.526  0.00  0.00    -0.317 NA
ATOM      3  N   UNL     1      34.654 -14.661 -21.889  0.00  0.00    -0.335 N 
ATOM      4  N   UNL     1      34.746 -18.054 -25.158  0.00  0.00    -0.283 N 
ATOM      5  C   UNL     1      33.622 -14.276 -24.030  0.00  0.00    +0.138 C 
ATOM      6  C   UNL     1      33.329 -14.790 -25.278  0.00  0.00    +0.112 C 
ATOM      7  C   UNL     1      34.317 -15.120 -23.188  0.00  0.00    +0.178 C 
ATOM      8  C   UNL     1      34.359 -16.752 -24.769  0.00  0.00    +0.196 C 
ATOM      9  H   UNL     1      35.150 -15.248 -21.273  0.00  0.00    +0.144 HD
ATOM     10  H   UNL     1      34.392 -13.757 -21.603  0.00  0.00    +0.144 HD
ATOM     11  H   UNL     1      34.519 -18.386 -26.056  0.00  0.00    +0.156 HD
ATOM     12  H   UNL     1      35.241 -18.628 -24.531  0.00  0.00    +0.156 HD
ENDROOT
BRANCH   5  13
ATOM     13  C   UNL     1      33.221 -12.941 -23.642  0.00  0.00    -0.008 C 
ATOM     14  C   UNL     1      32.166 -12.762 -22.747  0.00  0.00    -0.003 C 
ATOM     15  C   UNL     1      33.889 -11.834 -24.162  0.00  0.00    -0.003 C 
ATOM     16  C   UNL     1      31.781 -11.476 -22.371  0.00  0.00    -0.000 C 
ATOM     17  C   UNL     1      33.504 -10.547 -23.786  0.00  0.00    -0.000 C 
ATOM     18  C   UNL     1      32.451 -10.368 -22.892  0.00  0.00    -0.000 C 
ENDBRANCH   5  13
BRANCH   6  19
ATOM     19  C   UNL     1      32.579 -13.980 -26.287  0.00  0.00    +0.056 C 
ATOM     20  C   UNL     1      33.486 -13.453 -27.394  0.00  0.00    +0.008 C 
ENDBRANCH   6  19
TORSDOF 2
ENDMDL
MODEL 9
REMARK VINA RESULT:      -7.7      2.968      5.362
REMARK  Name = 93114
REMARK  2 active torsions:
REMARK  status: ('A' for Active; 'I' for Inactive)
REMARK    1  A    between atoms: C_5  and  C_13
REMARK    2  A    between atoms: C_6  and  C_19
REMARK                            x       y       z     vdW  Elec       q    Type
REMARK                         _______ _______ _______ _____ _____    ______ ____
ROOT
ATOM      1  N   UNL     1      35.121 -20.527 -19.825  0.00  0.00    -0.337 NA
ATOM      2  N   UNL     1      37.435 -20.063 -20.311  0.00  0.00    -0.317 NA
ATOM      3  N   UNL     1      38.024 -18.594 -22.069  0.00  0.00    -0.335 N 
ATOM      4  N   UNL     1      36.838 -21.519 -18.571  0.00  0.00    -0.283 N 
ATOM      5  C   UNL     1      35.698 -19.028 -21.620  0.00  0.00    +0.138 C 
ATOM      6  C   UNL     1      34.782 -19.700 -20.837  0.00  0.00    +0.112 C 
ATOM      7  C   UNL     1      37.024 -19.250 -21.307  0.00  0.00    +0.178 C 
ATOM      8  C   UNL     1      36.445 -20.661 -19.621  0.00  0.00    +0.196 C 
ATOM      9  H   UNL     1      38.976 -18.739 -21.861  0.00  0.00    +0.144 HD
ATOM     10  H   UNL     1      37.767 -17.992 -22.804  0.00  0.00    +0.144 HD
ATOM     11  H   UNL     1      36.156 -21.982 -18.033  0.00  0.00    +0.156 HD
ATOM     12  H   UNL     1      37.793 -21.654 -18.376  0.00  0.00    +0.156 HD
ENDROOT
BRANCH   5  13
ATOM     13  C   UNL     1      35.285 -18.150 -22.694  0.00  0.00    -0.008 C 
ATOM     14  C   UNL     1      35.146 -16.782 -22.463  0.00  0.00    -0.003 C 
ATOM     15  C   UNL     1      35.028 -18.673 -23.961  0.00  0.00    -0.003 C 
ATOM     16  C   UNL     1      34.751 -15.936 -23.499  0.00  0.00    -0.000 C 
ATOM     17  C   UNL     1      34.633 -17.827 -24.998  0.00  0.00    -0.000 C 
ATOM     18  C   UNL     1      34.494 -16.460 -24.766  0.00  0.00    -0.000 C 
ENDBRANCH   5  13
BRANCH   6  19
ATOM     19  C   UNL     1      33.312 -19.547 -21.069  0.00  0.00    +0.056 C 
ATOM     20  C   UNL     1      32.484 -20.378 -20.095  0.00  0.00    +0.008 C 
ENDBRANCH   6  19
TORSDOF 2
ENDMDL
