MODEL 1
REMARK VINA RESULT:      -4.5      0.000      0.000
REMARK  Name = 637090
REMARK  2 active torsions:
REMARK  status: ('A' for Active; 'I' for Inactive)
REMARK    1  A    between atoms: C_2  and  C_5
REMARK    2  A    between atoms: C_2  and  O_6
REMARK                            x       y       z     vdW  Elec       q    Type
REMARK                         _______ _______ _______ _____ _____    ______ ____
ROOT
ATOM      1  O   UNL     1      41.000 -24.672 -14.336  0.00  0.00    -0.245 OA
ATOM      2  C   UNL     1      40.231 -25.431 -14.907  0.00  0.00    +0.338 C 
ENDROOT
BRANCH   2   5
ATOM      3  C   UNL     1      38.534 -25.517 -13.090  0.00  0.00    -0.019 C 
ATOM      4  C   UNL     1      37.248 -25.992 -12.495  0.00  0.00    +0.031 C 
ATOM      5  C   UNL     1      38.964 -25.890 -14.303  0.00  0.00    +0.077 C 
ENDBRANCH   2   5
BRANCH   2   6
ATOM      6  O   UNL     1      40.440 -25.938 -16.142  0.00  0.00    -0.477 OA
ATOM      7  H   UNL     1      41.145 -25.614 -16.668  0.00  0.00    +0.295 HD
ENDBRANCH   2   6
TORSDOF 2
ENDMDL
MODEL 2
REMARK VINA RESULT:      -4.3     10.748     11.489
REMARK  Name = 637090
REMARK  2 active torsions:
REMARK  status: ('A' for Active; 'I' for Inactive)
REMARK    1  A    between atoms: C_2  and  C_5
REMARK    2  A    between atoms: C_2  and  O_6
REMARK                            x       y       z     vdW  Elec       q    Type
REMARK                         _______ _______ _______ _____ _____    ______ ____
ROOT
ATOM      1  O   UNL     1      27.625 -23.815 -17.610  0.00  0.00    -0.245 OA
ATOM      2  C   UNL     1      27.936 -22.792 -17.018  0.00  0.00    +0.338 C 
ENDROOT
BRANCH   2   5
ATOM      3  C   UNL     1      30.282 -22.962 -16.207  0.00  0.00    -0.019 C 
ATOM      4  C   UNL     1      31.323 -22.926 -15.135  0.00  0.00    +0.031 C 
ATOM      5  C   UNL     1      28.978 -22.760 -15.972  0.00  0.00    +0.077 C 
ENDBRANCH   2   5
BRANCH   2   6
ATOM      6  O   UNL     1      27.376 -21.583 -17.242  0.00  0.00    -0.477 OA
ATOM      7  H   UNL     1      27.851 -20.928 -17.714  0.00  0.00    +0.295 HD
ENDBRANCH   2   6
TORSDOF 2
ENDMDL
MODEL 3
REMARK VINA RESULT:      -4.3      9.123      9.503
REMARK  Name = 637090
REMARK  2 active torsions:
REMARK  status: ('A' for Active; 'I' for Inactive)
REMARK    1  A    between atoms: C_2  and  C_5
REMARK    2  A    between atoms: C_2  and  O_6
REMARK                            x       y       z     vdW  Elec       q    Type
REMARK                         _______ _______ _______ _____ _____    ______ ____
ROOT
ATOM      1  O   UNL     1      32.492 -22.317 -18.347  0.00  0.00    -0.245 OA
ATOM      2  C   UNL     1      33.449 -22.378 -19.104  0.00  0.00    +0.338 C 
ENDROOT
BRANCH   2   5
ATOM      3  C   UNL     1      33.311 -20.289 -20.448  0.00  0.00    -0.019 C 
ATOM      4  C   UNL     1      33.913 -19.089 -21.104  0.00  0.00    +0.031 C 
ATOM      5  C   UNL     1      34.027 -21.186 -19.758  0.00  0.00    +0.077 C 
ENDBRANCH   2   5
BRANCH   2   6
ATOM      6  O   UNL     1      34.088 -23.522 -19.432  0.00  0.00    -0.477 OA
ATOM      7  H   UNL     1      33.687 -24.350 -19.255  0.00  0.00    +0.295 HD
ENDBRANCH   2   6
TORSDOF 2
ENDMDL
MODEL 4
REMARK VINA RESULT:      -4.3     10.761     11.488
REMARK  Name = 637090
REMARK  2 active torsions:
REMARK  status: ('A' for Active; 'I' for Inactive)
REMARK    1  A    between atoms: C_2  and  C_5
REMARK    2  A    between atoms: C_2  and  O_6
REMARK                            x       y       z     vdW  Elec       q    Type
REMARK                         _______ _______ _______ _____ _____    ______ ____
ROOT
ATOM      1  O   UNL     1      27.629 -21.610 -16.924  0.00  0.00    -0.245 OA
ATOM      2  C   UNL     1      27.978 -22.780 -16.880  0.00  0.00    +0.338 C 
ENDROOT
BRANCH   2   5
ATOM      3  C   UNL     1      29.123 -24.598 -15.625  0.00  0.00    -0.019 C 
ATOM      4  C   UNL     1      30.080 -25.101 -14.594  0.00  0.00    +0.031 C 
ATOM      5  C   UNL     1      28.919 -23.296 -15.865  0.00  0.00    +0.077 C 
ENDBRANCH   2   5
BRANCH   2   6
ATOM      6  O   UNL     1      27.555 -23.733 -17.738  0.00  0.00    -0.477 OA
ATOM      7  H   UNL     1      28.092 -23.982 -18.464  0.00  0.00    +0.295 HD
ENDBRANCH   2   6
TORSDOF 2
ENDMDL
MODEL 5
REMARK VINA RESULT:      -4.3     10.695     11.549
REMARK  Name = 637090
REMARK  2 active torsions:
REMARK  status: ('A' for Active; 'I' for Inactive)
REMARK    1  A    between atoms: C_2  and  C_5
REMARK    2  A    between atoms: C_2  and  O_6
REMARK                            x       y       z     vdW  Elec       q    Type
REMARK                         _______ _______ _______ _____ _____    ______ ____
ROOT
ATOM      1  O   UNL     1      42.235 -16.604 -15.637  0.00  0.00    -0.245 OA
ATOM      2  C   UNL     1      41.300 -15.830 -15.777  0.00  0.00    +0.338 C 
ENDROOT
BRANCH   2   5
ATOM      3  C   UNL     1      42.150 -13.591 -16.449  0.00  0.00    -0.019 C 
ATOM      4  C   UNL     1      42.202 -12.408 -17.362  0.00  0.00    +0.031 C 
ATOM      5  C   UNL     1      41.364 -14.653 -16.667  0.00  0.00    +0.077 C 
ENDBRANCH   2   5
BRANCH   2   6
ATOM      6  O   UNL     1      40.111 -15.950 -15.147  0.00  0.00    -0.477 OA
ATOM      7  H   UNL     1      39.792 -15.251 -14.612  0.00  0.00    +0.295 HD
ENDBRANCH   2   6
TORSDOF 2
ENDMDL
MODEL 6
REMARK VINA RESULT:      -4.0     12.584     12.999
REMARK  Name = 637090
REMARK  2 active torsions:
REMARK  status: ('A' for Active; 'I' for Inactive)
REMARK    1  A    between atoms: C_2  and  C_5
REMARK    2  A    between atoms: C_2  and  O_6
REMARK                            x       y       z     vdW  Elec       q    Type
REMARK                         _______ _______ _______ _____ _____    ______ ____
ROOT
ATOM      1  O   UNL     1      34.508 -17.380 -25.591  0.00  0.00    -0.245 OA
ATOM      2  C   UNL     1      34.997 -17.371 -24.472  0.00  0.00    +0.338 C 
ENDROOT
BRANCH   2   5
ATOM      3  C   UNL     1      34.605 -18.465 -22.272  0.00  0.00    -0.019 C 
ATOM      4  C   UNL     1      34.554 -19.656 -21.370  0.00  0.00    +0.031 C 
ATOM      5  C   UNL     1      34.942 -18.537 -23.567  0.00  0.00    +0.077 C 
ENDBRANCH   2   5
BRANCH   2   6
ATOM      6  O   UNL     1      35.639 -16.313 -23.930  0.00  0.00    -0.477 OA
ATOM      7  H   UNL     1      35.403 -15.443 -24.182  0.00  0.00    +0.295 HD
ENDBRANCH   2   6
TORSDOF 2
ENDMDL
MODEL 7
REMARK VINA RESULT:      -4.0      2.924      3.709
REMARK  Name = 637090
REMARK  2 active torsions:
REMARK  status: ('A' for Active; 'I' for Inactive)
REMARK    1  A    between atoms: C_2  and  C_5
REMARK    2  A    between atoms: C_2  and  O_6
REMARK                            x       y       z     vdW  Elec       q    Type
REMARK                         _______ _______ _______ _____ _____    ______ ____
ROOT
ATOM      1  O   UNL     1      37.739 -24.520 -11.271  0.00  0.00    -0.245 OA
ATOM      2  C   UNL     1      37.623 -25.336 -12.172  0.00  0.00    +0.338 C 
ENDROOT
BRANCH   2   5
ATOM      3  C   UNL     1      39.565 -25.599 -13.703  0.00  0.00    -0.019 C 
ATOM      4  C   UNL     1      40.244 -25.449 -15.026  0.00  0.00    +0.031 C 
ATOM      5  C   UNL     1      38.309 -25.196 -13.472  0.00  0.00    +0.077 C 
ENDBRANCH   2   5
BRANCH   2   6
ATOM      6  O   UNL     1      36.864 -26.452 -12.094  0.00  0.00    -0.477 OA
ATOM      7  H   UNL     1      36.896 -27.088 -12.781  0.00  0.00    +0.295 HD
ENDBRANCH   2   6
TORSDOF 2
ENDMDL
MODEL 8
REMARK VINA RESULT:      -3.9     10.976     11.188
REMARK  Name = 637090
REMARK  2 active torsions:
REMARK  status: ('A' for Active; 'I' for Inactive)
REMARK    1  A    between atoms: C_2  and  C_5
REMARK    2  A    between atoms: C_2  and  O_6
REMARK                            x       y       z     vdW  Elec       q    Type
REMARK                         _______ _______ _______ _____ _____    ______ ____
ROOT
ATOM      1  O   UNL     1      35.071 -16.679 -21.807  0.00  0.00    -0.245 OA
ATOM      2  C   UNL     1      35.439 -17.834 -21.963  0.00  0.00    +0.338 C 
ENDROOT
BRANCH   2   5
ATOM      3  C   UNL     1      33.662 -19.333 -21.078  0.00  0.00    -0.019 C 
ATOM      4  C   UNL     1      33.179 -20.465 -20.229  0.00  0.00    +0.031 C 
ATOM      5  C   UNL     1      34.944 -18.949 -21.130  0.00  0.00    +0.077 C 
ENDBRANCH   2   5
BRANCH   2   6
ATOM      6  O   UNL     1      36.328 -18.229 -22.899  0.00  0.00    -0.477 OA
ATOM      7  H   UNL     1      36.452 -17.717 -23.673  0.00  0.00    +0.295 HD
ENDBRANCH   2   6
TORSDOF 2
ENDMDL
MODEL 9
REMARK VINA RESULT:      -3.9     19.413     19.545
REMARK  Name = 637090
REMARK  2 active torsions:
REMARK  status: ('A' for Active; 'I' for Inactive)
REMARK    1  A    between atoms: C_2  and  C_5
REMARK    2  A    between atoms: C_2  and  O_6
REMARK                            x       y       z     vdW  Elec       q    Type
REMARK                         _______ _______ _______ _____ _____    ______ ____
ROOT
ATOM      1  O   UNL     1      31.899  -6.656 -21.171  0.00  0.00    -0.245 OA
ATOM      2  C   UNL     1      32.406  -7.503 -20.451  0.00  0.00    +0.338 C 
ENDROOT
BRANCH   2   5
ATOM      3  C   UNL     1      31.820  -9.711 -19.466  0.00  0.00    -0.019 C 
ATOM      4  C   UNL     1      31.467 -11.159 -19.567  0.00  0.00    +0.031 C 
ATOM      5  C   UNL     1      32.056  -8.935 -20.532  0.00  0.00    +0.077 C 
ENDBRANCH   2   5
BRANCH   2   6
ATOM      6  O   UNL     1      33.334  -7.240 -19.505  0.00  0.00    -0.477 OA
ATOM      7  H   UNL     1      33.076  -7.144 -18.609  0.00  0.00    +0.295 HD
ENDBRANCH   2   6
TORSDOF 2
ENDMDL
