MODEL 1
REMARK VINA RESULT:      -9.2      0.000      0.000
REMARK  Name = 9970357
REMARK  2 active torsions:
REMARK  status: ('A' for Active; 'I' for Inactive)
REMARK    1  A    between atoms: N_2  and  C_17
REMARK    2  A    between atoms: C_3  and  C_7
REMARK                            x       y       z     vdW  Elec       q    Type
REMARK                         _______ _______ _______ _____ _____    ______ ____
ROOT
ATOM      1  O   UNL     1      33.604 -24.331 -18.793  0.00  0.00    -0.268 OA
ATOM      2  N   UNL     1      33.205 -22.987 -16.947  0.00  0.00    -0.303 N 
ATOM      3  C   UNL     1      33.746 -23.269 -18.192  0.00  0.00    +0.265 C 
ATOM      4  H   UNL     1      33.376 -22.104 -16.545  0.00  0.00    +0.150 HD
ENDROOT
BRANCH   3   7
ATOM      5  N   UNL     1      35.850 -22.168 -18.500  0.00  0.00    -0.168 NA
ATOM      6  N   UNL     1      36.268 -21.105 -19.207  0.00  0.00    -0.276 N 
ATOM      7  C   UNL     1      34.574 -22.196 -18.801  0.00  0.00    +0.155 A 
ATOM      8  C   UNL     1      34.125 -21.213 -19.663  0.00  0.00    +0.041 A 
ATOM      9  C   UNL     1      35.281 -20.487 -19.928  0.00  0.00    +0.075 A 
ATOM     10  C   UNL     1      32.917 -20.826 -20.265  0.00  0.00    +0.003 C 
ATOM     11  C   UNL     1      35.305 -19.374 -20.772  0.00  0.00    +0.019 C 
ATOM     12  C   UNL     1      32.919 -19.712 -21.114  0.00  0.00    +0.000 C 
ATOM     13  C   UNL     1      34.094 -19.000 -21.362  0.00  0.00    +0.002 C 
ATOM     14  H   UNL     1      37.203 -20.797 -19.208  0.00  0.00    +0.189 HD
ENDBRANCH   3   7
BRANCH   2  17
ATOM     15  N   UNL     1      30.062 -23.788 -15.349  0.00  0.00    +0.388 N 
ATOM     16  C   UNL     1      32.579 -23.790 -14.693  0.00  0.00    +0.012 C 
ATOM     17  C   UNL     1      32.401 -23.935 -16.217  0.00  0.00    +0.051 C 
ATOM     18  C   UNL     1      31.882 -22.501 -14.223  0.00  0.00    -0.021 C 
ATOM     19  C   UNL     1      31.836 -24.968 -14.040  0.00  0.00    -0.021 C 
ATOM     20  C   UNL     1      30.905 -23.811 -16.567  0.00  0.00    -0.057 C 
ATOM     21  C   UNL     1      30.388 -22.568 -14.578  0.00  0.00    -0.077 C 
ATOM     22  C   UNL     1      30.375 -24.973 -14.519  0.00  0.00    -0.077 C 
ATOM     23  H   UNL     1      29.075 -23.795 -15.604  0.00  0.00    -0.080 HD
ENDBRANCH   2  17
TORSDOF 2
ENDMDL
MODEL 2
REMARK VINA RESULT:      -9.1      2.653      3.544
REMARK  Name = 9970357
REMARK  2 active torsions:
REMARK  status: ('A' for Active; 'I' for Inactive)
REMARK    1  A    between atoms: N_2  and  C_17
REMARK    2  A    between atoms: C_3  and  C_7
REMARK                            x       y       z     vdW  Elec       q    Type
REMARK                         _______ _______ _______ _____ _____    ______ ____
ROOT
ATOM      1  O   UNL     1      33.652 -24.290 -18.332  0.00  0.00    -0.268 OA
ATOM      2  N   UNL     1      34.511 -22.851 -16.729  0.00  0.00    -0.303 N 
ATOM      3  C   UNL     1      33.966 -23.160 -17.967  0.00  0.00    +0.265 C 
ATOM      4  H   UNL     1      34.731 -21.912 -16.531  0.00  0.00    +0.150 HD
ENDROOT
BRANCH   3   7
ATOM      5  N   UNL     1      32.559 -21.683 -19.219  0.00  0.00    -0.168 NA
ATOM      6  N   UNL     1      32.773 -20.650 -20.052  0.00  0.00    -0.276 N 
ATOM      7  C   UNL     1      33.787 -22.020 -18.903  0.00  0.00    +0.155 A 
ATOM      8  C   UNL     1      34.797 -21.272 -19.478  0.00  0.00    +0.041 A 
ATOM      9  C   UNL     1      34.095 -20.352 -20.249  0.00  0.00    +0.075 A 
ATOM     10  C   UNL     1      36.200 -21.230 -19.464  0.00  0.00    +0.003 C 
ATOM     11  C   UNL     1      34.721 -19.373 -21.024  0.00  0.00    +0.019 C 
ATOM     12  C   UNL     1      36.848 -20.256 -20.235  0.00  0.00    +0.000 C 
ATOM     13  C   UNL     1      36.119 -19.344 -21.001  0.00  0.00    +0.002 C 
ATOM     14  H   UNL     1      32.042 -20.149 -20.482  0.00  0.00    +0.189 HD
ENDBRANCH   3   7
BRANCH   2  17
ATOM     15  N   UNL     1      35.381 -23.638 -13.310  0.00  0.00    +0.388 N 
ATOM     16  C   UNL     1      36.257 -24.254 -15.680  0.00  0.00    +0.012 C 
ATOM     17  C   UNL     1      34.770 -23.851 -15.724  0.00  0.00    +0.051 C 
ATOM     18  C   UNL     1      37.075 -23.104 -15.066  0.00  0.00    -0.021 C 
ATOM     19  C   UNL     1      36.370 -25.450 -14.721  0.00  0.00    -0.021 C 
ATOM     20  C   UNL     1      34.331 -23.383 -14.322  0.00  0.00    -0.057 C 
ATOM     21  C   UNL     1      36.563 -22.814 -13.646  0.00  0.00    -0.077 C 
ATOM     22  C   UNL     1      35.768 -25.066 -13.359  0.00  0.00    -0.077 C 
ATOM     23  H   UNL     1      35.037 -23.404 -12.378  0.00  0.00    -0.080 HD
ENDBRANCH   2  17
TORSDOF 2
ENDMDL
MODEL 3
REMARK VINA RESULT:      -8.9     10.095     13.842
REMARK  Name = 9970357
REMARK  2 active torsions:
REMARK  status: ('A' for Active; 'I' for Inactive)
REMARK    1  A    between atoms: N_2  and  C_17
REMARK    2  A    between atoms: C_3  and  C_7
REMARK                            x       y       z     vdW  Elec       q    Type
REMARK                         _______ _______ _______ _____ _____    ______ ____
ROOT
ATOM      1  O   UNL     1      30.856 -11.321 -21.767  0.00  0.00    -0.268 OA
ATOM      2  N   UNL     1      32.479  -9.971 -22.726  0.00  0.00    -0.303 N 
ATOM      3  C   UNL     1      31.910 -11.188 -22.384  0.00  0.00    +0.265 C 
ATOM      4  H   UNL     1      33.329  -9.968 -23.222  0.00  0.00    +0.150 HD
ENDROOT
BRANCH   3   7
ATOM      5  N   UNL     1      33.244 -12.391 -23.967  0.00  0.00    -0.168 NA
ATOM      6  N   UNL     1      33.823 -13.603 -23.992  0.00  0.00    -0.276 N 
ATOM      7  C   UNL     1      32.671 -12.399 -22.787  0.00  0.00    +0.155 A 
ATOM      8  C   UNL     1      32.837 -13.545 -22.033  0.00  0.00    +0.041 A 
ATOM      9  C   UNL     1      33.617 -14.346 -22.860  0.00  0.00    +0.075 A 
ATOM     10  C   UNL     1      32.449 -14.030 -20.773  0.00  0.00    +0.003 C 
ATOM     11  C   UNL     1      34.041 -15.628 -22.500  0.00  0.00    +0.019 C 
ATOM     12  C   UNL     1      32.863 -15.313 -20.393  0.00  0.00    +0.000 C 
ATOM     13  C   UNL     1      33.645 -16.097 -21.243  0.00  0.00    +0.002 C 
ATOM     14  H   UNL     1      34.351 -13.929 -24.756  0.00  0.00    +0.189 HD
ENDBRANCH   3   7
BRANCH   2  17
ATOM     15  N   UNL     1      31.420  -6.672 -23.759  0.00  0.00    +0.388 N 
ATOM     16  C   UNL     1      32.916  -7.685 -21.888  0.00  0.00    +0.012 C 
ATOM     17  C   UNL     1      31.874  -8.708 -22.383  0.00  0.00    +0.051 C 
ATOM     18  C   UNL     1      33.763  -7.208 -23.080  0.00  0.00    -0.021 C 
ATOM     19  C   UNL     1      32.136  -6.465 -21.372  0.00  0.00    -0.021 C 
ATOM     20  C   UNL     1      31.094  -8.103 -23.567  0.00  0.00    -0.057 C 
ATOM     21  C   UNL     1      32.847  -6.564 -24.134  0.00  0.00    -0.077 C 
ATOM     22  C   UNL     1      31.207  -5.949 -22.484  0.00  0.00    -0.077 C 
ATOM     23  H   UNL     1      30.829  -6.270 -24.487  0.00  0.00    -0.080 HD
ENDBRANCH   2  17
TORSDOF 2
ENDMDL
MODEL 4
REMARK VINA RESULT:      -8.5      1.842      7.177
REMARK  Name = 9970357
REMARK  2 active torsions:
REMARK  status: ('A' for Active; 'I' for Inactive)
REMARK    1  A    between atoms: N_2  and  C_17
REMARK    2  A    between atoms: C_3  and  C_7
REMARK                            x       y       z     vdW  Elec       q    Type
REMARK                         _______ _______ _______ _____ _____    ______ ____
ROOT
ATOM      1  O   UNL     1      35.301 -22.886 -19.838  0.00  0.00    -0.268 OA
ATOM      2  N   UNL     1      34.230 -20.830 -19.883  0.00  0.00    -0.303 N 
ATOM      3  C   UNL     1      34.484 -22.095 -19.374  0.00  0.00    +0.265 C 
ATOM      4  H   UNL     1      33.554 -20.268 -19.440  0.00  0.00    +0.150 HD
ENDROOT
BRANCH   3   7
ATOM      5  N   UNL     1      32.367 -22.455 -18.315  0.00  0.00    -0.168 NA
ATOM      6  N   UNL     1      31.975 -22.873 -17.100  0.00  0.00    -0.276 N 
ATOM      7  C   UNL     1      33.673 -22.497 -18.196  0.00  0.00    +0.155 A 
ATOM      8  C   UNL     1      34.164 -22.917 -16.974  0.00  0.00    +0.041 A 
ATOM      9  C   UNL     1      33.006 -23.167 -16.247  0.00  0.00    +0.075 A 
ATOM     10  C   UNL     1      35.414 -23.126 -16.369  0.00  0.00    +0.003 C 
ATOM     11  C   UNL     1      33.018 -23.621 -14.926  0.00  0.00    +0.019 C 
ATOM     12  C   UNL     1      35.450 -23.581 -15.045  0.00  0.00    +0.000 C 
ATOM     13  C   UNL     1      34.270 -23.824 -14.337  0.00  0.00    +0.002 C 
ATOM     14  H   UNL     1      31.028 -22.962 -16.844  0.00  0.00    +0.189 HD
ENDBRANCH   3   7
BRANCH   2  17
ATOM     15  N   UNL     1      36.222 -18.199 -21.361  0.00  0.00    +0.388 N 
ATOM     16  C   UNL     1      33.996 -19.428 -21.908  0.00  0.00    +0.012 C 
ATOM     17  C   UNL     1      34.916 -20.306 -21.037  0.00  0.00    +0.051 C 
ATOM     18  C   UNL     1      33.733 -18.097 -21.182  0.00  0.00    -0.021 C 
ATOM     19  C   UNL     1      34.774 -19.097 -23.191  0.00  0.00    -0.021 C 
ATOM     20  C   UNL     1      36.166 -19.493 -20.643  0.00  0.00    -0.057 C 
ATOM     21  C   UNL     1      35.068 -17.378 -20.932  0.00  0.00    -0.077 C 
ATOM     22  C   UNL     1      36.116 -18.445 -22.816  0.00  0.00    -0.077 C 
ATOM     23  H   UNL     1      37.098 -17.719 -21.154  0.00  0.00    -0.080 HD
ENDBRANCH   2  17
TORSDOF 2
ENDMDL
MODEL 5
REMARK VINA RESULT:      -8.5      4.253      8.265
REMARK  Name = 9970357
REMARK  2 active torsions:
REMARK  status: ('A' for Active; 'I' for Inactive)
REMARK    1  A    between atoms: N_2  and  C_17
REMARK    2  A    between atoms: C_3  and  C_7
REMARK                            x       y       z     vdW  Elec       q    Type
REMARK                         _______ _______ _______ _____ _____    ______ ____
ROOT
ATOM      1  O   UNL     1      35.729 -18.204 -23.050  0.00  0.00    -0.268 OA
ATOM      2  N   UNL     1      35.030 -16.910 -21.257  0.00  0.00    -0.303 N 
ATOM      3  C   UNL     1      35.518 -18.067 -21.847  0.00  0.00    +0.265 C 
ATOM      4  H   UNL     1      34.894 -16.899 -20.282  0.00  0.00    +0.150 HD
ENDROOT
BRANCH   3   7
ATOM      5  N   UNL     1      37.004 -19.424 -20.551  0.00  0.00    -0.168 NA
ATOM      6  N   UNL     1      36.857 -20.498 -19.757  0.00  0.00    -0.276 N 
ATOM      7  C   UNL     1      35.767 -19.210 -20.932  0.00  0.00    +0.155 A 
ATOM      8  C   UNL     1      34.814 -20.080 -20.438  0.00  0.00    +0.041 A 
ATOM      9  C   UNL     1      35.565 -20.941 -19.647  0.00  0.00    +0.075 A 
ATOM     10  C   UNL     1      33.426 -20.272 -20.537  0.00  0.00    +0.003 C 
ATOM     11  C   UNL     1      35.006 -22.004 -18.934  0.00  0.00    +0.019 C 
ATOM     12  C   UNL     1      32.845 -21.333 -19.830  0.00  0.00    +0.000 C 
ATOM     13  C   UNL     1      33.623 -22.183 -19.043  0.00  0.00    +0.002 C 
ATOM     14  H   UNL     1      37.611 -20.928 -19.293  0.00  0.00    +0.189 HD
ENDBRANCH   3   7
BRANCH   2  17
ATOM     15  N   UNL     1      33.797 -13.513 -21.303  0.00  0.00    +0.388 N 
ATOM     16  C   UNL     1      33.265 -15.741 -22.534  0.00  0.00    +0.012 C 
ATOM     17  C   UNL     1      34.716 -15.725 -22.014  0.00  0.00    +0.051 C 
ATOM     18  C   UNL     1      32.302 -15.513 -21.355  0.00  0.00    -0.021 C 
ATOM     19  C   UNL     1      33.113 -14.538 -23.479  0.00  0.00    -0.021 C 
ATOM     20  C   UNL     1      34.946 -14.440 -21.194  0.00  0.00    -0.057 C 
ATOM     21  C   UNL     1      32.614 -14.160 -20.695  0.00  0.00    -0.077 C 
ATOM     22  C   UNL     1      33.515 -13.254 -22.733  0.00  0.00    -0.077 C 
ATOM     23  H   UNL     1      34.006 -12.635 -20.828  0.00  0.00    -0.080 HD
ENDBRANCH   2  17
TORSDOF 2
ENDMDL
MODEL 6
REMARK VINA RESULT:      -8.5      6.367      9.630
REMARK  Name = 9970357
REMARK  2 active torsions:
REMARK  status: ('A' for Active; 'I' for Inactive)
REMARK    1  A    between atoms: N_2  and  C_17
REMARK    2  A    between atoms: C_3  and  C_7
REMARK                            x       y       z     vdW  Elec       q    Type
REMARK                         _______ _______ _______ _____ _____    ______ ____
ROOT
ATOM      1  O   UNL     1      32.112 -15.233 -21.502  0.00  0.00    -0.268 OA
ATOM      2  N   UNL     1      34.216 -15.862 -22.248  0.00  0.00    -0.303 N 
ATOM      3  C   UNL     1      33.147 -14.987 -22.117  0.00  0.00    +0.265 C 
ATOM      4  H   UNL     1      35.004 -15.571 -22.762  0.00  0.00    +0.150 HD
ENDROOT
BRANCH   3   7
ATOM      5  N   UNL     1      34.131 -13.605 -23.805  0.00  0.00    -0.168 NA
ATOM      6  N   UNL     1      34.002 -12.318 -24.170  0.00  0.00    -0.276 N 
ATOM      7  C   UNL     1      33.289 -13.677 -22.802  0.00  0.00    +0.155 A 
ATOM      8  C   UNL     1      32.614 -12.514 -22.483  0.00  0.00    +0.041 A 
ATOM      9  C   UNL     1      33.107 -11.608 -23.416  0.00  0.00    +0.075 A 
ATOM     10  C   UNL     1      31.659 -12.086 -21.547  0.00  0.00    +0.003 C 
ATOM     11  C   UNL     1      32.696 -10.274 -23.473  0.00  0.00    +0.019 C 
ATOM     12  C   UNL     1      31.233 -10.752 -21.586  0.00  0.00    +0.000 C 
ATOM     13  C   UNL     1      31.745  -9.863 -22.534  0.00  0.00    +0.002 C 
ATOM     14  H   UNL     1      34.507 -11.921 -24.916  0.00  0.00    +0.189 HD
ENDBRANCH   3   7
BRANCH   2  17
ATOM     15  N   UNL     1      36.091 -18.611 -20.837  0.00  0.00    +0.388 N 
ATOM     16  C   UNL     1      34.338 -18.284 -22.730  0.00  0.00    +0.012 C 
ATOM     17  C   UNL     1      34.217 -17.179 -21.663  0.00  0.00    +0.051 C 
ATOM     18  C   UNL     1      35.770 -18.290 -23.293  0.00  0.00    -0.021 C 
ATOM     19  C   UNL     1      34.130 -19.627 -22.010  0.00  0.00    -0.021 C 
ATOM     20  C   UNL     1      35.348 -17.347 -20.629  0.00  0.00    -0.057 C 
ATOM     21  C   UNL     1      36.767 -18.545 -22.151  0.00  0.00    -0.077 C 
ATOM     22  C   UNL     1      35.135 -19.741 -20.851  0.00  0.00    -0.077 C 
ATOM     23  H   UNL     1      36.774 -18.746 -20.091  0.00  0.00    -0.080 HD
ENDBRANCH   2  17
TORSDOF 2
ENDMDL
MODEL 7
REMARK VINA RESULT:      -8.5      6.095      9.424
REMARK  Name = 9970357
REMARK  2 active torsions:
REMARK  status: ('A' for Active; 'I' for Inactive)
REMARK    1  A    between atoms: N_2  and  C_17
REMARK    2  A    between atoms: C_3  and  C_7
REMARK                            x       y       z     vdW  Elec       q    Type
REMARK                         _______ _______ _______ _____ _____    ______ ____
ROOT
ATOM      1  O   UNL     1      32.314 -15.146 -21.699  0.00  0.00    -0.268 OA
ATOM      2  N   UNL     1      34.251 -16.079 -22.565  0.00  0.00    -0.303 N 
ATOM      3  C   UNL     1      33.287 -15.090 -22.446  0.00  0.00    +0.265 C 
ATOM      4  H   UNL     1      34.996 -15.940 -23.195  0.00  0.00    +0.150 HD
ENDROOT
BRANCH   3   7
ATOM      5  N   UNL     1      33.730 -12.755 -22.738  0.00  0.00    -0.168 NA
ATOM      6  N   UNL     1      33.822 -11.933 -23.797  0.00  0.00    -0.276 N 
ATOM      7  C   UNL     1      33.462 -13.900 -23.319  0.00  0.00    +0.155 A 
ATOM      8  C   UNL     1      33.371 -13.882 -24.698  0.00  0.00    +0.041 A 
ATOM      9  C   UNL     1      33.617 -12.548 -25.004  0.00  0.00    +0.075 A 
ATOM     10  C   UNL     1      33.120 -14.791 -25.738  0.00  0.00    +0.003 C 
ATOM     11  C   UNL     1      33.626 -12.055 -26.311  0.00  0.00    +0.019 C 
ATOM     12  C   UNL     1      33.124 -14.318 -27.057  0.00  0.00    +0.000 C 
ATOM     13  C   UNL     1      33.373 -12.972 -27.336  0.00  0.00    +0.002 C 
ATOM     14  H   UNL     1      34.020 -10.973 -23.713  0.00  0.00    +0.189 HD
ENDBRANCH   3   7
BRANCH   2  17
ATOM     15  N   UNL     1      36.016 -18.617 -20.691  0.00  0.00    +0.388 N 
ATOM     16  C   UNL     1      34.369 -18.546 -22.702  0.00  0.00    +0.012 C 
ATOM     17  C   UNL     1      34.206 -17.303 -21.805  0.00  0.00    +0.051 C 
ATOM     18  C   UNL     1      35.828 -18.636 -23.181  0.00  0.00    -0.021 C 
ATOM     19  C   UNL     1      34.107 -19.775 -21.817  0.00  0.00    -0.021 C 
ATOM     20  C   UNL     1      35.279 -17.333 -20.699  0.00  0.00    -0.057 C 
ATOM     21  C   UNL     1      36.761 -18.736 -21.963  0.00  0.00    -0.077 C 
ATOM     22  C   UNL     1      35.047 -19.733 -20.600  0.00  0.00    -0.077 C 
ATOM     23  H   UNL     1      36.657 -18.650 -19.898  0.00  0.00    -0.080 HD
ENDBRANCH   2  17
TORSDOF 2
ENDMDL
MODEL 8
REMARK VINA RESULT:      -8.4      9.755     13.512
REMARK  Name = 9970357
REMARK  2 active torsions:
REMARK  status: ('A' for Active; 'I' for Inactive)
REMARK    1  A    between atoms: N_2  and  C_17
REMARK    2  A    between atoms: C_3  and  C_7
REMARK                            x       y       z     vdW  Elec       q    Type
REMARK                         _______ _______ _______ _____ _____    ______ ____
ROOT
ATOM      1  O   UNL     1      30.339 -11.401 -21.188  0.00  0.00    -0.268 OA
ATOM      2  N   UNL     1      32.223 -10.400 -22.096  0.00  0.00    -0.303 N 
ATOM      3  C   UNL     1      31.490 -11.473 -21.610  0.00  0.00    +0.265 C 
ATOM      4  H   UNL     1      33.142 -10.560 -22.412  0.00  0.00    +0.150 HD
ENDROOT
BRANCH   3   7
ATOM      5  N   UNL     1      32.398 -13.344 -20.424  0.00  0.00    -0.168 NA
ATOM      6  N   UNL     1      33.027 -14.476 -20.780  0.00  0.00    -0.276 N 
ATOM      7  C   UNL     1      32.189 -12.784 -21.592  0.00  0.00    +0.155 A 
ATOM      8  C   UNL     1      32.645 -13.479 -22.696  0.00  0.00    +0.041 A 
ATOM      9  C   UNL     1      33.207 -14.618 -22.130  0.00  0.00    +0.075 A 
ATOM     10  C   UNL     1      32.668 -13.321 -24.091  0.00  0.00    +0.003 C 
ATOM     11  C   UNL     1      33.804 -15.630 -22.887  0.00  0.00    +0.019 C 
ATOM     12  C   UNL     1      33.262 -14.323 -24.869  0.00  0.00    +0.000 C 
ATOM     13  C   UNL     1      33.820 -15.457 -24.274  0.00  0.00    +0.002 C 
ATOM     14  H   UNL     1      33.333 -15.147 -20.127  0.00  0.00    +0.189 HD
ENDBRANCH   3   7
BRANCH   2  17
ATOM     15  N   UNL     1      31.877  -7.292 -23.910  0.00  0.00    +0.388 N 
ATOM     16  C   UNL     1      32.662  -8.030 -21.542  0.00  0.00    +0.012 C 
ATOM     17  C   UNL     1      31.693  -9.061 -22.154  0.00  0.00    +0.051 C 
ATOM     18  C   UNL     1      33.858  -7.836 -22.490  0.00  0.00    -0.021 C 
ATOM     19  C   UNL     1      31.911  -6.689 -21.483  0.00  0.00    -0.021 C 
ATOM     20  C   UNL     1      31.350  -8.641 -23.597  0.00  0.00    -0.057 C 
ATOM     21  C   UNL     1      33.355  -7.344 -23.856  0.00  0.00    -0.077 C 
ATOM     22  C   UNL     1      31.398  -6.334 -22.889  0.00  0.00    -0.077 C 
ATOM     23  H   UNL     1      31.564  -6.998 -24.835  0.00  0.00    -0.080 HD
ENDBRANCH   2  17
TORSDOF 2
ENDMDL
MODEL 9
REMARK VINA RESULT:      -8.3      8.826     12.769
REMARK  Name = 9970357
REMARK  2 active torsions:
REMARK  status: ('A' for Active; 'I' for Inactive)
REMARK    1  A    between atoms: N_2  and  C_17
REMARK    2  A    between atoms: C_3  and  C_7
REMARK                            x       y       z     vdW  Elec       q    Type
REMARK                         _______ _______ _______ _____ _____    ______ ____
ROOT
ATOM      1  O   UNL     1      33.556 -12.564 -25.222  0.00  0.00    -0.268 OA
ATOM      2  N   UNL     1      33.277 -11.546 -23.157  0.00  0.00    -0.303 N 
ATOM      3  C   UNL     1      33.601 -12.603 -23.995  0.00  0.00    +0.265 C 
ATOM      4  H   UNL     1      33.345 -11.677 -22.184  0.00  0.00    +0.150 HD
ENDROOT
BRANCH   3   7
ATOM      5  N   UNL     1      34.251 -13.818 -22.038  0.00  0.00    -0.168 NA
ATOM      6  N   UNL     1      34.573 -15.096 -21.779  0.00  0.00    -0.276 N 
ATOM      7  C   UNL     1      34.005 -13.866 -23.325  0.00  0.00    +0.155 A 
ATOM      8  C   UNL     1      34.147 -15.100 -23.931  0.00  0.00    +0.041 A 
ATOM      9  C   UNL     1      34.530 -15.918 -22.874  0.00  0.00    +0.075 A 
ATOM     10  C   UNL     1      34.009 -15.653 -25.214  0.00  0.00    +0.003 C 
ATOM     11  C   UNL     1      34.790 -17.282 -23.022  0.00  0.00    +0.019 C 
ATOM     12  C   UNL     1      34.265 -17.020 -25.385  0.00  0.00    +0.000 C 
ATOM     13  C   UNL     1      34.649 -17.819 -24.306  0.00  0.00    +0.002 C 
ATOM     14  H   UNL     1      34.818 -15.415 -20.881  0.00  0.00    +0.189 HD
ENDBRANCH   3   7
BRANCH   2  17
ATOM     15  N   UNL     1      33.566  -7.944 -23.080  0.00  0.00    +0.388 N 
ATOM     16  C   UNL     1      31.662  -9.699 -22.843  0.00  0.00    +0.012 C 
ATOM     17  C   UNL     1      32.843 -10.266 -23.656  0.00  0.00    +0.051 C 
ATOM     18  C   UNL     1      32.171  -9.240 -21.465  0.00  0.00    -0.021 C 
ATOM     19  C   UNL     1      31.169  -8.445 -23.583  0.00  0.00    -0.021 C 
ATOM     20  C   UNL     1      33.990  -9.235 -23.668  0.00  0.00    -0.057 C 
ATOM     21  C   UNL     1      33.251  -8.163 -21.651  0.00  0.00    -0.077 C 
ATOM     22  C   UNL     1      32.345  -7.472 -23.770  0.00  0.00    -0.077 C 
ATOM     23  H   UNL     1      34.309  -7.251 -23.179  0.00  0.00    -0.080 HD
ENDBRANCH   2  17
TORSDOF 2
ENDMDL
