MODEL 1
REMARK VINA RESULT:      -6.1      0.000      0.000
REMARK  Name = 25137844
REMARK  0 active torsions:
REMARK  status: ('A' for Active; 'I' for Inactive)
REMARK                            x       y       z     vdW  Elec       q    Type
REMARK                         _______ _______ _______ _____ _____    ______ ____
ROOT
ATOM      1  S   UNL     1      34.799 -22.940 -15.568  0.00  0.00    -0.110 S 
ATOM      2  O   UNL     1      37.317 -23.748 -15.729  0.00  0.00    -0.351 OA
ATOM      3  N   UNL     1      38.118 -26.442 -13.789  0.00  0.00    +0.389 N 
ATOM      4  C   UNL     1      36.671 -24.637 -14.785  0.00  0.00    +0.085 C 
ATOM      5  C   UNL     1      36.958 -24.166 -13.326  0.00  0.00    +0.020 C 
ATOM      6  C   UNL     1      37.304 -26.044 -14.962  0.00  0.00    -0.049 C 
ATOM      7  C   UNL     1      36.479 -25.242 -12.336  0.00  0.00    -0.021 C 
ATOM      8  C   UNL     1      38.486 -24.059 -13.146  0.00  0.00    -0.021 C 
ATOM      9  C   UNL     1      37.226 -26.555 -12.614  0.00  0.00    -0.077 C 
ATOM     10  C   UNL     1      39.132 -25.399 -13.526  0.00  0.00    -0.077 C 
ATOM     11  C   UNL     1      35.186 -24.656 -15.180  0.00  0.00    +0.085 C 
ATOM     12  C   UNL     1      36.538 -22.555 -15.881  0.00  0.00    +0.162 C 
ATOM     13  C   UNL     1      36.738 -22.024 -17.288  0.00  0.00    +0.044 C 
ATOM     14  H   UNL     1      38.580 -27.334 -13.967  0.00  0.00    -0.080 HD
ENDROOT
TORSDOF 0
ENDMDL
MODEL 2
REMARK VINA RESULT:      -6.0     18.363     20.138
REMARK  Name = 25137844
REMARK  0 active torsions:
REMARK  status: ('A' for Active; 'I' for Inactive)
REMARK                            x       y       z     vdW  Elec       q    Type
REMARK                         _______ _______ _______ _____ _____    ______ ____
ROOT
ATOM      1  S   UNL     1      31.259  -4.303 -23.143  0.00  0.00    -0.110 S 
ATOM      2  O   UNL     1      32.085  -6.385 -24.558  0.00  0.00    -0.351 OA
ATOM      3  N   UNL     1      32.117  -9.368 -22.895  0.00  0.00    +0.389 N 
ATOM      4  C   UNL     1      31.774  -6.896 -23.239  0.00  0.00    +0.085 C 
ATOM      5  C   UNL     1      33.077  -7.009 -22.389  0.00  0.00    +0.020 C 
ATOM      6  C   UNL     1      31.199  -8.328 -23.418  0.00  0.00    -0.049 C 
ATOM      7  C   UNL     1      32.775  -7.775 -21.089  0.00  0.00    -0.021 C 
ATOM      8  C   UNL     1      34.091  -7.866 -23.174  0.00  0.00    -0.021 C 
ATOM      9  C   UNL     1      32.259  -9.179 -21.435  0.00  0.00    -0.077 C 
ATOM     10  C   UNL     1      33.441  -9.211 -23.534  0.00  0.00    -0.077 C 
ATOM     11  C   UNL     1      30.705  -5.950 -22.667  0.00  0.00    +0.085 C 
ATOM     12  C   UNL     1      32.258  -4.963 -24.497  0.00  0.00    +0.162 C 
ATOM     13  C   UNL     1      31.839  -4.369 -25.830  0.00  0.00    +0.044 C 
ATOM     14  H   UNL     1      31.747 -10.297 -23.096  0.00  0.00    -0.080 HD
ENDROOT
TORSDOF 0
ENDMDL
MODEL 3
REMARK VINA RESULT:      -6.0      1.789      2.098
REMARK  Name = 25137844
REMARK  0 active torsions:
REMARK  status: ('A' for Active; 'I' for Inactive)
REMARK                            x       y       z     vdW  Elec       q    Type
REMARK                         _______ _______ _______ _____ _____    ______ ____
ROOT
ATOM      1  S   UNL     1      32.778 -23.319 -15.045  0.00  0.00    -0.110 S 
ATOM      2  O   UNL     1      35.028 -24.053 -16.234  0.00  0.00    -0.351 OA
ATOM      3  N   UNL     1      37.400 -25.401 -14.181  0.00  0.00    +0.389 N 
ATOM      4  C   UNL     1      35.199 -24.362 -14.830  0.00  0.00    +0.085 C 
ATOM      5  C   UNL     1      35.993 -23.220 -14.124  0.00  0.00    +0.020 C 
ATOM      6  C   UNL     1      36.051 -25.657 -14.739  0.00  0.00    -0.049 C 
ATOM      7  C   UNL     1      36.379 -23.666 -12.703  0.00  0.00    -0.021 C 
ATOM      8  C   UNL     1      37.316 -23.009 -14.889  0.00  0.00    -0.021 C 
ATOM      9  C   UNL     1      37.251 -24.928 -12.787  0.00  0.00    -0.077 C 
ATOM     10  C   UNL     1      38.063 -24.348 -14.979  0.00  0.00    -0.077 C 
ATOM     11  C   UNL     1      33.784 -24.604 -14.282  0.00  0.00    +0.085 C 
ATOM     12  C   UNL     1      33.961 -23.109 -16.395  0.00  0.00    +0.162 C 
ATOM     13  C   UNL     1      33.305 -23.349 -17.743  0.00  0.00    +0.044 C 
ATOM     14  H   UNL     1      37.959 -26.254 -14.205  0.00  0.00    -0.080 HD
ENDROOT
TORSDOF 0
ENDMDL
MODEL 4
REMARK VINA RESULT:      -6.0      1.332      2.597
REMARK  Name = 25137844
REMARK  0 active torsions:
REMARK  status: ('A' for Active; 'I' for Inactive)
REMARK                            x       y       z     vdW  Elec       q    Type
REMARK                         _______ _______ _______ _____ _____    ______ ____
ROOT
ATOM      1  S   UNL     1      35.897 -22.786 -16.481  0.00  0.00    -0.110 S 
ATOM      2  O   UNL     1      35.489 -24.076 -14.204  0.00  0.00    -0.351 OA
ATOM      3  N   UNL     1      38.309 -25.095 -12.570  0.00  0.00    +0.389 N 
ATOM      4  C   UNL     1      36.925 -24.024 -14.381  0.00  0.00    +0.085 C 
ATOM      5  C   UNL     1      37.436 -25.361 -15.000  0.00  0.00    +0.020 C 
ATOM      6  C   UNL     1      37.563 -23.879 -12.973  0.00  0.00    -0.049 C 
ATOM      7  C   UNL     1      38.974 -25.391 -14.959  0.00  0.00    -0.021 C 
ATOM      8  C   UNL     1      36.954 -26.521 -14.105  0.00  0.00    -0.021 C 
ATOM      9  C   UNL     1      39.444 -25.281 -13.501  0.00  0.00    -0.077 C 
ATOM     10  C   UNL     1      37.412 -26.266 -12.662  0.00  0.00    -0.077 C 
ATOM     11  C   UNL     1      37.194 -22.771 -15.231  0.00  0.00    +0.085 C 
ATOM     12  C   UNL     1      34.837 -23.832 -15.457  0.00  0.00    +0.162 C 
ATOM     13  C   UNL     1      33.502 -23.163 -15.184  0.00  0.00    +0.044 C 
ATOM     14  H   UNL     1      38.650 -24.997 -11.613  0.00  0.00    -0.080 HD
ENDROOT
TORSDOF 0
ENDMDL
MODEL 5
REMARK VINA RESULT:      -5.5      9.188     10.916
REMARK  Name = 25137844
REMARK  0 active torsions:
REMARK  status: ('A' for Active; 'I' for Inactive)
REMARK                            x       y       z     vdW  Elec       q    Type
REMARK                         _______ _______ _______ _____ _____    ______ ____
ROOT
ATOM      1  S   UNL     1      34.798 -14.574 -21.111  0.00  0.00    -0.110 S 
ATOM      2  O   UNL     1      33.691 -16.379 -22.703  0.00  0.00    -0.351 OA
ATOM      3  N   UNL     1      34.221 -19.635 -21.819  0.00  0.00    +0.389 N 
ATOM      4  C   UNL     1      34.378 -17.126 -21.669  0.00  0.00    +0.085 C 
ATOM      5  C   UNL     1      35.776 -17.588 -22.185  0.00  0.00    +0.020 C 
ATOM      6  C   UNL     1      33.537 -18.397 -21.376  0.00  0.00    -0.049 C 
ATOM      7  C   UNL     1      36.391 -18.578 -21.179  0.00  0.00    -0.021 C 
ATOM      8  C   UNL     1      35.570 -18.372 -23.497  0.00  0.00    -0.021 C 
ATOM      9  C   UNL     1      35.463 -19.794 -21.033  0.00  0.00    -0.077 C 
ATOM     10  C   UNL     1      34.568 -19.510 -23.251  0.00  0.00    -0.077 C 
ATOM     11  C   UNL     1      34.412 -16.201 -20.442  0.00  0.00    +0.085 C 
ATOM     12  C   UNL     1      34.200 -15.040 -22.752  0.00  0.00    +0.162 C 
ATOM     13  C   UNL     1      33.087 -14.117 -23.213  0.00  0.00    +0.044 C 
ATOM     14  H   UNL     1      33.611 -20.442 -21.683  0.00  0.00    -0.080 HD
ENDROOT
TORSDOF 0
ENDMDL
MODEL 6
REMARK VINA RESULT:      -5.4     16.851     19.183
REMARK  Name = 25137844
REMARK  0 active torsions:
REMARK  status: ('A' for Active; 'I' for Inactive)
REMARK                            x       y       z     vdW  Elec       q    Type
REMARK                         _______ _______ _______ _____ _____    ______ ____
ROOT
ATOM      1  S   UNL     1      32.840 -11.280 -22.837  0.00  0.00    -0.110 S 
ATOM      2  O   UNL     1      31.281  -9.248 -22.159  0.00  0.00    -0.351 OA
ATOM      3  N   UNL     1      31.820  -6.349 -23.881  0.00  0.00    +0.389 N 
ATOM      4  C   UNL     1      32.153  -8.752 -23.204  0.00  0.00    +0.085 C 
ATOM      5  C   UNL     1      33.356  -7.985 -22.576  0.00  0.00    +0.020 C 
ATOM      6  C   UNL     1      31.334  -7.739 -24.050  0.00  0.00    -0.049 C 
ATOM      7  C   UNL     1      34.137  -7.259 -23.686  0.00  0.00    -0.021 C 
ATOM      8  C   UNL     1      32.797  -6.887 -21.648  0.00  0.00    -0.021 C 
ATOM      9  C   UNL     1      33.204  -6.267 -24.396  0.00  0.00    -0.077 C 
ATOM     10  C   UNL     1      31.820  -6.008 -22.442  0.00  0.00    -0.077 C 
ATOM     11  C   UNL     1      32.533  -9.980 -24.046  0.00  0.00    +0.085 C 
ATOM     12  C   UNL     1      31.839 -10.439 -21.588  0.00  0.00    +0.162 C 
ATOM     13  C   UNL     1      30.702 -11.323 -21.109  0.00  0.00    +0.044 C 
ATOM     14  H   UNL     1      31.216  -5.701 -24.387  0.00  0.00    -0.080 HD
ENDROOT
TORSDOF 0
ENDMDL
MODEL 7
REMARK VINA RESULT:      -5.2     16.556     19.330
REMARK  Name = 25137844
REMARK  0 active torsions:
REMARK  status: ('A' for Active; 'I' for Inactive)
REMARK                            x       y       z     vdW  Elec       q    Type
REMARK                         _______ _______ _______ _____ _____    ______ ____
ROOT
ATOM      1  S   UNL     1      31.487 -10.199 -20.593  0.00  0.00    -0.110 S 
ATOM      2  O   UNL     1      32.448  -9.548 -22.975  0.00  0.00    -0.351 OA
ATOM      3  N   UNL     1      33.006  -6.215 -23.468  0.00  0.00    +0.389 N 
ATOM      4  C   UNL     1      32.310  -8.304 -22.245  0.00  0.00    +0.085 C 
ATOM      5  C   UNL     1      30.974  -7.601 -22.637  0.00  0.00    +0.020 C 
ATOM      6  C   UNL     1      33.478  -7.378 -22.679  0.00  0.00    -0.049 C 
ATOM      7  C   UNL     1      30.952  -6.179 -22.049  0.00  0.00    -0.021 C 
ATOM      8  C   UNL     1      30.947  -7.438 -24.171  0.00  0.00    -0.021 C 
ATOM      9  C   UNL     1      32.140  -5.381 -22.606  0.00  0.00    -0.077 C 
ATOM     10  C   UNL     1      32.216  -6.700 -24.620  0.00  0.00    -0.077 C 
ATOM     11  C   UNL     1      32.436  -8.677 -20.759  0.00  0.00    +0.085 C 
ATOM     12  C   UNL     1      31.645 -10.562 -22.357  0.00  0.00    +0.162 C 
ATOM     13  C   UNL     1      32.310 -11.908 -22.584  0.00  0.00    +0.044 C 
ATOM     14  H   UNL     1      33.801  -5.670 -23.802  0.00  0.00    -0.080 HD
ENDROOT
TORSDOF 0
ENDMDL
MODEL 8
REMARK VINA RESULT:      -5.1      2.638      3.501
REMARK  Name = 25137844
REMARK  0 active torsions:
REMARK  status: ('A' for Active; 'I' for Inactive)
REMARK                            x       y       z     vdW  Elec       q    Type
REMARK                         _______ _______ _______ _____ _____    ______ ____
ROOT
ATOM      1  S   UNL     1      37.837 -26.800 -15.138  0.00  0.00    -0.110 S 
ATOM      2  O   UNL     1      38.803 -25.018 -13.433  0.00  0.00    -0.351 OA
ATOM      3  N   UNL     1      36.636 -23.989 -11.002  0.00  0.00    +0.389 N 
ATOM      4  C   UNL     1      37.436 -25.263 -13.022  0.00  0.00    +0.085 C 
ATOM      5  C   UNL     1      36.501 -24.152 -13.590  0.00  0.00    +0.020 C 
ATOM      6  C   UNL     1      37.393 -25.173 -11.473  0.00  0.00    -0.049 C 
ATOM      7  C   UNL     1      35.106 -24.283 -12.953  0.00  0.00    -0.021 C 
ATOM      8  C   UNL     1      37.055 -22.783 -13.147  0.00  0.00    -0.021 C 
ATOM      9  C   UNL     1      35.227 -24.130 -11.430  0.00  0.00    -0.077 C 
ATOM     10  C   UNL     1      37.209 -22.773 -11.619  0.00  0.00    -0.077 C 
ATOM     11  C   UNL     1      37.110 -26.690 -13.493  0.00  0.00    +0.085 C 
ATOM     12  C   UNL     1      38.987 -25.450 -14.787  0.00  0.00    +0.162 C 
ATOM     13  C   UNL     1      40.427 -25.897 -14.960  0.00  0.00    +0.044 C 
ATOM     14  H   UNL     1      36.691 -23.917  -9.986  0.00  0.00    -0.080 HD
ENDROOT
TORSDOF 0
ENDMDL
MODEL 9
REMARK VINA RESULT:      -5.1      3.900      5.722
REMARK  Name = 25137844
REMARK  0 active torsions:
REMARK  status: ('A' for Active; 'I' for Inactive)
REMARK                            x       y       z     vdW  Elec       q    Type
REMARK                         _______ _______ _______ _____ _____    ______ ____
ROOT
ATOM      1  S   UNL     1      35.803 -24.088 -14.299  0.00  0.00    -0.110 S 
ATOM      2  O   UNL     1      33.641 -24.326 -12.786  0.00  0.00    -0.351 OA
ATOM      3  N   UNL     1      30.705 -24.738 -14.480  0.00  0.00    +0.389 N 
ATOM      4  C   UNL     1      33.181 -24.411 -14.157  0.00  0.00    +0.085 C 
ATOM      5  C   UNL     1      32.649 -23.023 -14.628  0.00  0.00    +0.020 C 
ATOM      6  C   UNL     1      31.993 -25.411 -14.188  0.00  0.00    -0.049 C 
ATOM      7  C   UNL     1      31.944 -23.180 -15.987  0.00  0.00    -0.021 C 
ATOM      8  C   UNL     1      31.569 -22.557 -13.629  0.00  0.00    -0.021 C 
ATOM      9  C   UNL     1      30.772 -24.163 -15.841  0.00  0.00    -0.077 C 
ATOM     10  C   UNL     1      30.495 -23.648 -13.504  0.00  0.00    -0.077 C 
ATOM     11  C   UNL     1      34.371 -24.957 -14.962  0.00  0.00    +0.085 C 
ATOM     12  C   UNL     1      34.944 -23.729 -12.749  0.00  0.00    +0.162 C 
ATOM     13  C   UNL     1      35.699 -24.293 -11.559  0.00  0.00    +0.044 C 
ATOM     14  H   UNL     1      29.937 -25.407 -14.418  0.00  0.00    -0.080 HD
ENDROOT
TORSDOF 0
ENDMDL
