MODEL 1
REMARK VINA RESULT:      -4.5      0.000      0.000
REMARK  Name = 5287787
REMARK  3 active torsions:
REMARK  status: ('A' for Active; 'I' for Inactive)
REMARK    1  A    between atoms: C_1  and  C_5
REMARK    2  A    between atoms: C_1  and  C_6
REMARK    3  A    between atoms: C_6  and  N_7
REMARK                            x       y       z     vdW  Elec       q    Type
REMARK                         _______ _______ _______ _____ _____    ______ ____
ROOT
ATOM      1  C   UNL     1      29.678 -23.443 -15.894  0.00  0.00    +0.082 C 
ATOM      2  C   UNL     1      31.005 -22.907 -16.424  0.00  0.00    +0.010 C 
ENDROOT
BRANCH   1   5
ATOM      3  O   UNL     1      28.299 -21.949 -17.102  0.00  0.00    -0.246 OA
ATOM      4  O   UNL     1      27.898 -24.188 -17.301  0.00  0.00    -0.246 OA
ATOM      5  C   UNL     1      28.509 -23.173 -16.861  0.00  0.00    +0.362 C 
ENDBRANCH   1   5
BRANCH   1   6
ATOM      6  C   UNL     1      29.705 -24.961 -15.673  0.00  0.00    -0.075 C 
BRANCH   6   7
ATOM      7  N   UNL     1      28.929 -25.349 -14.499  0.00  0.00    +0.381 N 
ATOM      8  H   UNL     1      29.109 -24.690 -13.741  0.00  0.00    -0.089 HD
ATOM      9  H   UNL     1      29.201 -26.286 -14.206  0.00  0.00    -0.089 HD
ATOM     10  H   UNL     1      27.936 -25.338 -14.730  0.00  0.00    -0.089 HD
ENDBRANCH   6   7
ENDBRANCH   1   6
TORSDOF 3
ENDMDL
MODEL 2
REMARK VINA RESULT:      -4.5      9.985     10.626
REMARK  Name = 5287787
REMARK  3 active torsions:
REMARK  status: ('A' for Active; 'I' for Inactive)
REMARK    1  A    between atoms: C_1  and  C_5
REMARK    2  A    between atoms: C_1  and  C_6
REMARK    3  A    between atoms: C_6  and  N_7
REMARK                            x       y       z     vdW  Elec       q    Type
REMARK                         _______ _______ _______ _____ _____    ______ ____
ROOT
ATOM      1  C   UNL     1      38.598 -24.899 -13.463  0.00  0.00    +0.082 C 
ATOM      2  C   UNL     1      37.904 -25.888 -12.532  0.00  0.00    +0.010 C 
ENDROOT
BRANCH   1   5
ATOM      3  O   UNL     1      39.559 -26.660 -14.715  0.00  0.00    -0.246 OA
ATOM      4  O   UNL     1      40.865 -24.857 -14.211  0.00  0.00    -0.246 OA
ATOM      5  C   UNL     1      39.796 -25.529 -14.201  0.00  0.00    +0.362 C 
ENDBRANCH   1   5
BRANCH   1   6
ATOM      6  C   UNL     1      37.661 -24.364 -14.554  0.00  0.00    -0.075 C 
BRANCH   6   7
ATOM      7  N   UNL     1      38.405 -23.880 -15.714  0.00  0.00    +0.381 N 
ATOM      8  H   UNL     1      38.020 -24.299 -16.561  0.00  0.00    -0.089 HD
ATOM      9  H   UNL     1      39.386 -24.141 -15.621  0.00  0.00    -0.089 HD
ATOM     10  H   UNL     1      38.325 -22.866 -15.769  0.00  0.00    -0.089 HD
ENDBRANCH   6   7
ENDBRANCH   1   6
TORSDOF 3
ENDMDL
MODEL 3
REMARK VINA RESULT:      -4.4     10.088     10.632
REMARK  Name = 5287787
REMARK  3 active torsions:
REMARK  status: ('A' for Active; 'I' for Inactive)
REMARK    1  A    between atoms: C_1  and  C_5
REMARK    2  A    between atoms: C_1  and  C_6
REMARK    3  A    between atoms: C_6  and  N_7
REMARK                            x       y       z     vdW  Elec       q    Type
REMARK                         _______ _______ _______ _____ _____    ______ ____
ROOT
ATOM      1  C   UNL     1      38.736 -25.096 -14.244  0.00  0.00    +0.082 C 
ATOM      2  C   UNL     1      38.480 -24.789 -12.771  0.00  0.00    +0.010 C 
ENDROOT
BRANCH   1   5
ATOM      3  O   UNL     1      41.055 -24.767 -14.575  0.00  0.00    -0.246 OA
ATOM      4  O   UNL     1      40.258 -26.906 -14.578  0.00  0.00    -0.246 OA
ATOM      5  C   UNL     1      40.153 -25.651 -14.490  0.00  0.00    +0.362 C 
ENDBRANCH   1   5
BRANCH   1   6
ATOM      6  C   UNL     1      37.767 -26.146 -14.801  0.00  0.00    -0.075 C 
BRANCH   6   7
ATOM      7  N   UNL     1      37.212 -26.984 -13.742  0.00  0.00    +0.381 N 
ATOM      8  H   UNL     1      37.301 -27.966 -14.005  0.00  0.00    -0.089 HD
ATOM      9  H   UNL     1      36.228 -26.756 -13.609  0.00  0.00    -0.089 HD
ATOM     10  H   UNL     1      37.722 -26.817 -12.875  0.00  0.00    -0.089 HD
ENDBRANCH   6   7
ENDBRANCH   1   6
TORSDOF 3
ENDMDL
MODEL 4
REMARK VINA RESULT:      -4.4      1.795      2.246
REMARK  Name = 5287787
REMARK  3 active torsions:
REMARK  status: ('A' for Active; 'I' for Inactive)
REMARK    1  A    between atoms: C_1  and  C_5
REMARK    2  A    between atoms: C_1  and  C_6
REMARK    3  A    between atoms: C_6  and  N_7
REMARK                            x       y       z     vdW  Elec       q    Type
REMARK                         _______ _______ _______ _____ _____    ______ ____
ROOT
ATOM      1  C   UNL     1      29.449 -24.007 -16.260  0.00  0.00    +0.082 C 
ATOM      2  C   UNL     1      28.954 -24.753 -15.025  0.00  0.00    +0.010 C 
ENDROOT
BRANCH   1   5
ATOM      3  O   UNL     1      28.341 -21.975 -16.749  0.00  0.00    -0.246 OA
ATOM      4  O   UNL     1      27.520 -23.900 -17.663  0.00  0.00    -0.246 OA
ATOM      5  C   UNL     1      28.323 -23.222 -16.962  0.00  0.00    +0.362 C 
ENDBRANCH   1   5
BRANCH   1   6
ATOM      6  C   UNL     1      30.539 -22.980 -15.928  0.00  0.00    -0.075 C 
BRANCH   6   7
ATOM      7  N   UNL     1      31.305 -22.604 -17.113  0.00  0.00    +0.381 N 
ATOM      8  H   UNL     1      31.062 -21.651 -17.385  0.00  0.00    -0.089 HD
ATOM      9  H   UNL     1      31.085 -23.243 -17.876  0.00  0.00    -0.089 HD
ATOM     10  H   UNL     1      32.301 -22.654 -16.902  0.00  0.00    -0.089 HD
ENDBRANCH   6   7
ENDBRANCH   1   6
TORSDOF 3
ENDMDL
MODEL 5
REMARK VINA RESULT:      -4.3      9.154      9.999
REMARK  Name = 5287787
REMARK  3 active torsions:
REMARK  status: ('A' for Active; 'I' for Inactive)
REMARK    1  A    between atoms: C_1  and  C_5
REMARK    2  A    between atoms: C_1  and  C_6
REMARK    3  A    between atoms: C_6  and  N_7
REMARK                            x       y       z     vdW  Elec       q    Type
REMARK                         _______ _______ _______ _____ _____    ______ ____
ROOT
ATOM      1  C   UNL     1      34.247 -18.751 -21.650  0.00  0.00    +0.082 C 
ATOM      2  C   UNL     1      33.628 -19.927 -20.899  0.00  0.00    +0.010 C 
ENDROOT
BRANCH   1   5
ATOM      3  O   UNL     1      36.374 -18.909 -20.628  0.00  0.00    -0.246 OA
ATOM      4  O   UNL     1      35.304 -16.893 -20.587  0.00  0.00    -0.246 OA
ATOM      5  C   UNL     1      35.421 -18.116 -20.879  0.00  0.00    +0.362 C 
ENDBRANCH   1   5
BRANCH   1   6
ATOM      6  C   UNL     1      34.808 -19.159 -23.017  0.00  0.00    -0.075 C 
BRANCH   6   7
ATOM      7  N   UNL     1      35.816 -18.214 -23.490  0.00  0.00    +0.381 N 
ATOM      8  H   UNL     1      35.410 -17.619 -24.213  0.00  0.00    -0.089 HD
ATOM      9  H   UNL     1      36.608 -18.726 -23.877  0.00  0.00    -0.089 HD
ATOM     10  H   UNL     1      36.130 -17.636 -22.712  0.00  0.00    -0.089 HD
ENDBRANCH   6   7
ENDBRANCH   1   6
TORSDOF 3
ENDMDL
MODEL 6
REMARK VINA RESULT:      -4.3      6.566      7.338
REMARK  Name = 5287787
REMARK  3 active torsions:
REMARK  status: ('A' for Active; 'I' for Inactive)
REMARK    1  A    between atoms: C_1  and  C_5
REMARK    2  A    between atoms: C_1  and  C_6
REMARK    3  A    between atoms: C_6  and  N_7
REMARK                            x       y       z     vdW  Elec       q    Type
REMARK                         _______ _______ _______ _____ _____    ______ ____
ROOT
ATOM      1  C   UNL     1      34.045 -20.566 -19.898  0.00  0.00    +0.082 C 
ATOM      2  C   UNL     1      32.872 -20.130 -20.771  0.00  0.00    +0.010 C 
ENDROOT
BRANCH   1   5
ATOM      3  O   UNL     1      32.736 -22.258 -18.890  0.00  0.00    -0.246 OA
ATOM      4  O   UNL     1      34.888 -22.759 -19.469  0.00  0.00    -0.246 OA
ATOM      5  C   UNL     1      33.880 -22.004 -19.368  0.00  0.00    +0.362 C 
ENDBRANCH   1   5
BRANCH   1   6
ATOM      6  C   UNL     1      35.379 -20.543 -20.654  0.00  0.00    -0.075 C 
BRANCH   6   7
ATOM      7  N   UNL     1      36.488 -20.169 -19.781  0.00  0.00    +0.381 N 
ATOM      8  H   UNL     1      36.410 -20.675 -18.899  0.00  0.00    -0.089 HD
ATOM      9  H   UNL     1      36.456 -19.166 -19.601  0.00  0.00    -0.089 HD
ATOM     10  H   UNL     1      37.370 -20.406 -20.233  0.00  0.00    -0.089 HD
ENDBRANCH   6   7
ENDBRANCH   1   6
TORSDOF 3
ENDMDL
MODEL 7
REMARK VINA RESULT:      -4.3     14.506     15.299
REMARK  Name = 5287787
REMARK  3 active torsions:
REMARK  status: ('A' for Active; 'I' for Inactive)
REMARK    1  A    between atoms: C_1  and  C_5
REMARK    2  A    between atoms: C_1  and  C_6
REMARK    3  A    between atoms: C_6  and  N_7
REMARK                            x       y       z     vdW  Elec       q    Type
REMARK                         _______ _______ _______ _____ _____    ______ ____
ROOT
ATOM      1  C   UNL     1      41.135 -14.649 -16.820  0.00  0.00    +0.082 C 
ATOM      2  C   UNL     1      41.733 -14.741 -18.221  0.00  0.00    +0.010 C 
ENDROOT
BRANCH   1   5
ATOM      3  O   UNL     1      40.328 -16.465 -15.537  0.00  0.00    -0.246 OA
ATOM      4  O   UNL     1      42.581 -16.291 -15.864  0.00  0.00    -0.246 OA
ATOM      5  C   UNL     1      41.379 -15.927 -15.993  0.00  0.00    +0.362 C 
ENDBRANCH   1   5
BRANCH   1   6
ATOM      6  C   UNL     1      41.728 -13.495 -16.003  0.00  0.00    -0.075 C 
BRANCH   6   7
ATOM      7  N   UNL     1      41.200 -13.471 -14.642  0.00  0.00    +0.381 N 
ATOM      8  H   UNL     1      40.426 -14.131 -14.567  0.00  0.00    -0.089 HD
ATOM      9  H   UNL     1      40.870 -12.532 -14.422  0.00  0.00    -0.089 HD
ATOM     10  H   UNL     1      41.937 -13.735 -13.989  0.00  0.00    -0.089 HD
ENDBRANCH   6   7
ENDBRANCH   1   6
TORSDOF 3
ENDMDL
MODEL 8
REMARK VINA RESULT:      -4.2      9.192      9.746
REMARK  Name = 5287787
REMARK  3 active torsions:
REMARK  status: ('A' for Active; 'I' for Inactive)
REMARK    1  A    between atoms: C_1  and  C_5
REMARK    2  A    between atoms: C_1  and  C_6
REMARK    3  A    between atoms: C_6  and  N_7
REMARK                            x       y       z     vdW  Elec       q    Type
REMARK                         _______ _______ _______ _____ _____    ______ ____
ROOT
ATOM      1  C   UNL     1      38.617 -25.692 -13.035  0.00  0.00    +0.082 C 
ATOM      2  C   UNL     1      39.787 -25.467 -13.988  0.00  0.00    +0.010 C 
ENDROOT
BRANCH   1   5
ATOM      3  O   UNL     1      37.800 -24.436 -11.205  0.00  0.00    -0.246 OA
ATOM      4  O   UNL     1      37.997 -23.394 -13.227  0.00  0.00    -0.246 OA
ATOM      5  C   UNL     1      38.086 -24.375 -12.436  0.00  0.00    +0.362 C 
ENDBRANCH   1   5
BRANCH   1   6
ATOM      6  C   UNL     1      37.420 -26.358 -13.725  0.00  0.00    -0.075 C 
BRANCH   6   7
ATOM      7  N   UNL     1      36.169 -25.672 -13.414  0.00  0.00    +0.381 N 
ATOM      8  H   UNL     1      35.835 -25.973 -12.498  0.00  0.00    -0.089 HD
ATOM      9  H   UNL     1      35.471 -25.900 -14.122  0.00  0.00    -0.089 HD
ATOM     10  H   UNL     1      36.328 -24.665 -13.404  0.00  0.00    -0.089 HD
ENDBRANCH   6   7
ENDBRANCH   1   6
TORSDOF 3
ENDMDL
MODEL 9
REMARK VINA RESULT:      -4.2      8.653      9.350
REMARK  Name = 5287787
REMARK  3 active torsions:
REMARK  status: ('A' for Active; 'I' for Inactive)
REMARK    1  A    between atoms: C_1  and  C_5
REMARK    2  A    between atoms: C_1  and  C_6
REMARK    3  A    between atoms: C_6  and  N_7
REMARK                            x       y       z     vdW  Elec       q    Type
REMARK                         _______ _______ _______ _____ _____    ______ ____
ROOT
ATOM      1  C   UNL     1      34.756 -19.728 -21.319  0.00  0.00    +0.082 C 
ATOM      2  C   UNL     1      33.308 -19.540 -20.874  0.00  0.00    +0.010 C 
ENDROOT
BRANCH   1   5
ATOM      3  O   UNL     1      36.277 -18.340 -22.483  0.00  0.00    -0.246 OA
ATOM      4  O   UNL     1      35.243 -17.493 -20.632  0.00  0.00    -0.246 OA
ATOM      5  C   UNL     1      35.495 -18.386 -21.489  0.00  0.00    +0.362 C 
ENDBRANCH   1   5
BRANCH   1   6
ATOM      6  C   UNL     1      35.578 -20.541 -20.311  0.00  0.00    -0.075 C 
BRANCH   6   7
ATOM      7  N   UNL     1      36.824 -19.864 -19.962  0.00  0.00    +0.381 N 
ATOM      8  H   UNL     1      36.735 -19.448 -19.034  0.00  0.00    -0.089 HD
ATOM      9  H   UNL     1      37.017 -19.133 -20.645  0.00  0.00    -0.089 HD
ATOM     10  H   UNL     1      37.587 -20.539 -19.960  0.00  0.00    -0.089 HD
ENDBRANCH   6   7
ENDBRANCH   1   6
TORSDOF 3
ENDMDL
