MODEL 1
REMARK VINA RESULT:     -12.5      0.000      0.000
REMARK  Name = 23648971
REMARK  8 active torsions:
REMARK  status: ('A' for Active; 'I' for Inactive)
REMARK    1  A    between atoms: N_2  and  C_15
REMARK    2  A    between atoms: N_3  and  C_28
REMARK    3  A    between atoms: C_12  and  S_19
REMARK    4  A    between atoms: S_19  and  N_23
REMARK    5  A    between atoms: C_24  and  C_26
REMARK    6  A    between atoms: C_31  and  O_34
REMARK    7  A    between atoms: O_34  and  C_35
REMARK    8  A    between atoms: C_35  and  C_36
REMARK                            x       y       z     vdW  Elec       q    Type
REMARK                         _______ _______ _______ _____ _____    ______ ____
ROOT
ATOM      1  F   UNL     1      36.509 -24.471 -12.654  0.00  0.00    -0.198 F 
ATOM      2  N   UNL     1      36.809 -22.192 -17.578  0.00  0.00    -0.247 N 
ATOM      3  N   UNL     1      34.196 -23.653 -13.922  0.00  0.00    -0.285 N 
ATOM      4  N   UNL     1      35.495 -22.911 -15.773  0.00  0.00    -0.320 NA
ATOM      5  N   UNL     1      37.891 -23.162 -15.736  0.00  0.00    -0.167 NA
ATOM      6  C   UNL     1      36.728 -22.784 -16.303  0.00  0.00    +0.150 C 
ATOM      7  C   UNL     1      35.454 -23.481 -14.551  0.00  0.00    +0.226 C 
ATOM      8  C   UNL     1      36.572 -23.909 -13.867  0.00  0.00    +0.205 C 
ATOM      9  C   UNL     1      37.776 -23.723 -14.514  0.00  0.00    +0.145 C 
ATOM     10  H   UNL     1      37.729 -22.119 -17.923  0.00  0.00    +0.165 HD
ATOM     11  H   UNL     1      34.236 -23.616 -12.939  0.00  0.00    +0.155 HD
ENDROOT
BRANCH   2  15
ATOM     12  C   UNL     1      35.215 -20.232 -20.272  0.00  0.00    +0.123 C 
ATOM     13  C   UNL     1      33.903 -20.677 -20.205  0.00  0.00    -0.003 C 
ATOM     14  C   UNL     1      36.184 -20.723 -19.410  0.00  0.00    +0.035 C 
ATOM     15  C   UNL     1      35.833 -21.683 -18.460  0.00  0.00    +0.059 C 
ATOM     16  C   UNL     1      33.552 -21.635 -19.255  0.00  0.00    -0.002 C 
ATOM     17  C   UNL     1      34.517 -22.138 -18.383  0.00  0.00    +0.015 C 
ATOM     18  C   UNL     1      32.846 -20.159 -21.126  0.00  0.00    +0.032 C 
BRANCH  12  19
ATOM     19  S   UNL     1      35.694 -19.019 -21.465  0.00  0.00    +0.075 S 
ATOM     20  O   UNL     1      35.041 -19.376 -22.710  0.00  0.00    -0.150 OA
ATOM     21  O   UNL     1      37.136 -18.871 -21.406  0.00  0.00    -0.150 OA
BRANCH  19  23
ATOM     22  O   UNL     1      35.336 -16.136 -22.600  0.00  0.00    -0.274 OA
ATOM     23  N   UNL     1      34.955 -17.618 -20.821  0.00  0.00    -0.185 N 
ATOM     24  C   UNL     1      34.895 -16.346 -21.475  0.00  0.00    +0.241 C 
ATOM     25  H   UNL     1      34.538 -17.692 -19.932  0.00  0.00    +0.177 HD
BRANCH  24  26
ATOM     26  C   UNL     1      34.260 -15.260 -20.641  0.00  0.00    +0.087 C 
ATOM     27  C   UNL     1      32.748 -15.368 -20.688  0.00  0.00    +0.010 C 
ENDBRANCH  24  26
ENDBRANCH  19  23
ENDBRANCH  12  19
ENDBRANCH   2  15
BRANCH   3  28
ATOM     28  C   UNL     1      32.904 -23.864 -14.428  0.00  0.00    +0.050 C 
ATOM     29  C   UNL     1      32.076 -24.836 -13.861  0.00  0.00    +0.018 C 
ATOM     30  C   UNL     1      32.438 -23.105 -15.506  0.00  0.00    +0.018 C 
ATOM     31  C   UNL     1      30.332 -24.287 -15.440  0.00  0.00    +0.140 C 
ATOM     32  C   UNL     1      30.792 -25.047 -14.365  0.00  0.00    +0.038 C 
ATOM     33  C   UNL     1      31.154 -23.315 -16.010  0.00  0.00    +0.038 C 
BRANCH  31  34
ATOM     34  O   UNL     1      29.080 -24.493 -15.932  0.00  0.00    -0.461 OA
BRANCH  34  35
ATOM     35  C   UNL     1      28.574 -23.524 -16.849  0.00  0.00    +0.282 C 
BRANCH  35  36
ATOM     36  C   UNL     1      27.535 -22.712 -16.217  0.00  0.00    -0.031 C 
ATOM     37  C   UNL     1      26.680 -22.048 -15.697  0.00  0.00    -0.010 C 
ENDBRANCH  35  36
ENDBRANCH  34  35
ENDBRANCH  31  34
ENDBRANCH   3  28
TORSDOF 8
ENDMDL
MODEL 2
REMARK VINA RESULT:     -11.7      1.417      2.022
REMARK  Name = 23648971
REMARK  8 active torsions:
REMARK  status: ('A' for Active; 'I' for Inactive)
REMARK    1  A    between atoms: N_2  and  C_15
REMARK    2  A    between atoms: N_3  and  C_28
REMARK    3  A    between atoms: C_12  and  S_19
REMARK    4  A    between atoms: S_19  and  N_23
REMARK    5  A    between atoms: C_24  and  C_26
REMARK    6  A    between atoms: C_31  and  O_34
REMARK    7  A    between atoms: O_34  and  C_35
REMARK    8  A    between atoms: C_35  and  C_36
REMARK                            x       y       z     vdW  Elec       q    Type
REMARK                         _______ _______ _______ _____ _____    ______ ____
ROOT
ATOM      1  F   UNL     1      36.424 -24.628 -12.477  0.00  0.00    -0.198 F 
ATOM      2  N   UNL     1      36.947 -22.364 -17.390  0.00  0.00    -0.247 N 
ATOM      3  N   UNL     1      34.182 -23.707 -13.800  0.00  0.00    -0.285 N 
ATOM      4  N   UNL     1      35.557 -23.024 -15.618  0.00  0.00    -0.320 NA
ATOM      5  N   UNL     1      37.938 -23.382 -15.523  0.00  0.00    -0.167 NA
ATOM      6  C   UNL     1      36.808 -22.952 -16.118  0.00  0.00    +0.150 C 
ATOM      7  C   UNL     1      35.461 -23.591 -14.398  0.00  0.00    +0.226 C 
ATOM      8  C   UNL     1      36.542 -24.069 -13.687  0.00  0.00    +0.205 C 
ATOM      9  C   UNL     1      37.769 -23.937 -14.305  0.00  0.00    +0.145 C 
ATOM     10  H   UNL     1      37.876 -22.332 -17.712  0.00  0.00    +0.165 HD
ATOM     11  H   UNL     1      34.199 -23.672 -12.817  0.00  0.00    +0.155 HD
ENDROOT
BRANCH   2  15
ATOM     12  C   UNL     1      35.473 -20.233 -20.022  0.00  0.00    +0.123 C 
ATOM     13  C   UNL     1      34.176 -20.720 -20.085  0.00  0.00    -0.003 C 
ATOM     14  C   UNL     1      36.398 -20.766 -19.136  0.00  0.00    +0.035 C 
ATOM     15  C   UNL     1      36.016 -21.811 -18.295  0.00  0.00    +0.059 C 
ATOM     16  C   UNL     1      33.795 -21.764 -19.244  0.00  0.00    -0.002 C 
ATOM     17  C   UNL     1      34.715 -22.310 -18.348  0.00  0.00    +0.015 C 
ATOM     18  C   UNL     1      33.167 -20.159 -21.034  0.00  0.00    +0.032 C 
BRANCH  12  19
ATOM     19  S   UNL     1      35.990 -18.912 -21.075  0.00  0.00    +0.075 S 
ATOM     20  O   UNL     1      37.431 -19.018 -21.203  0.00  0.00    -0.150 OA
ATOM     21  O   UNL     1      35.382 -17.686 -20.594  0.00  0.00    -0.150 OA
BRANCH  19  23
ATOM     22  O   UNL     1      35.324 -17.297 -23.659  0.00  0.00    -0.274 OA
ATOM     23  N   UNL     1      35.257 -19.365 -22.552  0.00  0.00    -0.185 N 
ATOM     24  C   UNL     1      35.001 -18.480 -23.648  0.00  0.00    +0.241 C 
ATOM     25  H   UNL     1      34.991 -20.307 -22.656  0.00  0.00    +0.177 HD
BRANCH  24  26
ATOM     26  C   UNL     1      34.263 -19.127 -24.795  0.00  0.00    +0.087 C 
ATOM     27  C   UNL     1      34.932 -20.429 -25.192  0.00  0.00    +0.010 C 
ENDBRANCH  24  26
ENDBRANCH  19  23
ENDBRANCH  12  19
ENDBRANCH   2  15
BRANCH   3  28
ATOM     28  C   UNL     1      32.894 -23.860 -14.339  0.00  0.00    +0.050 C 
ATOM     29  C   UNL     1      32.447 -23.002 -15.347  0.00  0.00    +0.018 C 
ATOM     30  C   UNL     1      32.050 -24.870 -13.867  0.00  0.00    +0.018 C 
ATOM     31  C   UNL     1      30.328 -24.163 -15.407  0.00  0.00    +0.140 C 
ATOM     32  C   UNL     1      31.167 -23.154 -15.881  0.00  0.00    +0.038 C 
ATOM     33  C   UNL     1      30.771 -25.022 -14.402  0.00  0.00    +0.038 C 
BRANCH  31  34
ATOM     34  O   UNL     1      29.080 -24.311 -15.928  0.00  0.00    -0.461 OA
BRANCH  34  35
ATOM     35  C   UNL     1      28.624 -23.297 -16.823  0.00  0.00    +0.282 C 
BRANCH  35  36
ATOM     36  C   UNL     1      27.488 -22.578 -16.247  0.00  0.00    -0.031 C 
ATOM     37  C   UNL     1      26.554 -21.989 -15.775  0.00  0.00    -0.010 C 
ENDBRANCH  35  36
ENDBRANCH  34  35
ENDBRANCH  31  34
ENDBRANCH   3  28
TORSDOF 8
ENDMDL
