MODEL 1
REMARK VINA RESULT:      -6.1      0.000      0.000
REMARK  Name = 543502
REMARK  12 active torsions:
REMARK  status: ('A' for Active; 'I' for Inactive)
REMARK    1  A    between atoms: C_1  and  C_2
REMARK    2  A    between atoms: C_1  and  C_9
REMARK    3  A    between atoms: C_2  and  C_3
REMARK    4  A    between atoms: C_3  and  C_4
REMARK    5  A    between atoms: C_4  and  C_5
REMARK    6  A    between atoms: C_5  and  C_6
REMARK    7  A    between atoms: C_6  and  S_7
REMARK    8  A    between atoms: C_9  and  C_10
REMARK    9  A    between atoms: C_10  and  C_11
REMARK   10  A    between atoms: C_11  and  C_12
REMARK   11  A    between atoms: C_12  and  C_14
REMARK   12  A    between atoms: C_14  and  O_15
REMARK                            x       y       z     vdW  Elec       q    Type
REMARK                         _______ _______ _______ _____ _____    ______ ____
ROOT
ATOM      1  C   UNL     1      33.052 -22.682 -17.987  0.00  0.00    +0.000 C 
ENDROOT
BRANCH   1   2
ATOM      2  C   UNL     1      34.440 -22.551 -18.619  0.00  0.00    +0.000 C 
BRANCH   2   3
ATOM      3  C   UNL     1      34.549 -21.376 -19.598  0.00  0.00    +0.000 C 
BRANCH   3   4
ATOM      4  C   UNL     1      33.189 -20.822 -20.028  0.00  0.00    +0.001 C 
BRANCH   4   5
ATOM      5  C   UNL     1      33.293 -19.571 -20.910  0.00  0.00    +0.011 C 
BRANCH   5   6
ATOM      6  C   UNL     1      34.694 -19.200 -21.402  0.00  0.00    +0.053 C 
BRANCH   6   7
ATOM      7  S   UNL     1      34.811 -19.067 -23.210  0.00  0.00    -0.168 S 
ATOM      8  H   UNL     1      35.903 -18.328 -23.539  0.00  0.00    +0.102 HD
ENDBRANCH   6   7
ENDBRANCH   5   6
ENDBRANCH   4   5
ENDBRANCH   3   4
ENDBRANCH   2   3
ENDBRANCH   1   2
BRANCH   1   9
ATOM      9  C   UNL     1      33.076 -23.341 -16.604  0.00  0.00    +0.000 C 
BRANCH   9  10
ATOM     10  C   UNL     1      31.752 -23.318 -15.831  0.00  0.00    +0.001 C 
BRANCH  10  11
ATOM     11  C   UNL     1      30.593 -22.711 -16.626  0.00  0.00    +0.012 C 
BRANCH  11  12
ATOM     12  C   UNL     1      29.242 -22.943 -15.954  0.00  0.00    +0.109 C 
BRANCH  12  14
ATOM     13  O   UNL     1      27.511 -21.672 -17.063  0.00  0.00    -0.250 OA
ATOM     14  C   UNL     1      28.084 -22.742 -16.899  0.00  0.00    +0.314 C 
BRANCH  14  15
ATOM     15  O   UNL     1      27.738 -23.881 -17.550  0.00  0.00    -0.480 OA
ATOM     16  H   UNL     1      27.625 -23.873 -18.480  0.00  0.00    +0.295 HD
ENDBRANCH  14  15
ENDBRANCH  12  14
ENDBRANCH  11  12
ENDBRANCH  10  11
ENDBRANCH   9  10
ENDBRANCH   1   9
TORSDOF 12
ENDMDL
MODEL 2
REMARK VINA RESULT:      -6.1      3.778      6.213
REMARK  Name = 543502
REMARK  12 active torsions:
REMARK  status: ('A' for Active; 'I' for Inactive)
REMARK    1  A    between atoms: C_1  and  C_2
REMARK    2  A    between atoms: C_1  and  C_9
REMARK    3  A    between atoms: C_2  and  C_3
REMARK    4  A    between atoms: C_3  and  C_4
REMARK    5  A    between atoms: C_4  and  C_5
REMARK    6  A    between atoms: C_5  and  C_6
REMARK    7  A    between atoms: C_6  and  S_7
REMARK    8  A    between atoms: C_9  and  C_10
REMARK    9  A    between atoms: C_10  and  C_11
REMARK   10  A    between atoms: C_11  and  C_12
REMARK   11  A    between atoms: C_12  and  C_14
REMARK   12  A    between atoms: C_14  and  O_15
REMARK                            x       y       z     vdW  Elec       q    Type
REMARK                         _______ _______ _______ _____ _____    ______ ____
ROOT
ATOM      1  C   UNL     1      35.446 -18.354 -22.674  0.00  0.00    +0.000 C 
ENDROOT
BRANCH   1   2
ATOM      2  C   UNL     1      34.760 -19.153 -23.786  0.00  0.00    +0.000 C 
BRANCH   2   3
ATOM      3  C   UNL     1      34.460 -18.315 -25.035  0.00  0.00    +0.000 C 
BRANCH   3   4
ATOM      4  C   UNL     1      34.799 -16.832 -24.860  0.00  0.00    +0.001 C 
BRANCH   4   5
ATOM      5  C   UNL     1      33.669 -15.895 -25.306  0.00  0.00    +0.011 C 
BRANCH   5   6
ATOM      6  C   UNL     1      33.474 -14.623 -24.478  0.00  0.00    +0.053 C 
BRANCH   6   7
ATOM      7  S   UNL     1      34.286 -14.687 -22.855  0.00  0.00    -0.168 S 
ATOM      8  H   UNL     1      33.570 -13.954 -21.961  0.00  0.00    +0.102 HD
ENDBRANCH   6   7
ENDBRANCH   5   6
ENDBRANCH   4   5
ENDBRANCH   3   4
ENDBRANCH   2   3
ENDBRANCH   1   2
BRANCH   1   9
ATOM      9  C   UNL     1      34.988 -18.757 -21.269  0.00  0.00    +0.000 C 
BRANCH   9  10
ATOM     10  C   UNL     1      33.475 -18.923 -21.082  0.00  0.00    +0.001 C 
BRANCH  10  11
ATOM     11  C   UNL     1      33.087 -20.242 -20.407  0.00  0.00    +0.012 C 
BRANCH  11  12
ATOM     12  C   UNL     1      34.303 -21.029 -19.926  0.00  0.00    +0.109 C 
BRANCH  12  14
ATOM     13  O   UNL     1      34.748 -22.890 -18.449  0.00  0.00    -0.250 OA
ATOM     14  C   UNL     1      33.934 -22.138 -18.972  0.00  0.00    +0.314 C 
BRANCH  14  15
ATOM     15  O   UNL     1      32.598 -22.219 -18.757  0.00  0.00    -0.480 OA
ATOM     16  H   UNL     1      32.180 -23.057 -18.713  0.00  0.00    +0.295 HD
ENDBRANCH  14  15
ENDBRANCH  12  14
ENDBRANCH  11  12
ENDBRANCH  10  11
ENDBRANCH   9  10
ENDBRANCH   1   9
TORSDOF 12
ENDMDL
MODEL 3
REMARK VINA RESULT:      -6.0      4.169      6.225
REMARK  Name = 543502
REMARK  12 active torsions:
REMARK  status: ('A' for Active; 'I' for Inactive)
REMARK    1  A    between atoms: C_1  and  C_2
REMARK    2  A    between atoms: C_1  and  C_9
REMARK    3  A    between atoms: C_2  and  C_3
REMARK    4  A    between atoms: C_3  and  C_4
REMARK    5  A    between atoms: C_4  and  C_5
REMARK    6  A    between atoms: C_5  and  C_6
REMARK    7  A    between atoms: C_6  and  S_7
REMARK    8  A    between atoms: C_9  and  C_10
REMARK    9  A    between atoms: C_10  and  C_11
REMARK   10  A    between atoms: C_11  and  C_12
REMARK   11  A    between atoms: C_12  and  C_14
REMARK   12  A    between atoms: C_14  and  O_15
REMARK                            x       y       z     vdW  Elec       q    Type
REMARK                         _______ _______ _______ _____ _____    ______ ____
ROOT
ATOM      1  C   UNL     1      35.551 -18.322 -21.416  0.00  0.00    +0.000 C 
ENDROOT
BRANCH   1   2
ATOM      2  C   UNL     1      34.905 -16.982 -21.778  0.00  0.00    +0.000 C 
BRANCH   2   3
ATOM      3  C   UNL     1      34.657 -16.083 -20.561  0.00  0.00    +0.000 C 
BRANCH   3   4
ATOM      4  C   UNL     1      34.286 -14.647 -20.939  0.00  0.00    +0.001 C 
BRANCH   4   5
ATOM      5  C   UNL     1      32.779 -14.440 -21.135  0.00  0.00    +0.011 C 
BRANCH   5   6
ATOM      6  C   UNL     1      32.358 -13.609 -22.349  0.00  0.00    +0.053 C 
BRANCH   6   7
ATOM      7  S   UNL     1      33.345 -13.953 -23.835  0.00  0.00    -0.168 S 
ATOM      8  H   UNL     1      32.645 -14.773 -24.663  0.00  0.00    +0.102 HD
ENDBRANCH   6   7
ENDBRANCH   5   6
ENDBRANCH   4   5
ENDBRANCH   3   4
ENDBRANCH   2   3
ENDBRANCH   1   2
BRANCH   1   9
ATOM      9  C   UNL     1      34.650 -19.527 -21.705  0.00  0.00    +0.000 C 
BRANCH   9  10
ATOM     10  C   UNL     1      33.319 -19.562 -20.947  0.00  0.00    +0.001 C 
BRANCH  10  11
ATOM     11  C   UNL     1      33.215 -20.721 -19.951  0.00  0.00    +0.012 C 
BRANCH  11  12
ATOM     12  C   UNL     1      34.577 -21.325 -19.619  0.00  0.00    +0.109 C 
BRANCH  12  14
ATOM     13  O   UNL     1      33.845 -23.615 -19.380  0.00  0.00    -0.250 OA
ATOM     14  C   UNL     1      34.465 -22.661 -18.928  0.00  0.00    +0.314 C 
BRANCH  14  15
ATOM     15  O   UNL     1      35.123 -22.693 -17.743  0.00  0.00    -0.480 OA
ATOM     16  H   UNL     1      36.054 -22.803 -17.727  0.00  0.00    +0.295 HD
ENDBRANCH  14  15
ENDBRANCH  12  14
ENDBRANCH  11  12
ENDBRANCH  10  11
ENDBRANCH   9  10
ENDBRANCH   1   9
TORSDOF 12
ENDMDL
MODEL 4
REMARK VINA RESULT:      -5.9      4.414      6.260
REMARK  Name = 543502
REMARK  12 active torsions:
REMARK  status: ('A' for Active; 'I' for Inactive)
REMARK    1  A    between atoms: C_1  and  C_2
REMARK    2  A    between atoms: C_1  and  C_9
REMARK    3  A    between atoms: C_2  and  C_3
REMARK    4  A    between atoms: C_3  and  C_4
REMARK    5  A    between atoms: C_4  and  C_5
REMARK    6  A    between atoms: C_5  and  C_6
REMARK    7  A    between atoms: C_6  and  S_7
REMARK    8  A    between atoms: C_9  and  C_10
REMARK    9  A    between atoms: C_10  and  C_11
REMARK   10  A    between atoms: C_11  and  C_12
REMARK   11  A    between atoms: C_12  and  C_14
REMARK   12  A    between atoms: C_14  and  O_15
REMARK                            x       y       z     vdW  Elec       q    Type
REMARK                         _______ _______ _______ _____ _____    ______ ____
ROOT
ATOM      1  C   UNL     1      34.889 -18.301 -21.624  0.00  0.00    +0.000 C 
ENDROOT
BRANCH   1   2
ATOM      2  C   UNL     1      35.601 -18.315 -22.980  0.00  0.00    +0.000 C 
BRANCH   2   3
ATOM      3  C   UNL     1      34.866 -19.143 -24.039  0.00  0.00    +0.000 C 
BRANCH   3   4
ATOM      4  C   UNL     1      34.247 -18.290 -25.149  0.00  0.00    +0.001 C 
BRANCH   4   5
ATOM      5  C   UNL     1      34.809 -16.863 -25.202  0.00  0.00    +0.011 C 
BRANCH   5   6
ATOM      6  C   UNL     1      33.788 -15.726 -25.115  0.00  0.00    +0.053 C 
BRANCH   6   7
ATOM      7  S   UNL     1      33.630 -15.026 -23.446  0.00  0.00    -0.168 S 
ATOM      8  H   UNL     1      32.340 -15.133 -23.030  0.00  0.00    +0.102 HD
ENDBRANCH   6   7
ENDBRANCH   5   6
ENDBRANCH   4   5
ENDBRANCH   3   4
ENDBRANCH   2   3
ENDBRANCH   1   2
BRANCH   1   9
ATOM      9  C   UNL     1      34.874 -19.670 -20.935  0.00  0.00    +0.000 C 
BRANCH   9  10
ATOM     10  C   UNL     1      33.491 -20.212 -20.557  0.00  0.00    +0.001 C 
BRANCH  10  11
ATOM     11  C   UNL     1      33.535 -21.278 -19.458  0.00  0.00    +0.012 C 
BRANCH  11  12
ATOM     12  C   UNL     1      34.804 -22.125 -19.520  0.00  0.00    +0.109 C 
BRANCH  12  14
ATOM     13  O   UNL     1      35.452 -22.746 -17.276  0.00  0.00    -0.250 OA
ATOM     14  C   UNL     1      35.623 -22.032 -18.256  0.00  0.00    +0.314 C 
BRANCH  14  15
ATOM     15  O   UNL     1      36.572 -21.066 -18.320  0.00  0.00    -0.480 OA
ATOM     16  H   UNL     1      36.442 -20.251 -17.875  0.00  0.00    +0.295 HD
ENDBRANCH  14  15
ENDBRANCH  12  14
ENDBRANCH  11  12
ENDBRANCH  10  11
ENDBRANCH   9  10
ENDBRANCH   1   9
TORSDOF 12
ENDMDL
MODEL 5
REMARK VINA RESULT:      -5.9      1.021      1.509
REMARK  Name = 543502
REMARK  12 active torsions:
REMARK  status: ('A' for Active; 'I' for Inactive)
REMARK    1  A    between atoms: C_1  and  C_2
REMARK    2  A    between atoms: C_1  and  C_9
REMARK    3  A    between atoms: C_2  and  C_3
REMARK    4  A    between atoms: C_3  and  C_4
REMARK    5  A    between atoms: C_4  and  C_5
REMARK    6  A    between atoms: C_5  and  C_6
REMARK    7  A    between atoms: C_6  and  S_7
REMARK    8  A    between atoms: C_9  and  C_10
REMARK    9  A    between atoms: C_10  and  C_11
REMARK   10  A    between atoms: C_11  and  C_12
REMARK   11  A    between atoms: C_12  and  C_14
REMARK   12  A    between atoms: C_14  and  O_15
REMARK                            x       y       z     vdW  Elec       q    Type
REMARK                         _______ _______ _______ _____ _____    ______ ____
ROOT
ATOM      1  C   UNL     1      33.760 -23.176 -16.402  0.00  0.00    +0.000 C 
ENDROOT
BRANCH   1   2
ATOM      2  C   UNL     1      33.407 -23.244 -17.891  0.00  0.00    +0.000 C 
BRANCH   2   3
ATOM      3  C   UNL     1      34.196 -22.243 -18.744  0.00  0.00    +0.000 C 
BRANCH   3   4
ATOM      4  C   UNL     1      33.337 -21.544 -19.800  0.00  0.00    +0.001 C 
BRANCH   4   5
ATOM      5  C   UNL     1      33.933 -20.218 -20.288  0.00  0.00    +0.011 C 
BRANCH   5   6
ATOM      6  C   UNL     1      35.416 -20.236 -20.664  0.00  0.00    +0.053 C 
BRANCH   6   7
ATOM      7  S   UNL     1      36.003 -18.663 -21.359  0.00  0.00    -0.168 S 
ATOM      8  H   UNL     1      37.110 -18.887 -22.115  0.00  0.00    +0.102 HD
ENDBRANCH   6   7
ENDBRANCH   5   6
ENDBRANCH   4   5
ENDBRANCH   3   4
ENDBRANCH   2   3
ENDBRANCH   1   2
BRANCH   1   9
ATOM      9  C   UNL     1      32.562 -23.441 -15.484  0.00  0.00    +0.000 C 
BRANCH   9  10
ATOM     10  C   UNL     1      31.188 -23.069 -16.055  0.00  0.00    +0.001 C 
BRANCH  10  11
ATOM     11  C   UNL     1      30.131 -24.158 -15.854  0.00  0.00    +0.012 C 
BRANCH  11  12
ATOM     12  C   UNL     1      28.744 -23.580 -15.583  0.00  0.00    +0.109 C 
BRANCH  12  14
ATOM     13  O   UNL     1      27.606 -23.888 -17.693  0.00  0.00    -0.250 OA
ATOM     14  C   UNL     1      28.051 -23.126 -16.844  0.00  0.00    +0.314 C 
BRANCH  14  15
ATOM     15  O   UNL     1      27.976 -21.775 -16.941  0.00  0.00    -0.480 OA
ATOM     16  H   UNL     1      27.644 -21.379 -17.722  0.00  0.00    +0.295 HD
ENDBRANCH  14  15
ENDBRANCH  12  14
ENDBRANCH  11  12
ENDBRANCH  10  11
ENDBRANCH   9  10
ENDBRANCH   1   9
TORSDOF 12
ENDMDL
MODEL 6
REMARK VINA RESULT:      -5.9      5.004      6.039
REMARK  Name = 543502
REMARK  12 active torsions:
REMARK  status: ('A' for Active; 'I' for Inactive)
REMARK    1  A    between atoms: C_1  and  C_2
REMARK    2  A    between atoms: C_1  and  C_9
REMARK    3  A    between atoms: C_2  and  C_3
REMARK    4  A    between atoms: C_3  and  C_4
REMARK    5  A    between atoms: C_4  and  C_5
REMARK    6  A    between atoms: C_5  and  C_6
REMARK    7  A    between atoms: C_6  and  S_7
REMARK    8  A    between atoms: C_9  and  C_10
REMARK    9  A    between atoms: C_10  and  C_11
REMARK   10  A    between atoms: C_11  and  C_12
REMARK   11  A    between atoms: C_12  and  C_14
REMARK   12  A    between atoms: C_14  and  O_15
REMARK                            x       y       z     vdW  Elec       q    Type
REMARK                         _______ _______ _______ _____ _____    ______ ____
ROOT
ATOM      1  C   UNL     1      34.333 -22.159 -19.573  0.00  0.00    +0.000 C 
ENDROOT
BRANCH   1   2
ATOM      2  C   UNL     1      33.093 -21.261 -19.511  0.00  0.00    +0.000 C 
BRANCH   2   3
ATOM      3  C   UNL     1      33.143 -20.095 -20.505  0.00  0.00    +0.000 C 
BRANCH   3   4
ATOM      4  C   UNL     1      34.561 -19.767 -20.979  0.00  0.00    +0.001 C 
BRANCH   4   5
ATOM      5  C   UNL     1      34.610 -19.218 -22.411  0.00  0.00    +0.011 C 
BRANCH   5   6
ATOM      6  C   UNL     1      35.263 -17.846 -22.592  0.00  0.00    +0.053 C 
BRANCH   6   7
ATOM      7  S   UNL     1      34.793 -16.649 -21.309  0.00  0.00    -0.168 S 
ATOM      8  H   UNL     1      34.754 -15.401 -21.846  0.00  0.00    +0.102 HD
ENDBRANCH   6   7
ENDBRANCH   5   6
ENDBRANCH   4   5
ENDBRANCH   3   4
ENDBRANCH   2   3
ENDBRANCH   1   2
BRANCH   1   9
ATOM      9  C   UNL     1      35.114 -22.204 -18.256  0.00  0.00    +0.000 C 
BRANCH   9  10
ATOM     10  C   UNL     1      36.512 -21.577 -18.287  0.00  0.00    +0.001 C 
BRANCH  10  11
ATOM     11  C   UNL     1      37.210 -21.577 -16.923  0.00  0.00    +0.012 C 
BRANCH  11  12
ATOM     12  C   UNL     1      36.646 -22.638 -15.982  0.00  0.00    +0.109 C 
BRANCH  12  14
ATOM     13  O   UNL     1      37.618 -23.419 -13.912  0.00  0.00    -0.250 OA
ATOM     14  C   UNL     1      37.711 -23.275 -15.125  0.00  0.00    +0.314 C 
BRANCH  14  15
ATOM     15  O   UNL     1      38.792 -23.671 -15.842  0.00  0.00    -0.480 OA
ATOM     16  H   UNL     1      38.835 -24.544 -16.181  0.00  0.00    +0.295 HD
ENDBRANCH  14  15
ENDBRANCH  12  14
ENDBRANCH  11  12
ENDBRANCH  10  11
ENDBRANCH   9  10
ENDBRANCH   1   9
TORSDOF 12
ENDMDL
MODEL 7
REMARK VINA RESULT:      -5.9      5.982      7.980
REMARK  Name = 543502
REMARK  12 active torsions:
REMARK  status: ('A' for Active; 'I' for Inactive)
REMARK    1  A    between atoms: C_1  and  C_2
REMARK    2  A    between atoms: C_1  and  C_9
REMARK    3  A    between atoms: C_2  and  C_3
REMARK    4  A    between atoms: C_3  and  C_4
REMARK    5  A    between atoms: C_4  and  C_5
REMARK    6  A    between atoms: C_5  and  C_6
REMARK    7  A    between atoms: C_6  and  S_7
REMARK    8  A    between atoms: C_9  and  C_10
REMARK    9  A    between atoms: C_10  and  C_11
REMARK   10  A    between atoms: C_11  and  C_12
REMARK   11  A    between atoms: C_12  and  C_14
REMARK   12  A    between atoms: C_14  and  O_15
REMARK                            x       y       z     vdW  Elec       q    Type
REMARK                         _______ _______ _______ _____ _____    ______ ____
ROOT
ATOM      1  C   UNL     1      33.418 -21.194 -19.754  0.00  0.00    +0.000 C 
ENDROOT
BRANCH   1   2
ATOM      2  C   UNL     1      34.919 -21.489 -19.693  0.00  0.00    +0.000 C 
BRANCH   2   3
ATOM      3  C   UNL     1      35.371 -22.039 -18.335  0.00  0.00    +0.000 C 
BRANCH   3   4
ATOM      4  C   UNL     1      36.753 -21.537 -17.911  0.00  0.00    +0.001 C 
BRANCH   4   5
ATOM      5  C   UNL     1      37.272 -22.198 -16.628  0.00  0.00    +0.011 C 
BRANCH   5   6
ATOM      6  C   UNL     1      36.262 -23.027 -15.833  0.00  0.00    +0.053 C 
BRANCH   6   7
ATOM      7  S   UNL     1      37.037 -24.251 -14.736  0.00  0.00    -0.168 S 
ATOM      8  H   UNL     1      36.506 -24.142 -13.490  0.00  0.00    +0.102 HD
ENDBRANCH   6   7
ENDBRANCH   5   6
ENDBRANCH   4   5
ENDBRANCH   3   4
ENDBRANCH   2   3
ENDBRANCH   1   2
BRANCH   1   9
ATOM      9  C   UNL     1      33.079 -19.948 -20.580  0.00  0.00    +0.000 C 
BRANCH   9  10
ATOM     10  C   UNL     1      34.277 -19.133 -21.081  0.00  0.00    +0.001 C 
BRANCH  10  11
ATOM     11  C   UNL     1      34.511 -19.260 -22.589  0.00  0.00    +0.012 C 
BRANCH  11  12
ATOM     12  C   UNL     1      35.617 -18.332 -23.086  0.00  0.00    +0.109 C 
BRANCH  12  14
ATOM     13  O   UNL     1      34.320 -17.413 -24.906  0.00  0.00    -0.250 OA
ATOM     14  C   UNL     1      35.093 -17.231 -23.974  0.00  0.00    +0.314 C 
BRANCH  14  15
ATOM     15  O   UNL     1      35.575 -16.010 -23.631  0.00  0.00    -0.480 OA
ATOM     16  H   UNL     1      35.755 -15.374 -24.296  0.00  0.00    +0.295 HD
ENDBRANCH  14  15
ENDBRANCH  12  14
ENDBRANCH  11  12
ENDBRANCH  10  11
ENDBRANCH   9  10
ENDBRANCH   1   9
TORSDOF 12
ENDMDL
MODEL 8
REMARK VINA RESULT:      -5.8      5.570      8.085
REMARK  Name = 543502
REMARK  12 active torsions:
REMARK  status: ('A' for Active; 'I' for Inactive)
REMARK    1  A    between atoms: C_1  and  C_2
REMARK    2  A    between atoms: C_1  and  C_9
REMARK    3  A    between atoms: C_2  and  C_3
REMARK    4  A    between atoms: C_3  and  C_4
REMARK    5  A    between atoms: C_4  and  C_5
REMARK    6  A    between atoms: C_5  and  C_6
REMARK    7  A    between atoms: C_6  and  S_7
REMARK    8  A    between atoms: C_9  and  C_10
REMARK    9  A    between atoms: C_10  and  C_11
REMARK   10  A    between atoms: C_11  and  C_12
REMARK   11  A    between atoms: C_12  and  C_14
REMARK   12  A    between atoms: C_14  and  O_15
REMARK                            x       y       z     vdW  Elec       q    Type
REMARK                         _______ _______ _______ _____ _____    ______ ____
ROOT
ATOM      1  C   UNL     1      33.270 -20.510 -20.221  0.00  0.00    +0.000 C 
ENDROOT
BRANCH   1   2
ATOM      2  C   UNL     1      34.377 -21.326 -19.548  0.00  0.00    +0.000 C 
BRANCH   2   3
ATOM      3  C   UNL     1      33.945 -22.755 -19.196  0.00  0.00    +0.000 C 
BRANCH   3   4
ATOM      4  C   UNL     1      33.132 -22.836 -17.901  0.00  0.00    +0.001 C 
BRANCH   4   5
ATOM      5  C   UNL     1      33.985 -23.165 -16.669  0.00  0.00    +0.011 C 
BRANCH   5   6
ATOM      6  C   UNL     1      33.226 -23.469 -15.377  0.00  0.00    +0.053 C 
BRANCH   6   7
ATOM      7  S   UNL     1      31.440 -23.155 -15.499  0.00  0.00    -0.168 S 
ATOM      8  H   UNL     1      31.138 -22.000 -14.849  0.00  0.00    +0.102 HD
ENDBRANCH   6   7
ENDBRANCH   5   6
ENDBRANCH   4   5
ENDBRANCH   3   4
ENDBRANCH   2   3
ENDBRANCH   1   2
BRANCH   1   9
ATOM      9  C   UNL     1      33.803 -19.466 -21.208  0.00  0.00    +0.000 C 
BRANCH   9  10
ATOM     10  C   UNL     1      35.326 -19.288 -21.234  0.00  0.00    +0.001 C 
BRANCH  10  11
ATOM     11  C   UNL     1      35.819 -18.444 -22.414  0.00  0.00    +0.012 C 
BRANCH  11  12
ATOM     12  C   UNL     1      35.011 -18.692 -23.685  0.00  0.00    +0.109 C 
BRANCH  12  14
ATOM     13  O   UNL     1      34.603 -17.502 -25.748  0.00  0.00    -0.250 OA
ATOM     14  C   UNL     1      34.939 -17.473 -24.571  0.00  0.00    +0.314 C 
BRANCH  14  15
ATOM     15  O   UNL     1      35.294 -16.335 -23.924  0.00  0.00    -0.480 OA
ATOM     16  H   UNL     1      34.633 -15.747 -23.616  0.00  0.00    +0.295 HD
ENDBRANCH  14  15
ENDBRANCH  12  14
ENDBRANCH  11  12
ENDBRANCH  10  11
ENDBRANCH   9  10
ENDBRANCH   1   9
TORSDOF 12
ENDMDL
MODEL 9
REMARK VINA RESULT:      -5.8      5.466      8.538
REMARK  Name = 543502
REMARK  12 active torsions:
REMARK  status: ('A' for Active; 'I' for Inactive)
REMARK    1  A    between atoms: C_1  and  C_2
REMARK    2  A    between atoms: C_1  and  C_9
REMARK    3  A    between atoms: C_2  and  C_3
REMARK    4  A    between atoms: C_3  and  C_4
REMARK    5  A    between atoms: C_4  and  C_5
REMARK    6  A    between atoms: C_5  and  C_6
REMARK    7  A    between atoms: C_6  and  S_7
REMARK    8  A    between atoms: C_9  and  C_10
REMARK    9  A    between atoms: C_10  and  C_11
REMARK   10  A    between atoms: C_11  and  C_12
REMARK   11  A    between atoms: C_12  and  C_14
REMARK   12  A    between atoms: C_14  and  O_15
REMARK                            x       y       z     vdW  Elec       q    Type
REMARK                         _______ _______ _______ _____ _____    ______ ____
ROOT
ATOM      1  C   UNL     1      34.444 -18.235 -25.141  0.00  0.00    +0.000 C 
ENDROOT
BRANCH   1   2
ATOM      2  C   UNL     1      34.659 -18.995 -23.828  0.00  0.00    +0.000 C 
BRANCH   2   3
ATOM      3  C   UNL     1      35.776 -18.400 -22.963  0.00  0.00    +0.000 C 
BRANCH   3   4
ATOM      4  C   UNL     1      35.537 -18.580 -21.462  0.00  0.00    +0.001 C 
BRANCH   4   5
ATOM      5  C   UNL     1      34.130 -19.093 -21.130  0.00  0.00    +0.011 C 
BRANCH   5   6
ATOM      6  C   UNL     1      34.051 -20.395 -20.330  0.00  0.00    +0.053 C 
BRANCH   6   7
ATOM      7  S   UNL     1      35.679 -21.107 -19.951  0.00  0.00    -0.168 S 
ATOM      8  H   UNL     1      35.532 -22.414 -19.608  0.00  0.00    +0.102 HD
ENDBRANCH   6   7
ENDBRANCH   5   6
ENDBRANCH   4   5
ENDBRANCH   3   4
ENDBRANCH   2   3
ENDBRANCH   1   2
BRANCH   1   9
ATOM      9  C   UNL     1      34.824 -16.754 -25.052  0.00  0.00    +0.000 C 
BRANCH   9  10
ATOM     10  C   UNL     1      33.657 -15.761 -25.103  0.00  0.00    +0.001 C 
BRANCH  10  11
ATOM     11  C   UNL     1      33.629 -14.792 -23.917  0.00  0.00    +0.012 C 
BRANCH  11  12
ATOM     12  C   UNL     1      34.636 -15.171 -22.833  0.00  0.00    +0.109 C 
BRANCH  12  14
ATOM     13  O   UNL     1      32.820 -15.707 -21.332  0.00  0.00    -0.250 OA
ATOM     14  C   UNL     1      33.987 -15.371 -21.486  0.00  0.00    +0.314 C 
BRANCH  14  15
ATOM     15  O   UNL     1      34.838 -15.134 -20.457  0.00  0.00    -0.480 OA
ATOM     16  H   UNL     1      34.499 -14.934 -19.606  0.00  0.00    +0.295 HD
ENDBRANCH  14  15
ENDBRANCH  12  14
ENDBRANCH  11  12
ENDBRANCH  10  11
ENDBRANCH   9  10
ENDBRANCH   1   9
TORSDOF 12
ENDMDL
