MODEL 1
REMARK VINA RESULT:     -10.2      0.000      0.000
REMARK  Name = 3825
REMARK  5 active torsions:
REMARK  status: ('A' for Active; 'I' for Inactive)
REMARK    1  A    between atoms: C_1  and  C_15
REMARK    2  A    between atoms: C_3  and  C_8
REMARK    3  A    between atoms: C_8  and  C_9
REMARK    4  A    between atoms: C_15  and  C_18
REMARK    5  A    between atoms: C_18  and  O_19
REMARK                            x       y       z     vdW  Elec       q    Type
REMARK                         _______ _______ _______ _____ _____    ______ ____
ROOT
ATOM      1  C   UNL     1      34.329 -15.649 -23.262  0.00  0.00    -0.012 C 
ATOM      2  C   UNL     1      34.887 -16.528 -22.333  0.00  0.00    -0.001 C 
ATOM      3  C   UNL     1      35.261 -17.781 -22.757  0.00  0.00    +0.039 C 
ATOM      4  C   UNL     1      34.162 -16.049 -24.588  0.00  0.00    -0.004 C 
ATOM      5  C   UNL     1      35.111 -18.207 -24.055  0.00  0.00    +0.003 C 
ATOM      6  C   UNL     1      34.553 -17.328 -24.984  0.00  0.00    -0.000 C 
ENDROOT
BRANCH   3   8
ATOM      7  O   UNL     1      37.090 -18.691 -21.617  0.00  0.00    -0.287 OA
ATOM      8  C   UNL     1      35.860 -18.722 -21.762  0.00  0.00    +0.196 C 
BRANCH   8   9
ATOM      9  C   UNL     1      35.053 -19.647 -20.980  0.00  0.00    +0.039 C 
ATOM     10  C   UNL     1      35.669 -20.671 -20.260  0.00  0.00    +0.003 C 
ATOM     11  C   UNL     1      33.666 -19.510 -20.951  0.00  0.00    +0.003 C 
ATOM     12  C   UNL     1      34.896 -21.557 -19.510  0.00  0.00    +0.000 C 
ATOM     13  C   UNL     1      32.893 -20.397 -20.201  0.00  0.00    +0.000 C 
ATOM     14  C   UNL     1      33.508 -21.420 -19.480  0.00  0.00    +0.000 C 
ENDBRANCH   8   9
ENDBRANCH   3   8
BRANCH   1  15
ATOM     15  C   UNL     1      33.911 -14.281 -22.840  0.00  0.00    +0.121 C 
ATOM     16  C   UNL     1      33.855 -13.260 -23.994  0.00  0.00    +0.016 C 
BRANCH  15  18
ATOM     17  O   UNL     1      32.121 -15.194 -21.452  0.00  0.00    -0.250 OA
ATOM     18  C   UNL     1      32.555 -14.269 -22.125  0.00  0.00    +0.317 C 
BRANCH  18  19
ATOM     19  O   UNL     1      31.861 -13.116 -22.318  0.00  0.00    -0.480 OA
ATOM     20  H   UNL     1      32.213 -12.443 -22.866  0.00  0.00    +0.295 HD
ENDBRANCH  18  19
ENDBRANCH  15  18
ENDBRANCH   1  15
TORSDOF 5
ENDMDL
MODEL 2
REMARK VINA RESULT:     -10.1      5.406      9.238
REMARK  Name = 3825
REMARK  5 active torsions:
REMARK  status: ('A' for Active; 'I' for Inactive)
REMARK    1  A    between atoms: C_1  and  C_15
REMARK    2  A    between atoms: C_3  and  C_8
REMARK    3  A    between atoms: C_8  and  C_9
REMARK    4  A    between atoms: C_15  and  C_18
REMARK    5  A    between atoms: C_18  and  O_19
REMARK                            x       y       z     vdW  Elec       q    Type
REMARK                         _______ _______ _______ _____ _____    ______ ____
ROOT
ATOM      1  C   UNL     1      32.175 -23.284 -15.483  0.00  0.00    -0.012 C 
ATOM      2  C   UNL     1      32.370 -23.221 -16.863  0.00  0.00    -0.001 C 
ATOM      3  C   UNL     1      33.653 -23.105 -17.342  0.00  0.00    +0.039 C 
ATOM      4  C   UNL     1      33.271 -23.230 -14.621  0.00  0.00    -0.004 C 
ATOM      5  C   UNL     1      34.754 -23.048 -16.520  0.00  0.00    +0.003 C 
ATOM      6  C   UNL     1      34.560 -23.112 -15.140  0.00  0.00    -0.000 C 
ENDROOT
BRANCH   3   8
ATOM      7  O   UNL     1      33.890 -24.110 -19.440  0.00  0.00    -0.287 OA
ATOM      8  C   UNL     1      33.862 -23.037 -18.820  0.00  0.00    +0.196 C 
BRANCH   8   9
ATOM      9  C   UNL     1      34.026 -21.777 -19.528  0.00  0.00    +0.039 C 
ATOM     10  C   UNL     1      35.304 -21.328 -19.863  0.00  0.00    +0.003 C 
ATOM     11  C   UNL     1      32.908 -21.019 -19.871  0.00  0.00    +0.003 C 
ATOM     12  C   UNL     1      35.462 -20.120 -20.542  0.00  0.00    +0.000 C 
ATOM     13  C   UNL     1      33.066 -19.810 -20.551  0.00  0.00    +0.000 C 
ATOM     14  C   UNL     1      34.343 -19.361 -20.886  0.00  0.00    +0.000 C 
ENDBRANCH   8   9
ENDBRANCH   3   8
BRANCH   1  15
ATOM     15  C   UNL     1      30.797 -23.411 -14.928  0.00  0.00    +0.121 C 
ATOM     16  C   UNL     1      29.681 -23.151 -15.960  0.00  0.00    +0.016 C 
BRANCH  15  18
ATOM     17  O   UNL     1      30.291 -25.801 -14.906  0.00  0.00    -0.250 OA
ATOM     18  C   UNL     1      30.541 -24.778 -14.282  0.00  0.00    +0.317 C 
BRANCH  18  19
ATOM     19  O   UNL     1      30.612 -24.749 -12.925  0.00  0.00    -0.480 OA
ATOM     20  H   UNL     1      29.917 -25.111 -12.412  0.00  0.00    +0.295 HD
ENDBRANCH  18  19
ENDBRANCH  15  18
ENDBRANCH   1  15
TORSDOF 5
ENDMDL
MODEL 3
REMARK VINA RESULT:      -9.7      4.865      9.250
REMARK  Name = 3825
REMARK  5 active torsions:
REMARK  status: ('A' for Active; 'I' for Inactive)
REMARK    1  A    between atoms: C_1  and  C_15
REMARK    2  A    between atoms: C_3  and  C_8
REMARK    3  A    between atoms: C_8  and  C_9
REMARK    4  A    between atoms: C_15  and  C_18
REMARK    5  A    between atoms: C_18  and  O_19
REMARK                            x       y       z     vdW  Elec       q    Type
REMARK                         _______ _______ _______ _____ _____    ______ ____
ROOT
ATOM      1  C   UNL     1      34.565 -23.230 -15.334  0.00  0.00    -0.012 C 
ATOM      2  C   UNL     1      34.775 -23.125 -16.709  0.00  0.00    -0.001 C 
ATOM      3  C   UNL     1      33.680 -23.040 -17.536  0.00  0.00    +0.039 C 
ATOM      4  C   UNL     1      33.266 -23.246 -14.826  0.00  0.00    -0.004 C 
ATOM      5  C   UNL     1      32.387 -23.053 -17.068  0.00  0.00    +0.003 C 
ATOM      6  C   UNL     1      32.177 -23.157 -15.693  0.00  0.00    -0.000 C 
ENDROOT
BRANCH   3   8
ATOM      7  O   UNL     1      33.913 -23.979 -19.666  0.00  0.00    -0.287 OA
ATOM      8  C   UNL     1      33.905 -22.927 -19.010  0.00  0.00    +0.196 C 
BRANCH   8   9
ATOM      9  C   UNL     1      34.106 -21.648 -19.672  0.00  0.00    +0.039 C 
ATOM     10  C   UNL     1      33.005 -20.881 -20.056  0.00  0.00    +0.003 C 
ATOM     11  C   UNL     1      35.398 -21.189 -19.925  0.00  0.00    +0.003 C 
ATOM     12  C   UNL     1      33.198 -19.655 -20.691  0.00  0.00    +0.000 C 
ATOM     13  C   UNL     1      35.590 -19.962 -20.560  0.00  0.00    +0.000 C 
ATOM     14  C   UNL     1      34.490 -19.194 -20.943  0.00  0.00    +0.000 C 
ENDBRANCH   8   9
ENDBRANCH   3   8
BRANCH   1  15
ATOM     15  C   UNL     1      35.729 -23.324 -14.406  0.00  0.00    +0.121 C 
ATOM     16  C   UNL     1      35.501 -24.275 -13.213  0.00  0.00    +0.016 C 
BRANCH  15  18
ATOM     17  O   UNL     1      37.954 -22.995 -15.357  0.00  0.00    -0.250 OA
ATOM     18  C   UNL     1      37.021 -23.748 -15.115  0.00  0.00    +0.317 C 
BRANCH  18  19
ATOM     19  O   UNL     1      37.031 -25.062 -15.463  0.00  0.00    -0.480 OA
ATOM     20  H   UNL     1      37.621 -25.366 -16.125  0.00  0.00    +0.295 HD
ENDBRANCH  18  19
ENDBRANCH  15  18
ENDBRANCH   1  15
TORSDOF 5
ENDMDL
MODEL 4
REMARK VINA RESULT:      -9.6      1.406      2.205
REMARK  Name = 3825
REMARK  5 active torsions:
REMARK  status: ('A' for Active; 'I' for Inactive)
REMARK    1  A    between atoms: C_1  and  C_15
REMARK    2  A    between atoms: C_3  and  C_8
REMARK    3  A    between atoms: C_8  and  C_9
REMARK    4  A    between atoms: C_15  and  C_18
REMARK    5  A    between atoms: C_18  and  O_19
REMARK                            x       y       z     vdW  Elec       q    Type
REMARK                         _______ _______ _______ _____ _____    ______ ____
ROOT
ATOM      1  C   UNL     1      34.295 -14.948 -22.939  0.00  0.00    -0.012 C 
ATOM      2  C   UNL     1      34.473 -16.313 -23.165  0.00  0.00    -0.001 C 
ATOM      3  C   UNL     1      34.715 -17.131 -22.088  0.00  0.00    +0.039 C 
ATOM      4  C   UNL     1      34.364 -14.441 -21.641  0.00  0.00    -0.004 C 
ATOM      5  C   UNL     1      34.789 -16.664 -20.796  0.00  0.00    +0.003 C 
ATOM      6  C   UNL     1      34.611 -15.300 -20.570  0.00  0.00    -0.000 C 
ENDROOT
BRANCH   3   8
ATOM      7  O   UNL     1      35.287 -18.939 -23.458  0.00  0.00    -0.287 OA
ATOM      8  C   UNL     1      34.905 -18.594 -22.330  0.00  0.00    +0.196 C 
BRANCH   8   9
ATOM      9  C   UNL     1      34.662 -19.593 -21.301  0.00  0.00    +0.039 C 
ATOM     10  C   UNL     1      35.736 -20.247 -20.697  0.00  0.00    +0.003 C 
ATOM     11  C   UNL     1      33.356 -19.897 -20.919  0.00  0.00    +0.003 C 
ATOM     12  C   UNL     1      35.503 -21.204 -19.710  0.00  0.00    +0.000 C 
ATOM     13  C   UNL     1      33.123 -20.854 -19.931  0.00  0.00    +0.000 C 
ATOM     14  C   UNL     1      34.197 -21.508 -19.326  0.00  0.00    +0.000 C 
ENDBRANCH   8   9
ENDBRANCH   3   8
BRANCH   1  15
ATOM     15  C   UNL     1      34.029 -14.029 -24.084  0.00  0.00    +0.121 C 
ATOM     16  C   UNL     1      33.093 -14.622 -25.157  0.00  0.00    +0.016 C 
BRANCH  15  18
ATOM     17  O   UNL     1      32.369 -12.538 -23.091  0.00  0.00    -0.250 OA
ATOM     18  C   UNL     1      33.453 -12.679 -23.640  0.00  0.00    +0.317 C 
BRANCH  18  19
ATOM     19  O   UNL     1      34.271 -11.631 -23.924  0.00  0.00    -0.480 OA
ATOM     20  H   UNL     1      33.973 -10.943 -24.486  0.00  0.00    +0.295 HD
ENDBRANCH  18  19
ENDBRANCH  15  18
ENDBRANCH   1  15
TORSDOF 5
ENDMDL
MODEL 5
REMARK VINA RESULT:      -9.6      2.373      6.748
REMARK  Name = 3825
REMARK  5 active torsions:
REMARK  status: ('A' for Active; 'I' for Inactive)
REMARK    1  A    between atoms: C_1  and  C_15
REMARK    2  A    between atoms: C_3  and  C_8
REMARK    3  A    between atoms: C_8  and  C_9
REMARK    4  A    between atoms: C_15  and  C_18
REMARK    5  A    between atoms: C_18  and  O_19
REMARK                            x       y       z     vdW  Elec       q    Type
REMARK                         _______ _______ _______ _____ _____    ______ ____
ROOT
ATOM      1  C   UNL     1      34.733 -21.072 -19.811  0.00  0.00    -0.012 C 
ATOM      2  C   UNL     1      35.509 -20.225 -20.601  0.00  0.00    -0.001 C 
ATOM      3  C   UNL     1      34.879 -19.239 -21.323  0.00  0.00    +0.039 C 
ATOM      4  C   UNL     1      33.348 -20.909 -19.765  0.00  0.00    -0.004 C 
ATOM      5  C   UNL     1      33.516 -19.052 -21.301  0.00  0.00    +0.003 C 
ATOM      6  C   UNL     1      32.740 -19.899 -20.510  0.00  0.00    -0.000 C 
ENDROOT
BRANCH   3   8
ATOM      7  O   UNL     1      36.941 -18.412 -22.052  0.00  0.00    -0.287 OA
ATOM      8  C   UNL     1      35.710 -18.331 -22.171  0.00  0.00    +0.196 C 
BRANCH   8   9
ATOM      9  C   UNL     1      35.124 -17.383 -23.105  0.00  0.00    +0.039 C 
ATOM     10  C   UNL     1      34.828 -17.781 -24.409  0.00  0.00    +0.003 C 
ATOM     11  C   UNL     1      34.859 -16.075 -22.698  0.00  0.00    +0.003 C 
ATOM     12  C   UNL     1      34.265 -16.872 -25.304  0.00  0.00    +0.000 C 
ATOM     13  C   UNL     1      34.295 -15.167 -23.595  0.00  0.00    +0.000 C 
ATOM     14  C   UNL     1      33.999 -15.565 -24.898  0.00  0.00    +0.000 C 
ENDBRANCH   8   9
ENDBRANCH   3   8
BRANCH   1  15
ATOM     15  C   UNL     1      35.382 -22.152 -19.012  0.00  0.00    +0.121 C 
ATOM     16  C   UNL     1      36.457 -21.643 -18.030  0.00  0.00    +0.016 C 
BRANCH  15  18
ATOM     17  O   UNL     1      34.098 -22.816 -17.044  0.00  0.00    -0.250 OA
ATOM     18  C   UNL     1      34.373 -22.994 -18.222  0.00  0.00    +0.317 C 
BRANCH  18  19
ATOM     19  O   UNL     1      33.805 -23.981 -18.964  0.00  0.00    -0.480 OA
ATOM     20  H   UNL     1      34.139 -24.855 -18.915  0.00  0.00    +0.295 HD
ENDBRANCH  18  19
ENDBRANCH  15  18
ENDBRANCH   1  15
TORSDOF 5
ENDMDL
MODEL 6
REMARK VINA RESULT:      -9.6      1.915      2.797
REMARK  Name = 3825
REMARK  5 active torsions:
REMARK  status: ('A' for Active; 'I' for Inactive)
REMARK    1  A    between atoms: C_1  and  C_15
REMARK    2  A    between atoms: C_3  and  C_8
REMARK    3  A    between atoms: C_8  and  C_9
REMARK    4  A    between atoms: C_15  and  C_18
REMARK    5  A    between atoms: C_18  and  O_19
REMARK                            x       y       z     vdW  Elec       q    Type
REMARK                         _______ _______ _______ _____ _____    ______ ____
ROOT
ATOM      1  C   UNL     1      33.754 -15.120 -23.254  0.00  0.00    -0.012 C 
ATOM      2  C   UNL     1      34.329 -16.389 -23.189  0.00  0.00    -0.001 C 
ATOM      3  C   UNL     1      34.829 -16.823 -21.984  0.00  0.00    +0.039 C 
ATOM      4  C   UNL     1      33.695 -14.321 -22.112  0.00  0.00    -0.004 C 
ATOM      5  C   UNL     1      34.787 -16.060 -20.840  0.00  0.00    +0.003 C 
ATOM      6  C   UNL     1      34.212 -14.792 -20.906  0.00  0.00    -0.000 C 
ENDROOT
BRANCH   3   8
ATOM      7  O   UNL     1      36.490 -18.368 -22.555  0.00  0.00    -0.287 OA
ATOM      8  C   UNL     1      35.445 -18.183 -21.913  0.00  0.00    +0.196 C 
BRANCH   8   9
ATOM      9  C   UNL     1      34.865 -19.262 -21.129  0.00  0.00    +0.039 C 
ATOM     10  C   UNL     1      33.479 -19.375 -21.018  0.00  0.00    +0.003 C 
ATOM     11  C   UNL     1      35.694 -20.183 -20.490  0.00  0.00    +0.003 C 
ATOM     12  C   UNL     1      32.923 -20.410 -20.267  0.00  0.00    +0.000 C 
ATOM     13  C   UNL     1      35.137 -21.219 -19.739  0.00  0.00    +0.000 C 
ATOM     14  C   UNL     1      33.751 -21.333 -19.628  0.00  0.00    +0.000 C 
ENDBRANCH   8   9
ENDBRANCH   3   8
BRANCH   1  15
ATOM     15  C   UNL     1      33.199 -14.617 -24.545  0.00  0.00    +0.121 C 
ATOM     16  C   UNL     1      33.659 -13.190 -24.908  0.00  0.00    +0.016 C 
BRANCH  15  18
ATOM     17  O   UNL     1      34.608 -16.067 -25.916  0.00  0.00    -0.250 OA
ATOM     18  C   UNL     1      33.521 -15.538 -25.728  0.00  0.00    +0.317 C 
BRANCH  18  19
ATOM     19  O   UNL     1      32.468 -15.712 -26.569  0.00  0.00    -0.480 OA
ATOM     20  H   UNL     1      31.634 -15.973 -26.230  0.00  0.00    +0.295 HD
ENDBRANCH  18  19
ENDBRANCH  15  18
ENDBRANCH   1  15
TORSDOF 5
ENDMDL
MODEL 7
REMARK VINA RESULT:      -9.2      2.931      5.525
REMARK  Name = 3825
REMARK  5 active torsions:
REMARK  status: ('A' for Active; 'I' for Inactive)
REMARK    1  A    between atoms: C_1  and  C_15
REMARK    2  A    between atoms: C_3  and  C_8
REMARK    3  A    between atoms: C_8  and  C_9
REMARK    4  A    between atoms: C_15  and  C_18
REMARK    5  A    between atoms: C_18  and  O_19
REMARK                            x       y       z     vdW  Elec       q    Type
REMARK                         _______ _______ _______ _____ _____    ______ ____
ROOT
ATOM      1  C   UNL     1      35.027 -19.817 -20.772  0.00  0.00    -0.012 C 
ATOM      2  C   UNL     1      34.280 -20.892 -20.291  0.00  0.00    -0.001 C 
ATOM      3  C   UNL     1      34.887 -21.788 -19.443  0.00  0.00    +0.039 C 
ATOM      4  C   UNL     1      36.361 -19.668 -20.391  0.00  0.00    -0.004 C 
ATOM      5  C   UNL     1      36.199 -21.670 -19.048  0.00  0.00    +0.003 C 
ATOM      6  C   UNL     1      36.946 -20.595 -19.529  0.00  0.00    -0.000 C 
ENDROOT
BRANCH   3   8
ATOM      7  O   UNL     1      33.829 -23.855 -19.723  0.00  0.00    -0.287 OA
ATOM      8  C   UNL     1      34.087 -22.940 -18.928  0.00  0.00    +0.196 C 
BRANCH   8   9
ATOM      9  C   UNL     1      33.617 -23.010 -17.553  0.00  0.00    +0.039 C 
ATOM     10  C   UNL     1      32.249 -22.967 -17.280  0.00  0.00    +0.003 C 
ATOM     11  C   UNL     1      34.533 -23.121 -16.507  0.00  0.00    +0.003 C 
ATOM     12  C   UNL     1      31.799 -23.035 -15.963  0.00  0.00    +0.000 C 
ATOM     13  C   UNL     1      34.082 -23.189 -15.189  0.00  0.00    +0.000 C 
ATOM     14  C   UNL     1      32.715 -23.146 -14.916  0.00  0.00    +0.000 C 
ENDBRANCH   8   9
ENDBRANCH   3   8
BRANCH   1  15
ATOM     15  C   UNL     1      34.401 -18.825 -21.693  0.00  0.00    +0.121 C 
ATOM     16  C   UNL     1      34.392 -17.383 -21.146  0.00  0.00    +0.016 C 
BRANCH  15  18
ATOM     17  O   UNL     1      34.851 -19.636 -23.953  0.00  0.00    -0.250 OA
ATOM     18  C   UNL     1      35.057 -18.805 -23.079  0.00  0.00    +0.317 C 
BRANCH  18  19
ATOM     19  O   UNL     1      35.913 -17.763 -23.249  0.00  0.00    -0.480 OA
ATOM     20  H   UNL     1      35.914 -17.285 -24.055  0.00  0.00    +0.295 HD
ENDBRANCH  18  19
ENDBRANCH  15  18
ENDBRANCH   1  15
TORSDOF 5
ENDMDL
MODEL 8
REMARK VINA RESULT:      -9.2      4.779      9.211
REMARK  Name = 3825
REMARK  5 active torsions:
REMARK  status: ('A' for Active; 'I' for Inactive)
REMARK    1  A    between atoms: C_1  and  C_15
REMARK    2  A    between atoms: C_3  and  C_8
REMARK    3  A    between atoms: C_8  and  C_9
REMARK    4  A    between atoms: C_15  and  C_18
REMARK    5  A    between atoms: C_18  and  O_19
REMARK                            x       y       z     vdW  Elec       q    Type
REMARK                         _______ _______ _______ _____ _____    ______ ____
ROOT
ATOM      1  C   UNL     1      35.674 -23.117 -15.621  0.00  0.00    -0.012 C 
ATOM      2  C   UNL     1      34.906 -23.080 -16.784  0.00  0.00    -0.001 C 
ATOM      3  C   UNL     1      35.376 -22.364 -17.859  0.00  0.00    +0.039 C 
ATOM      4  C   UNL     1      36.890 -22.436 -15.565  0.00  0.00    -0.004 C 
ATOM      5  C   UNL     1      36.570 -21.682 -17.838  0.00  0.00    +0.003 C 
ATOM      6  C   UNL     1      37.338 -21.719 -16.674  0.00  0.00    -0.000 C 
ENDROOT
BRANCH   3   8
ATOM      7  O   UNL     1      34.041 -23.388 -19.484  0.00  0.00    -0.287 OA
ATOM      8  C   UNL     1      34.554 -22.324 -19.107  0.00  0.00    +0.196 C 
BRANCH   8   9
ATOM      9  C   UNL     1      34.347 -21.101 -19.866  0.00  0.00    +0.039 C 
ATOM     10  C   UNL     1      33.061 -20.578 -20.009  0.00  0.00    +0.003 C 
ATOM     11  C   UNL     1      35.433 -20.450 -20.451  0.00  0.00    +0.003 C 
ATOM     12  C   UNL     1      32.862 -19.405 -20.736  0.00  0.00    +0.000 C 
ATOM     13  C   UNL     1      35.233 -19.276 -21.178  0.00  0.00    +0.000 C 
ATOM     14  C   UNL     1      33.948 -18.754 -21.321  0.00  0.00    +0.000 C 
ENDBRANCH   8   9
ENDBRANCH   3   8
BRANCH   1  15
ATOM     15  C   UNL     1      35.196 -23.886 -14.435  0.00  0.00    +0.121 C 
ATOM     16  C   UNL     1      33.664 -24.051 -14.373  0.00  0.00    +0.016 C 
BRANCH  15  18
ATOM     17  O   UNL     1      36.118 -25.977 -15.296  0.00  0.00    -0.250 OA
ATOM     18  C   UNL     1      35.831 -25.277 -14.334  0.00  0.00    +0.317 C 
BRANCH  18  19
ATOM     19  O   UNL     1      36.046 -25.674 -13.052  0.00  0.00    -0.480 OA
ATOM     20  H   UNL     1      36.917 -25.699 -12.709  0.00  0.00    +0.295 HD
ENDBRANCH  18  19
ENDBRANCH  15  18
ENDBRANCH   1  15
TORSDOF 5
ENDMDL
MODEL 9
REMARK VINA RESULT:      -9.2      4.858      8.890
REMARK  Name = 3825
REMARK  5 active torsions:
REMARK  status: ('A' for Active; 'I' for Inactive)
REMARK    1  A    between atoms: C_1  and  C_15
REMARK    2  A    between atoms: C_3  and  C_8
REMARK    3  A    between atoms: C_8  and  C_9
REMARK    4  A    between atoms: C_15  and  C_18
REMARK    5  A    between atoms: C_18  and  O_19
REMARK                            x       y       z     vdW  Elec       q    Type
REMARK                         _______ _______ _______ _____ _____    ______ ____
ROOT
ATOM      1  C   UNL     1      34.506 -23.358 -15.437  0.00  0.00    -0.012 C 
ATOM      2  C   UNL     1      34.044 -23.270 -16.750  0.00  0.00    -0.001 C 
ATOM      3  C   UNL     1      34.841 -22.659 -17.688  0.00  0.00    +0.039 C 
ATOM      4  C   UNL     1      35.753 -22.831 -15.100  0.00  0.00    -0.004 C 
ATOM      5  C   UNL     1      36.074 -22.130 -17.390  0.00  0.00    +0.003 C 
ATOM      6  C   UNL     1      36.537 -22.217 -16.077  0.00  0.00    -0.000 C 
ENDROOT
BRANCH   3   8
ATOM      7  O   UNL     1      34.016 -23.622 -19.654  0.00  0.00    -0.287 OA
ATOM      8  C   UNL     1      34.346 -22.566 -19.096  0.00  0.00    +0.196 C 
BRANCH   8   9
ATOM      9  C   UNL     1      34.243 -21.300 -19.804  0.00  0.00    +0.039 C 
ATOM     10  C   UNL     1      32.999 -20.688 -19.961  0.00  0.00    +0.003 C 
ATOM     11  C   UNL     1      35.388 -20.697 -20.326  0.00  0.00    +0.003 C 
ATOM     12  C   UNL     1      32.901 -19.473 -20.640  0.00  0.00    +0.000 C 
ATOM     13  C   UNL     1      35.288 -19.482 -21.004  0.00  0.00    +0.000 C 
ATOM     14  C   UNL     1      34.045 -18.870 -21.161  0.00  0.00    +0.000 C 
ENDBRANCH   8   9
ENDBRANCH   3   8
BRANCH   1  15
ATOM     15  C   UNL     1      33.669 -24.015 -14.392  0.00  0.00    +0.121 C 
ATOM     16  C   UNL     1      34.418 -24.289 -13.072  0.00  0.00    +0.016 C 
BRANCH  15  18
ATOM     17  O   UNL     1      31.547 -22.911 -14.887  0.00  0.00    -0.250 OA
ATOM     18  C   UNL     1      32.398 -23.222 -14.065  0.00  0.00    +0.317 C 
BRANCH  18  19
ATOM     19  O   UNL     1      32.305 -22.883 -12.752  0.00  0.00    -0.480 OA
ATOM     20  H   UNL     1      32.332 -23.549 -12.093  0.00  0.00    +0.295 HD
ENDBRANCH  18  19
ENDBRANCH  15  18
ENDBRANCH   1  15
TORSDOF 5
ENDMDL
