MODEL 1
REMARK VINA RESULT:      -6.7      0.000      0.000
REMARK  Name = 439616
REMARK  4 active torsions:
REMARK  status: ('A' for Active; 'I' for Inactive)
REMARK    1  A    between atoms: C_1  and  C_2
REMARK    2  A    between atoms: C_1  and  O_8
REMARK    3  A    between atoms: C_1  and  C_11
REMARK    4  A    between atoms: C_11  and  O_12
REMARK                            x       y       z     vdW  Elec       q    Type
REMARK                         _______ _______ _______ _____ _____    ______ ____
ROOT
ATOM      1  C   UNL     1      34.329 -18.853 -21.786  0.00  0.00    +0.232 C 
ENDROOT
BRANCH   1   2
ATOM      2  C   UNL     1      34.444 -19.972 -20.806  0.00  0.00    +0.015 C 
ATOM      3  C   UNL     1      33.295 -20.530 -20.246  0.00  0.00    -0.001 C 
ATOM      4  C   UNL     1      35.701 -20.459 -20.448  0.00  0.00    -0.001 C 
ATOM      5  C   UNL     1      33.402 -21.576 -19.330  0.00  0.00    -0.000 C 
ATOM      6  C   UNL     1      35.808 -21.505 -19.531  0.00  0.00    -0.000 C 
ATOM      7  C   UNL     1      34.659 -22.063 -18.972  0.00  0.00    -0.000 C 
ENDBRANCH   1   2
BRANCH   1   8
ATOM      8  O   UNL     1      34.514 -19.346 -23.111  0.00  0.00    -0.371 OA
ATOM      9  H   UNL     1      35.462 -19.395 -23.309  0.00  0.00    +0.211 HD
ENDBRANCH   1   8
BRANCH   1  11
ATOM     10  O   UNL     1      35.376 -17.057 -20.512  0.00  0.00    -0.247 OA
ATOM     11  C   UNL     1      35.327 -17.726 -21.536  0.00  0.00    +0.345 C 
BRANCH  11  12
ATOM     12  O   UNL     1      36.154 -17.510 -22.592  0.00  0.00    -0.478 OA
ATOM     13  H   UNL     1      36.288 -18.184 -23.229  0.00  0.00    +0.295 HD
ENDBRANCH  11  12
ENDBRANCH   1  11
TORSDOF 4
ENDMDL
MODEL 2
REMARK VINA RESULT:      -6.6      0.130      1.462
REMARK  Name = 439616
REMARK  4 active torsions:
REMARK  status: ('A' for Active; 'I' for Inactive)
REMARK    1  A    between atoms: C_1  and  C_2
REMARK    2  A    between atoms: C_1  and  O_8
REMARK    3  A    between atoms: C_1  and  C_11
REMARK    4  A    between atoms: C_11  and  O_12
REMARK                            x       y       z     vdW  Elec       q    Type
REMARK                         _______ _______ _______ _____ _____    ______ ____
ROOT
ATOM      1  C   UNL     1      34.291 -18.765 -21.838  0.00  0.00    +0.232 C 
ENDROOT
BRANCH   1   2
ATOM      2  C   UNL     1      34.417 -19.892 -20.870  0.00  0.00    +0.015 C 
ATOM      3  C   UNL     1      35.675 -20.409 -20.560  0.00  0.00    -0.001 C 
ATOM      4  C   UNL     1      33.276 -20.431 -20.275  0.00  0.00    -0.001 C 
ATOM      5  C   UNL     1      35.793 -21.463 -19.654  0.00  0.00    -0.000 C 
ATOM      6  C   UNL     1      33.394 -21.486 -19.369  0.00  0.00    -0.000 C 
ATOM      7  C   UNL     1      34.652 -22.002 -19.059  0.00  0.00    -0.000 C 
ENDBRANCH   1   2
BRANCH   1   8
ATOM      8  O   UNL     1      34.509 -19.236 -23.166  0.00  0.00    -0.371 OA
ATOM      9  H   UNL     1      34.452 -20.204 -23.180  0.00  0.00    +0.211 HD
ENDBRANCH   1   8
BRANCH   1  11
ATOM     10  O   UNL     1      35.324 -17.010 -20.497  0.00  0.00    -0.247 OA
ATOM     11  C   UNL     1      35.256 -17.617 -21.558  0.00  0.00    +0.345 C 
BRANCH  11  12
ATOM     12  O   UNL     1      36.029 -17.304 -22.631  0.00  0.00    -0.478 OA
ATOM     13  H   UNL     1      35.630 -17.057 -23.441  0.00  0.00    +0.295 HD
ENDBRANCH  11  12
ENDBRANCH   1  11
TORSDOF 4
ENDMDL
MODEL 3
REMARK VINA RESULT:      -6.6      0.806      2.233
REMARK  Name = 439616
REMARK  4 active torsions:
REMARK  status: ('A' for Active; 'I' for Inactive)
REMARK    1  A    between atoms: C_1  and  C_2
REMARK    2  A    between atoms: C_1  and  O_8
REMARK    3  A    between atoms: C_1  and  C_11
REMARK    4  A    between atoms: C_11  and  O_12
REMARK                            x       y       z     vdW  Elec       q    Type
REMARK                         _______ _______ _______ _____ _____    ______ ____
ROOT
ATOM      1  C   UNL     1      35.752 -18.592 -21.391  0.00  0.00    +0.232 C 
ENDROOT
BRANCH   1   2
ATOM      2  C   UNL     1      35.073 -19.736 -20.716  0.00  0.00    +0.015 C 
ATOM      3  C   UNL     1      35.830 -20.767 -20.159  0.00  0.00    -0.001 C 
ATOM      4  C   UNL     1      33.681 -19.776 -20.642  0.00  0.00    -0.001 C 
ATOM      5  C   UNL     1      35.196 -21.836 -19.528  0.00  0.00    -0.000 C 
ATOM      6  C   UNL     1      33.046 -20.846 -20.011  0.00  0.00    -0.000 C 
ATOM      7  C   UNL     1      33.803 -21.876 -19.454  0.00  0.00    -0.000 C 
ENDBRANCH   1   2
BRANCH   1   8
ATOM      8  O   UNL     1      35.374 -17.366 -20.769  0.00  0.00    -0.371 OA
ATOM      9  H   UNL     1      35.316 -16.667 -21.439  0.00  0.00    +0.211 HD
ENDBRANCH   1   8
BRANCH   1  11
ATOM     10  O   UNL     1      35.003 -19.423 -23.557  0.00  0.00    -0.247 OA
ATOM     11  C   UNL     1      35.445 -18.502 -22.882  0.00  0.00    +0.345 C 
BRANCH  11  12
ATOM     12  O   UNL     1      35.744 -17.286 -23.410  0.00  0.00    -0.478 OA
ATOM     13  H   UNL     1      35.948 -16.567 -22.846  0.00  0.00    +0.295 HD
ENDBRANCH  11  12
ENDBRANCH   1  11
TORSDOF 4
ENDMDL
MODEL 4
REMARK VINA RESULT:      -6.4      1.232      1.718
REMARK  Name = 439616
REMARK  4 active torsions:
REMARK  status: ('A' for Active; 'I' for Inactive)
REMARK    1  A    between atoms: C_1  and  C_2
REMARK    2  A    between atoms: C_1  and  O_8
REMARK    3  A    between atoms: C_1  and  C_11
REMARK    4  A    between atoms: C_11  and  O_12
REMARK                            x       y       z     vdW  Elec       q    Type
REMARK                         _______ _______ _______ _____ _____    ______ ____
ROOT
ATOM      1  C   UNL     1      34.807 -17.435 -22.135  0.00  0.00    +0.232 C 
ENDROOT
BRANCH   1   2
ATOM      2  C   UNL     1      34.837 -18.694 -21.334  0.00  0.00    +0.015 C 
ATOM      3  C   UNL     1      33.644 -19.318 -20.970  0.00  0.00    -0.001 C 
ATOM      4  C   UNL     1      36.059 -19.246 -20.950  0.00  0.00    -0.001 C 
ATOM      5  C   UNL     1      33.672 -20.494 -20.222  0.00  0.00    -0.000 C 
ATOM      6  C   UNL     1      36.087 -20.423 -20.201  0.00  0.00    -0.000 C 
ATOM      7  C   UNL     1      34.894 -21.047 -19.837  0.00  0.00    -0.000 C 
ENDBRANCH   1   2
BRANCH   1   8
ATOM      8  O   UNL     1      35.927 -17.392 -23.016  0.00  0.00    -0.371 OA
ATOM      9  H   UNL     1      36.088 -18.276 -23.380  0.00  0.00    +0.211 HD
ENDBRANCH   1   8
BRANCH   1  11
ATOM     10  O   UNL     1      34.902 -16.163 -20.057  0.00  0.00    -0.247 OA
ATOM     11  C   UNL     1      34.807 -16.174 -21.277  0.00  0.00    +0.345 C 
BRANCH  11  12
ATOM     12  O   UNL     1      34.658 -15.038 -22.009  0.00  0.00    -0.478 OA
ATOM     13  H   UNL     1      33.809 -14.788 -22.318  0.00  0.00    +0.295 HD
ENDBRANCH  11  12
ENDBRANCH   1  11
TORSDOF 4
ENDMDL
MODEL 5
REMARK VINA RESULT:      -6.4      9.016     10.385
REMARK  Name = 439616
REMARK  4 active torsions:
REMARK  status: ('A' for Active; 'I' for Inactive)
REMARK    1  A    between atoms: C_1  and  C_2
REMARK    2  A    between atoms: C_1  and  O_8
REMARK    3  A    between atoms: C_1  and  C_11
REMARK    4  A    between atoms: C_11  and  O_12
REMARK                            x       y       z     vdW  Elec       q    Type
REMARK                         _______ _______ _______ _____ _____    ______ ____
ROOT
ATOM      1  C   UNL     1      36.546 -23.231 -11.890  0.00  0.00    +0.232 C 
ENDROOT
BRANCH   1   2
ATOM      2  C   UNL     1      37.413 -23.908 -12.898  0.00  0.00    +0.015 C 
ATOM      3  C   UNL     1      38.362 -24.843 -12.486  0.00  0.00    -0.001 C 
ATOM      4  C   UNL     1      37.275 -23.604 -14.252  0.00  0.00    -0.001 C 
ATOM      5  C   UNL     1      39.173 -25.476 -13.428  0.00  0.00    -0.000 C 
ATOM      6  C   UNL     1      38.086 -24.237 -15.195  0.00  0.00    -0.000 C 
ATOM      7  C   UNL     1      39.035 -25.172 -14.783  0.00  0.00    -0.000 C 
ENDBRANCH   1   2
BRANCH   1   8
ATOM      8  O   UNL     1      37.325 -22.343 -11.094  0.00  0.00    -0.371 OA
ATOM      9  H   UNL     1      37.768 -22.841 -10.390  0.00  0.00    +0.211 HD
ENDBRANCH   1   8
BRANCH   1  11
ATOM     10  O   UNL     1      36.003 -24.292  -9.763  0.00  0.00    -0.247 OA
ATOM     11  C   UNL     1      35.816 -24.205 -10.970  0.00  0.00    +0.345 C 
BRANCH  11  12
ATOM     12  O   UNL     1      34.942 -25.005 -11.634  0.00  0.00    -0.478 OA
ATOM     13  H   UNL     1      35.004 -25.097 -12.565  0.00  0.00    +0.295 HD
ENDBRANCH  11  12
ENDBRANCH   1  11
TORSDOF 4
ENDMDL
MODEL 6
REMARK VINA RESULT:      -6.2      8.043      8.929
REMARK  Name = 439616
REMARK  4 active torsions:
REMARK  status: ('A' for Active; 'I' for Inactive)
REMARK    1  A    between atoms: C_1  and  C_2
REMARK    2  A    between atoms: C_1  and  O_8
REMARK    3  A    between atoms: C_1  and  C_11
REMARK    4  A    between atoms: C_11  and  O_12
REMARK                            x       y       z     vdW  Elec       q    Type
REMARK                         _______ _______ _______ _____ _____    ______ ____
ROOT
ATOM      1  C   UNL     1      27.940 -23.564 -16.577  0.00  0.00    +0.232 C 
ENDROOT
BRANCH   1   2
ATOM      2  C   UNL     1      29.110 -23.696 -15.662  0.00  0.00    +0.015 C 
ATOM      3  C   UNL     1      29.289 -24.863 -14.920  0.00  0.00    -0.001 C 
ATOM      4  C   UNL     1      30.026 -22.650 -15.547  0.00  0.00    -0.001 C 
ATOM      5  C   UNL     1      30.383 -24.986 -14.064  0.00  0.00    -0.000 C 
ATOM      6  C   UNL     1      31.120 -22.772 -14.691  0.00  0.00    -0.000 C 
ATOM      7  C   UNL     1      31.299 -23.939 -13.949  0.00  0.00    -0.000 C 
ENDBRANCH   1   2
BRANCH   1   8
ATOM      8  O   UNL     1      28.384 -23.497 -17.930  0.00  0.00    -0.371 OA
ATOM      9  H   UNL     1      28.347 -24.380 -18.328  0.00  0.00    +0.211 HD
ENDBRANCH   1   8
BRANCH   1  11
ATOM     10  O   UNL     1      26.288 -22.259 -15.349  0.00  0.00    -0.247 OA
ATOM     11  C   UNL     1      27.075 -22.343 -16.282  0.00  0.00    +0.345 C 
BRANCH  11  12
ATOM     12  O   UNL     1      27.243 -21.345 -17.189  0.00  0.00    -0.478 OA
ATOM     13  H   UNL     1      27.412 -21.552 -18.087  0.00  0.00    +0.295 HD
ENDBRANCH  11  12
ENDBRANCH   1  11
TORSDOF 4
ENDMDL
MODEL 7
REMARK VINA RESULT:      -6.1     11.056     12.913
REMARK  Name = 439616
REMARK  4 active torsions:
REMARK  status: ('A' for Active; 'I' for Inactive)
REMARK    1  A    between atoms: C_1  and  C_2
REMARK    2  A    between atoms: C_1  and  O_8
REMARK    3  A    between atoms: C_1  and  C_11
REMARK    4  A    between atoms: C_11  and  O_12
REMARK                            x       y       z     vdW  Elec       q    Type
REMARK                         _______ _______ _______ _____ _____    ______ ____
ROOT
ATOM      1  C   UNL     1      32.351  -7.586 -20.558  0.00  0.00    +0.232 C 
ENDROOT
BRANCH   1   2
ATOM      2  C   UNL     1      32.883  -7.279 -21.917  0.00  0.00    +0.015 C 
ATOM      3  C   UNL     1      34.127  -7.773 -22.309  0.00  0.00    -0.001 C 
ATOM      4  C   UNL     1      32.135  -6.497 -22.798  0.00  0.00    -0.001 C 
ATOM      5  C   UNL     1      34.624  -7.486 -23.580  0.00  0.00    -0.000 C 
ATOM      6  C   UNL     1      32.632  -6.209 -24.069  0.00  0.00    -0.000 C 
ATOM      7  C   UNL     1      33.876  -6.704 -24.460  0.00  0.00    -0.000 C 
ENDBRANCH   1   2
BRANCH   1   8
ATOM      8  O   UNL     1      33.237  -7.080 -19.563  0.00  0.00    -0.371 OA
ATOM      9  H   UNL     1      33.935  -6.558 -19.986  0.00  0.00    +0.211 HD
ENDBRANCH   1   8
BRANCH   1  11
ATOM     10  O   UNL     1      31.558  -9.830 -21.087  0.00  0.00    -0.247 OA
ATOM     11  C   UNL     1      32.138  -9.077 -20.315  0.00  0.00    +0.345 C 
BRANCH  11  12
ATOM     12  O   UNL     1      32.636  -9.494 -19.122  0.00  0.00    -0.478 OA
ATOM     13  H   UNL     1      32.070  -9.891 -18.490  0.00  0.00    +0.295 HD
ENDBRANCH  11  12
ENDBRANCH   1  11
TORSDOF 4
ENDMDL
MODEL 8
REMARK VINA RESULT:      -6.1      7.665      9.022
REMARK  Name = 439616
REMARK  4 active torsions:
REMARK  status: ('A' for Active; 'I' for Inactive)
REMARK    1  A    between atoms: C_1  and  C_2
REMARK    2  A    between atoms: C_1  and  O_8
REMARK    3  A    between atoms: C_1  and  C_11
REMARK    4  A    between atoms: C_11  and  O_12
REMARK                            x       y       z     vdW  Elec       q    Type
REMARK                         _______ _______ _______ _____ _____    ______ ____
ROOT
ATOM      1  C   UNL     1      38.549 -25.933 -14.541  0.00  0.00    +0.232 C 
ENDROOT
BRANCH   1   2
ATOM      2  C   UNL     1      37.515 -24.927 -14.919  0.00  0.00    +0.015 C 
ATOM      3  C   UNL     1      36.161 -25.253 -14.837  0.00  0.00    -0.001 C 
ATOM      4  C   UNL     1      37.902 -23.660 -15.356  0.00  0.00    -0.001 C 
ATOM      5  C   UNL     1      35.194 -24.312 -15.191  0.00  0.00    -0.000 C 
ATOM      6  C   UNL     1      36.935 -22.719 -15.710  0.00  0.00    -0.000 C 
ATOM      7  C   UNL     1      35.581 -23.045 -15.628  0.00  0.00    -0.000 C 
ENDBRANCH   1   2
BRANCH   1   8
ATOM      8  O   UNL     1      38.478 -26.202 -13.143  0.00  0.00    -0.371 OA
ATOM      9  H   UNL     1      37.553 -26.177 -12.854  0.00  0.00    +0.211 HD
ENDBRANCH   1   8
BRANCH   1  11
ATOM     10  O   UNL     1      40.694 -24.843 -14.150  0.00  0.00    -0.247 OA
ATOM     11  C   UNL     1      39.969 -25.499 -14.887  0.00  0.00    +0.345 C 
BRANCH  11  12
ATOM     12  O   UNL     1      40.353 -25.891 -16.130  0.00  0.00    -0.478 OA
ATOM     13  H   UNL     1      40.115 -26.739 -16.449  0.00  0.00    +0.295 HD
ENDBRANCH  11  12
ENDBRANCH   1  11
TORSDOF 4
ENDMDL
MODEL 9
REMARK VINA RESULT:      -6.1      8.886     10.004
REMARK  Name = 439616
REMARK  4 active torsions:
REMARK  status: ('A' for Active; 'I' for Inactive)
REMARK    1  A    between atoms: C_1  and  C_2
REMARK    2  A    between atoms: C_1  and  O_8
REMARK    3  A    between atoms: C_1  and  C_11
REMARK    4  A    between atoms: C_11  and  O_12
REMARK                            x       y       z     vdW  Elec       q    Type
REMARK                         _______ _______ _______ _____ _____    ______ ____
ROOT
ATOM      1  C   UNL     1      38.873 -25.792 -14.805  0.00  0.00    +0.232 C 
ENDROOT
BRANCH   1   2
ATOM      2  C   UNL     1      38.019 -24.939 -13.929  0.00  0.00    +0.015 C 
ATOM      3  C   UNL     1      37.111 -24.045 -14.496  0.00  0.00    -0.001 C 
ATOM      4  C   UNL     1      38.130 -25.034 -12.541  0.00  0.00    -0.001 C 
ATOM      5  C   UNL     1      36.312 -23.248 -13.676  0.00  0.00    -0.000 C 
ATOM      6  C   UNL     1      37.332 -24.237 -11.722  0.00  0.00    -0.000 C 
ATOM      7  C   UNL     1      36.423 -23.343 -12.288  0.00  0.00    -0.000 C 
ENDBRANCH   1   2
BRANCH   1   8
ATOM      8  O   UNL     1      38.527 -27.164 -14.636  0.00  0.00    -0.371 OA
ATOM      9  H   UNL     1      38.175 -27.515 -15.469  0.00  0.00    +0.211 HD
ENDBRANCH   1   8
BRANCH   1  11
ATOM     10  O   UNL     1      40.930 -24.548 -14.400  0.00  0.00    -0.247 OA
ATOM     11  C   UNL     1      40.366 -25.625 -14.541  0.00  0.00    +0.345 C 
BRANCH  11  12
ATOM     12  O   UNL     1      41.032 -26.810 -14.507  0.00  0.00    -0.478 OA
ATOM     13  H   UNL     1      41.765 -26.952 -15.072  0.00  0.00    +0.295 HD
ENDBRANCH  11  12
ENDBRANCH   1  11
TORSDOF 4
ENDMDL
