MODEL 1
REMARK VINA RESULT:      -7.9      0.000      0.000
REMARK  Name = 38945
REMARK  3 active torsions:
REMARK  status: ('A' for Active; 'I' for Inactive)
REMARK    1  A    between atoms: N_2  and  C_5
REMARK    2  A    between atoms: C_3  and  C_13
REMARK    3  A    between atoms: C_13  and  N_15
REMARK                            x       y       z     vdW  Elec       q    Type
REMARK                         _______ _______ _______ _____ _____    ______ ____
ROOT
ATOM      1  O   UNL     1      35.118 -16.652 -20.350  0.00  0.00    -0.277 OA
ATOM      2  N   UNL     1      34.727 -18.495 -21.749  0.00  0.00    -0.286 N 
ATOM      3  C   UNL     1      34.821 -17.142 -21.436  0.00  0.00    +0.206 C 
ATOM      4  H   UNL     1      34.464 -18.711 -22.673  0.00  0.00    +0.155 HD
ENDROOT
BRANCH   2   5
ATOM      5  C   UNL     1      34.963 -19.597 -20.894  0.00  0.00    +0.042 C 
ATOM      6  C   UNL     1      33.887 -20.287 -20.357  0.00  0.00    -0.009 C 
ATOM      7  C   UNL     1      36.268 -19.970 -20.608  0.00  0.00    -0.009 C 
ATOM      8  C   UNL     1      34.120 -21.374 -19.514  0.00  0.00    -0.003 C 
ATOM      9  C   UNL     1      36.502 -21.057 -19.765  0.00  0.00    -0.003 C 
ATOM     10  C   UNL     1      32.474 -19.900 -20.655  0.00  0.00    +0.032 C 
ATOM     11  C   UNL     1      37.440 -19.238 -21.177  0.00  0.00    +0.032 C 
ATOM     12  C   UNL     1      35.427 -21.759 -19.219  0.00  0.00    -0.001 C 
ENDBRANCH   2   5
BRANCH   3  13
ATOM     13  C   UNL     1      34.484 -16.269 -22.642  0.00  0.00    +0.013 C 
ATOM     14  C   UNL     1      34.452 -14.789 -22.278  0.00  0.00    -0.015 C 
BRANCH  13  15
ATOM     15  N   UNL     1      35.526 -16.505 -23.638  0.00  0.00    +0.387 N 
ATOM     16  H   UNL     1      36.096 -17.301 -23.351  0.00  0.00    -0.089 HD
ATOM     17  H   UNL     1      36.115 -15.676 -23.716  0.00  0.00    -0.089 HD
ATOM     18  H   UNL     1      35.096 -16.703 -24.541  0.00  0.00    -0.089 HD
ENDBRANCH  13  15
ENDBRANCH   3  13
TORSDOF 3
ENDMDL
MODEL 2
REMARK VINA RESULT:      -7.9      0.015      2.300
REMARK  Name = 38945
REMARK  3 active torsions:
REMARK  status: ('A' for Active; 'I' for Inactive)
REMARK    1  A    between atoms: N_2  and  C_5
REMARK    2  A    between atoms: C_3  and  C_13
REMARK    3  A    between atoms: C_13  and  N_15
REMARK                            x       y       z     vdW  Elec       q    Type
REMARK                         _______ _______ _______ _____ _____    ______ ____
ROOT
ATOM      1  O   UNL     1      35.125 -16.650 -20.353  0.00  0.00    -0.277 OA
ATOM      2  N   UNL     1      34.712 -18.490 -21.751  0.00  0.00    -0.286 N 
ATOM      3  C   UNL     1      34.816 -17.137 -21.438  0.00  0.00    +0.206 C 
ATOM      4  H   UNL     1      34.441 -18.703 -22.673  0.00  0.00    +0.155 HD
ENDROOT
BRANCH   2   5
ATOM      5  C   UNL     1      34.949 -19.595 -20.899  0.00  0.00    +0.042 C 
ATOM      6  C   UNL     1      36.254 -19.968 -20.614  0.00  0.00    -0.009 C 
ATOM      7  C   UNL     1      33.873 -20.286 -20.364  0.00  0.00    -0.009 C 
ATOM      8  C   UNL     1      36.487 -21.057 -19.774  0.00  0.00    -0.003 C 
ATOM      9  C   UNL     1      34.106 -21.375 -19.524  0.00  0.00    -0.003 C 
ATOM     10  C   UNL     1      37.427 -19.234 -21.181  0.00  0.00    +0.032 C 
ATOM     11  C   UNL     1      32.461 -19.897 -20.661  0.00  0.00    +0.032 C 
ATOM     12  C   UNL     1      35.414 -21.760 -19.229  0.00  0.00    -0.001 C 
ENDBRANCH   2   5
BRANCH   3  13
ATOM     13  C   UNL     1      34.474 -16.262 -22.640  0.00  0.00    +0.013 C 
ATOM     14  C   UNL     1      34.439 -14.783 -22.271  0.00  0.00    -0.015 C 
BRANCH  13  15
ATOM     15  N   UNL     1      35.515 -16.491 -23.639  0.00  0.00    +0.387 N 
ATOM     16  H   UNL     1      35.172 -16.209 -24.557  0.00  0.00    -0.089 HD
ATOM     17  H   UNL     1      35.757 -17.482 -23.656  0.00  0.00    -0.089 HD
ATOM     18  H   UNL     1      36.342 -15.944 -23.401  0.00  0.00    -0.089 HD
ENDBRANCH  13  15
ENDBRANCH   3  13
TORSDOF 3
ENDMDL
MODEL 3
REMARK VINA RESULT:      -7.2      2.856      4.400
REMARK  Name = 38945
REMARK  3 active torsions:
REMARK  status: ('A' for Active; 'I' for Inactive)
REMARK    1  A    between atoms: N_2  and  C_5
REMARK    2  A    between atoms: C_3  and  C_13
REMARK    3  A    between atoms: C_13  and  N_15
REMARK                            x       y       z     vdW  Elec       q    Type
REMARK                         _______ _______ _______ _____ _____    ______ ____
ROOT
ATOM      1  O   UNL     1      32.294 -14.486 -22.811  0.00  0.00    -0.277 OA
ATOM      2  N   UNL     1      34.573 -14.900 -23.193  0.00  0.00    -0.286 N 
ATOM      3  C   UNL     1      33.419 -14.122 -23.145  0.00  0.00    +0.206 C 
ATOM      4  H   UNL     1      35.391 -14.445 -23.496  0.00  0.00    +0.155 HD
ENDROOT
BRANCH   2   5
ATOM      5  C   UNL     1      34.707 -16.268 -22.860  0.00  0.00    +0.042 C 
ATOM      6  C   UNL     1      34.783 -17.212 -23.873  0.00  0.00    -0.009 C 
ATOM      7  C   UNL     1      34.759 -16.643 -21.526  0.00  0.00    -0.009 C 
ATOM      8  C   UNL     1      34.915 -18.562 -23.544  0.00  0.00    -0.003 C 
ATOM      9  C   UNL     1      34.891 -17.992 -21.196  0.00  0.00    -0.003 C 
ATOM     10  C   UNL     1      34.729 -16.827 -25.316  0.00  0.00    +0.032 C 
ATOM     11  C   UNL     1      34.678 -15.639 -20.422  0.00  0.00    +0.032 C 
ATOM     12  C   UNL     1      34.969 -18.951 -22.206  0.00  0.00    -0.001 C 
ENDBRANCH   2   5
BRANCH   3  13
ATOM     13  C   UNL     1      33.697 -12.688 -23.587  0.00  0.00    +0.013 C 
ATOM     14  C   UNL     1      33.667 -12.548 -25.105  0.00  0.00    -0.015 C 
BRANCH  13  15
ATOM     15  N   UNL     1      32.651 -11.855 -22.998  0.00  0.00    +0.387 N 
ATOM     16  H   UNL     1      32.655 -11.971 -21.985  0.00  0.00    -0.089 HD
ATOM     17  H   UNL     1      31.744 -12.136 -23.370  0.00  0.00    -0.089 HD
ATOM     18  H   UNL     1      32.825 -10.877 -23.229  0.00  0.00    -0.089 HD
ENDBRANCH  13  15
ENDBRANCH   3  13
TORSDOF 3
ENDMDL
MODEL 4
REMARK VINA RESULT:      -7.2      2.874      4.376
REMARK  Name = 38945
REMARK  3 active torsions:
REMARK  status: ('A' for Active; 'I' for Inactive)
REMARK    1  A    between atoms: N_2  and  C_5
REMARK    2  A    between atoms: C_3  and  C_13
REMARK    3  A    between atoms: C_13  and  N_15
REMARK                            x       y       z     vdW  Elec       q    Type
REMARK                         _______ _______ _______ _____ _____    ______ ____
ROOT
ATOM      1  O   UNL     1      32.280 -14.464 -22.859  0.00  0.00    -0.277 OA
ATOM      2  N   UNL     1      34.566 -14.875 -23.198  0.00  0.00    -0.286 N 
ATOM      3  C   UNL     1      33.410 -14.098 -23.171  0.00  0.00    +0.206 C 
ATOM      4  H   UNL     1      35.389 -14.418 -23.487  0.00  0.00    +0.155 HD
ENDROOT
BRANCH   2   5
ATOM      5  C   UNL     1      34.696 -16.243 -22.862  0.00  0.00    +0.042 C 
ATOM      6  C   UNL     1      34.744 -16.615 -21.527  0.00  0.00    -0.009 C 
ATOM      7  C   UNL     1      34.773 -17.189 -23.874  0.00  0.00    -0.009 C 
ATOM      8  C   UNL     1      34.872 -17.964 -21.196  0.00  0.00    -0.003 C 
ATOM      9  C   UNL     1      34.902 -18.538 -23.542  0.00  0.00    -0.003 C 
ATOM     10  C   UNL     1      34.661 -15.610 -20.424  0.00  0.00    +0.032 C 
ATOM     11  C   UNL     1      34.723 -16.805 -25.317  0.00  0.00    +0.032 C 
ATOM     12  C   UNL     1      34.951 -18.925 -22.203  0.00  0.00    -0.001 C 
ENDBRANCH   2   5
BRANCH   3  13
ATOM     13  C   UNL     1      33.694 -12.665 -23.610  0.00  0.00    +0.013 C 
ATOM     14  C   UNL     1      33.663 -12.520 -25.127  0.00  0.00    -0.015 C 
BRANCH  13  15
ATOM     15  N   UNL     1      32.652 -11.829 -23.017  0.00  0.00    +0.387 N 
ATOM     16  H   UNL     1      33.030 -10.901 -22.823  0.00  0.00    -0.089 HD
ATOM     17  H   UNL     1      32.329 -12.253 -22.148  0.00  0.00    -0.089 HD
ATOM     18  H   UNL     1      31.870 -11.748 -23.667  0.00  0.00    -0.089 HD
ENDBRANCH  13  15
ENDBRANCH   3  13
TORSDOF 3
ENDMDL
MODEL 5
REMARK VINA RESULT:      -7.2      2.041      5.047
REMARK  Name = 38945
REMARK  3 active torsions:
REMARK  status: ('A' for Active; 'I' for Inactive)
REMARK    1  A    between atoms: N_2  and  C_5
REMARK    2  A    between atoms: C_3  and  C_13
REMARK    3  A    between atoms: C_13  and  N_15
REMARK                            x       y       z     vdW  Elec       q    Type
REMARK                         _______ _______ _______ _____ _____    ______ ____
ROOT
ATOM      1  O   UNL     1      36.903 -19.095 -21.083  0.00  0.00    -0.277 OA
ATOM      2  N   UNL     1      34.640 -18.808 -21.634  0.00  0.00    -0.286 N 
ATOM      3  C   UNL     1      35.714 -19.374 -20.953  0.00  0.00    +0.206 C 
ATOM      4  H   UNL     1      33.748 -19.162 -21.411  0.00  0.00    +0.155 HD
ENDROOT
BRANCH   2   5
ATOM      5  C   UNL     1      34.678 -17.785 -22.611  0.00  0.00    +0.042 C 
ATOM      6  C   UNL     1      34.655 -16.458 -22.209  0.00  0.00    -0.009 C 
ATOM      7  C   UNL     1      34.739 -18.127 -23.954  0.00  0.00    -0.009 C 
ATOM      8  C   UNL     1      34.692 -15.450 -23.173  0.00  0.00    -0.003 C 
ATOM      9  C   UNL     1      34.776 -17.119 -24.917  0.00  0.00    -0.003 C 
ATOM     10  C   UNL     1      34.591 -16.071 -20.767  0.00  0.00    +0.032 C 
ATOM     11  C   UNL     1      34.764 -19.552 -24.403  0.00  0.00    +0.032 C 
ATOM     12  C   UNL     1      34.754 -15.780 -24.526  0.00  0.00    -0.001 C 
ENDBRANCH   2   5
BRANCH   3  13
ATOM     13  C   UNL     1      35.248 -20.452 -19.979  0.00  0.00    +0.013 C 
ATOM     14  C   UNL     1      33.763 -20.757 -20.140  0.00  0.00    -0.015 C 
BRANCH  13  15
ATOM     15  N   UNL     1      36.027 -21.653 -20.274  0.00  0.00    +0.387 N 
ATOM     16  H   UNL     1      36.346 -22.073 -19.401  0.00  0.00    -0.089 HD
ATOM     17  H   UNL     1      36.834 -21.402 -20.845  0.00  0.00    -0.089 HD
ATOM     18  H   UNL     1      35.447 -22.320 -20.781  0.00  0.00    -0.089 HD
ENDBRANCH  13  15
ENDBRANCH   3  13
TORSDOF 3
ENDMDL
MODEL 6
REMARK VINA RESULT:      -7.2      2.028      5.064
REMARK  Name = 38945
REMARK  3 active torsions:
REMARK  status: ('A' for Active; 'I' for Inactive)
REMARK    1  A    between atoms: N_2  and  C_5
REMARK    2  A    between atoms: C_3  and  C_13
REMARK    3  A    between atoms: C_13  and  N_15
REMARK                            x       y       z     vdW  Elec       q    Type
REMARK                         _______ _______ _______ _____ _____    ______ ____
ROOT
ATOM      1  O   UNL     1      36.906 -19.097 -21.110  0.00  0.00    -0.277 OA
ATOM      2  N   UNL     1      34.638 -18.767 -21.617  0.00  0.00    -0.286 N 
ATOM      3  C   UNL     1      35.715 -19.357 -20.960  0.00  0.00    +0.206 C 
ATOM      4  H   UNL     1      33.745 -19.107 -21.380  0.00  0.00    +0.155 HD
ENDROOT
BRANCH   2   5
ATOM      5  C   UNL     1      34.676 -17.737 -22.586  0.00  0.00    +0.042 C 
ATOM      6  C   UNL     1      34.742 -18.069 -23.931  0.00  0.00    -0.009 C 
ATOM      7  C   UNL     1      34.647 -16.413 -22.176  0.00  0.00    -0.009 C 
ATOM      8  C   UNL     1      34.780 -17.054 -24.887  0.00  0.00    -0.003 C 
ATOM      9  C   UNL     1      34.685 -15.397 -23.131  0.00  0.00    -0.003 C 
ATOM     10  C   UNL     1      34.774 -19.491 -24.392  0.00  0.00    +0.032 C 
ATOM     11  C   UNL     1      34.576 -16.038 -20.731  0.00  0.00    +0.032 C 
ATOM     12  C   UNL     1      34.751 -15.718 -24.487  0.00  0.00    -0.001 C 
ENDBRANCH   2   5
BRANCH   3  13
ATOM     13  C   UNL     1      35.248 -20.434 -19.986  0.00  0.00    +0.013 C 
ATOM     14  C   UNL     1      33.762 -20.735 -20.144  0.00  0.00    -0.015 C 
BRANCH  13  15
ATOM     15  N   UNL     1      36.024 -21.636 -20.283  0.00  0.00    +0.387 N 
ATOM     16  H   UNL     1      35.767 -22.376 -19.629  0.00  0.00    -0.089 HD
ATOM     17  H   UNL     1      37.018 -21.430 -20.190  0.00  0.00    -0.089 HD
ATOM     18  H   UNL     1      35.828 -21.941 -21.235  0.00  0.00    -0.089 HD
ENDBRANCH  13  15
ENDBRANCH   3  13
TORSDOF 3
ENDMDL
MODEL 7
REMARK VINA RESULT:      -7.1      5.650      8.233
REMARK  Name = 38945
REMARK  3 active torsions:
REMARK  status: ('A' for Active; 'I' for Inactive)
REMARK    1  A    between atoms: N_2  and  C_5
REMARK    2  A    between atoms: C_3  and  C_13
REMARK    3  A    between atoms: C_13  and  N_15
REMARK                            x       y       z     vdW  Elec       q    Type
REMARK                         _______ _______ _______ _____ _____    ______ ____
ROOT
ATOM      1  O   UNL     1      36.019 -25.388 -15.655  0.00  0.00    -0.277 OA
ATOM      2  N   UNL     1      35.180 -23.211 -15.404  0.00  0.00    -0.286 N 
ATOM      3  C   UNL     1      35.595 -24.466 -14.965  0.00  0.00    +0.206 C 
ATOM      4  H   UNL     1      34.856 -22.593 -14.710  0.00  0.00    +0.155 HD
ENDROOT
BRANCH   2   5
ATOM      5  C   UNL     1      35.167 -22.721 -16.731  0.00  0.00    +0.042 C 
ATOM      6  C   UNL     1      36.312 -22.139 -17.254  0.00  0.00    -0.009 C 
ATOM      7  C   UNL     1      34.009 -22.831 -17.487  0.00  0.00    -0.009 C 
ATOM      8  C   UNL     1      36.299 -21.656 -18.562  0.00  0.00    -0.003 C 
ATOM      9  C   UNL     1      33.996 -22.348 -18.796  0.00  0.00    -0.003 C 
ATOM     10  C   UNL     1      37.569 -22.013 -16.454  0.00  0.00    +0.032 C 
ATOM     11  C   UNL     1      32.767 -23.455 -16.939  0.00  0.00    +0.032 C 
ATOM     12  C   UNL     1      35.142 -21.760 -19.333  0.00  0.00    -0.001 C 
ENDBRANCH   2   5
BRANCH   3  13
ATOM     13  C   UNL     1      35.449 -24.600 -13.452  0.00  0.00    +0.013 C 
ATOM     14  C   UNL     1      36.108 -23.441 -12.714  0.00  0.00    -0.015 C 
BRANCH  13  15
ATOM     15  N   UNL     1      34.016 -24.610 -13.166  0.00  0.00    +0.387 N 
ATOM     16  H   UNL     1      33.829 -25.243 -12.388  0.00  0.00    -0.089 HD
ATOM     17  H   UNL     1      33.507 -24.927 -13.991  0.00  0.00    -0.089 HD
ATOM     18  H   UNL     1      33.711 -23.669 -12.919  0.00  0.00    -0.089 HD
ENDBRANCH  13  15
ENDBRANCH   3  13
TORSDOF 3
ENDMDL
MODEL 8
REMARK VINA RESULT:      -7.0      5.571      7.763
REMARK  Name = 38945
REMARK  3 active torsions:
REMARK  status: ('A' for Active; 'I' for Inactive)
REMARK    1  A    between atoms: N_2  and  C_5
REMARK    2  A    between atoms: C_3  and  C_13
REMARK    3  A    between atoms: C_13  and  N_15
REMARK                            x       y       z     vdW  Elec       q    Type
REMARK                         _______ _______ _______ _____ _____    ______ ____
ROOT
ATOM      1  O   UNL     1      36.199 -25.078 -15.489  0.00  0.00    -0.277 OA
ATOM      2  N   UNL     1      35.078 -23.016 -15.479  0.00  0.00    -0.286 N 
ATOM      3  C   UNL     1      35.584 -24.184 -14.914  0.00  0.00    +0.206 C 
ATOM      4  H   UNL     1      34.598 -22.411 -14.869  0.00  0.00    +0.155 HD
ENDROOT
BRANCH   2   5
ATOM      5  C   UNL     1      35.170 -22.599 -16.828  0.00  0.00    +0.042 C 
ATOM      6  C   UNL     1      34.077 -22.755 -17.666  0.00  0.00    -0.009 C 
ATOM      7  C   UNL     1      36.353 -22.039 -17.288  0.00  0.00    -0.009 C 
ATOM      8  C   UNL     1      34.169 -22.343 -18.996  0.00  0.00    -0.003 C 
ATOM      9  C   UNL     1      36.445 -21.627 -18.618  0.00  0.00    -0.003 C 
ATOM     10  C   UNL     1      32.795 -23.354 -17.188  0.00  0.00    +0.032 C 
ATOM     11  C   UNL     1      37.541 -21.864 -16.398  0.00  0.00    +0.032 C 
ATOM     12  C   UNL     1      35.353 -21.779 -19.471  0.00  0.00    -0.001 C 
ENDBRANCH   2   5
BRANCH   3  13
ATOM     13  C   UNL     1      35.269 -24.261 -13.423  0.00  0.00    +0.013 C 
ATOM     14  C   UNL     1      36.280 -23.482 -12.590  0.00  0.00    -0.015 C 
BRANCH  13  15
ATOM     15  N   UNL     1      33.938 -23.684 -13.243  0.00  0.00    +0.387 N 
ATOM     16  H   UNL     1      33.729 -23.063 -14.025  0.00  0.00    -0.089 HD
ATOM     17  H   UNL     1      33.913 -23.154 -12.372  0.00  0.00    -0.089 HD
ATOM     18  H   UNL     1      33.245 -24.430 -13.207  0.00  0.00    -0.089 HD
ENDBRANCH  13  15
ENDBRANCH   3  13
TORSDOF 3
ENDMDL
MODEL 9
REMARK VINA RESULT:      -7.0      1.788      5.332
REMARK  Name = 38945
REMARK  3 active torsions:
REMARK  status: ('A' for Active; 'I' for Inactive)
REMARK    1  A    between atoms: N_2  and  C_5
REMARK    2  A    between atoms: C_3  and  C_13
REMARK    3  A    between atoms: C_13  and  N_15
REMARK                            x       y       z     vdW  Elec       q    Type
REMARK                         _______ _______ _______ _____ _____    ______ ____
ROOT
ATOM      1  O   UNL     1      33.349 -19.005 -21.222  0.00  0.00    -0.277 OA
ATOM      2  N   UNL     1      35.231 -17.973 -22.171  0.00  0.00    -0.286 N 
ATOM      3  C   UNL     1      34.552 -18.963 -21.466  0.00  0.00    +0.206 C 
ATOM      4  H   UNL     1      36.203 -18.095 -22.264  0.00  0.00    +0.155 HD
ENDROOT
BRANCH   2   5
ATOM      5  C   UNL     1      34.688 -16.811 -22.769  0.00  0.00    +0.042 C 
ATOM      6  C   UNL     1      34.408 -16.810 -24.127  0.00  0.00    -0.009 C 
ATOM      7  C   UNL     1      34.444 -15.693 -21.986  0.00  0.00    -0.009 C 
ATOM      8  C   UNL     1      33.873 -15.664 -24.715  0.00  0.00    -0.003 C 
ATOM      9  C   UNL     1      33.909 -14.547 -22.574  0.00  0.00    -0.003 C 
ATOM     10  C   UNL     1      34.663 -18.007 -24.986  0.00  0.00    +0.032 C 
ATOM     11  C   UNL     1      34.740 -15.676 -20.521  0.00  0.00    +0.032 C 
ATOM     12  C   UNL     1      33.623 -14.533 -23.939  0.00  0.00    -0.001 C 
ENDBRANCH   2   5
BRANCH   3  13
ATOM     13  C   UNL     1      35.505 -20.052 -20.982  0.00  0.00    +0.013 C 
ATOM     14  C   UNL     1      36.883 -19.492 -20.651  0.00  0.00    -0.015 C 
BRANCH  13  15
ATOM     15  N   UNL     1      34.909 -20.628 -19.778  0.00  0.00    +0.387 N 
ATOM     16  H   UNL     1      34.036 -20.146 -19.567  0.00  0.00    -0.089 HD
ATOM     17  H   UNL     1      35.554 -20.521 -18.995  0.00  0.00    -0.089 HD
ATOM     18  H   UNL     1      34.723 -21.618 -19.931  0.00  0.00    -0.089 HD
ENDBRANCH  13  15
ENDBRANCH   3  13
TORSDOF 3
ENDMDL
