MODEL 1
REMARK VINA RESULT:      -6.8      0.000      0.000
REMARK  Name = 78598
REMARK  1 active torsions:
REMARK  status: ('A' for Active; 'I' for Inactive)
REMARK    1  A    between atoms: C_6  and  O_12
REMARK                            x       y       z     vdW  Elec       q    Type
REMARK                         _______ _______ _______ _____ _____    ______ ____
ROOT
ATOM      1  N   UNL     1      34.931 -22.353 -18.706  0.00  0.00    -0.315 N 
ATOM      2  N   UNL     1      32.740 -22.033 -18.895  0.00  0.00    -0.315 N 
ATOM      3  C   UNL     1      34.789 -21.309 -19.583  0.00  0.00    +0.062 C 
ATOM      4  C   UNL     1      33.413 -21.127 -19.685  0.00  0.00    +0.059 C 
ATOM      5  C   UNL     1      35.718 -20.531 -20.276  0.00  0.00    +0.052 C 
ATOM      6  C   UNL     1      35.205 -19.527 -21.105  0.00  0.00    +0.140 C 
ATOM      7  C   UNL     1      32.915 -20.115 -20.522  0.00  0.00    +0.019 C 
ATOM      8  C   UNL     1      33.829 -19.322 -21.227  0.00  0.00    +0.038 C 
ATOM      9  C   UNL     1      33.680 -22.750 -18.323  0.00  0.00    +0.182 C 
ATOM     10  H   UNL     1      35.782 -22.746 -18.405  0.00  0.00    +0.148 HD
ATOM     11  H   UNL     1      31.766 -22.121 -18.783  0.00  0.00    +0.148 HD
ENDROOT
BRANCH   6  12
ATOM     12  O   UNL     1      36.066 -18.736 -21.806  0.00  0.00    -0.471 OA
ATOM     13  C   UNL     1      35.633 -18.288 -23.088  0.00  0.00    +0.252 C 
ENDBRANCH   6  12
TORSDOF 1
ENDMDL
MODEL 2
REMARK VINA RESULT:      -6.7      2.686      4.557
REMARK  Name = 78598
REMARK  1 active torsions:
REMARK  status: ('A' for Active; 'I' for Inactive)
REMARK    1  A    between atoms: C_6  and  O_12
REMARK                            x       y       z     vdW  Elec       q    Type
REMARK                         _______ _______ _______ _____ _____    ______ ____
ROOT
ATOM      1  N   UNL     1      34.198 -18.551 -21.606  0.00  0.00    -0.315 N 
ATOM      2  N   UNL     1      36.368 -18.932 -21.317  0.00  0.00    -0.315 N 
ATOM      3  C   UNL     1      34.271 -19.665 -20.810  0.00  0.00    +0.062 C 
ATOM      4  C   UNL     1      35.635 -19.884 -20.644  0.00  0.00    +0.059 C 
ATOM      5  C   UNL     1      33.290 -20.477 -20.238  0.00  0.00    +0.052 C 
ATOM      6  C   UNL     1      33.736 -21.555 -19.466  0.00  0.00    +0.140 C 
ATOM      7  C   UNL     1      36.065 -20.971 -19.865  0.00  0.00    +0.019 C 
ATOM      8  C   UNL     1      35.099 -21.799 -19.282  0.00  0.00    +0.038 C 
ATOM      9  C   UNL     1      35.476 -18.151 -21.881  0.00  0.00    +0.182 C 
ATOM     10  H   UNL     1      33.373 -18.116 -21.921  0.00  0.00    +0.148 HD
ATOM     11  H   UNL     1      37.349 -18.855 -21.365  0.00  0.00    +0.148 HD
ENDROOT
BRANCH   6  12
ATOM     12  O   UNL     1      32.821 -22.382 -18.883  0.00  0.00    -0.471 OA
ATOM     13  C   UNL     1      33.240 -23.087 -17.717  0.00  0.00    +0.252 C 
ENDBRANCH   6  12
TORSDOF 1
ENDMDL
MODEL 3
REMARK VINA RESULT:      -6.5      0.722      1.871
REMARK  Name = 78598
REMARK  1 active torsions:
REMARK  status: ('A' for Active; 'I' for Inactive)
REMARK    1  A    between atoms: C_6  and  O_12
REMARK                            x       y       z     vdW  Elec       q    Type
REMARK                         _______ _______ _______ _____ _____    ______ ____
ROOT
ATOM      1  N   UNL     1      32.762 -21.817 -19.156  0.00  0.00    -0.315 N 
ATOM      2  N   UNL     1      34.801 -22.424 -18.514  0.00  0.00    -0.315 N 
ATOM      3  C   UNL     1      33.621 -21.010 -19.856  0.00  0.00    +0.062 C 
ATOM      4  C   UNL     1      34.888 -21.408 -19.439  0.00  0.00    +0.059 C 
ATOM      5  C   UNL     1      33.406 -19.996 -20.792  0.00  0.00    +0.052 C 
ATOM      6  C   UNL     1      34.543 -19.371 -21.316  0.00  0.00    +0.140 C 
ATOM      7  C   UNL     1      36.019 -20.769 -19.976  0.00  0.00    +0.019 C 
ATOM      8  C   UNL     1      35.827 -19.749 -20.916  0.00  0.00    +0.038 C 
ATOM      9  C   UNL     1      33.515 -22.643 -18.368  0.00  0.00    +0.182 C 
ATOM     10  H   UNL     1      31.780 -21.803 -19.210  0.00  0.00    +0.148 HD
ATOM     11  H   UNL     1      35.544 -22.885 -18.061  0.00  0.00    +0.148 HD
ENDROOT
BRANCH   6  12
ATOM     12  O   UNL     1      34.393 -18.374 -22.234  0.00  0.00    -0.471 OA
ATOM     13  C   UNL     1      34.966 -18.590 -23.521  0.00  0.00    +0.252 C 
ENDBRANCH   6  12
TORSDOF 1
ENDMDL
MODEL 4
REMARK VINA RESULT:      -6.4      3.641      5.096
REMARK  Name = 78598
REMARK  1 active torsions:
REMARK  status: ('A' for Active; 'I' for Inactive)
REMARK    1  A    between atoms: C_6  and  O_12
REMARK                            x       y       z     vdW  Elec       q    Type
REMARK                         _______ _______ _______ _____ _____    ______ ____
ROOT
ATOM      1  N   UNL     1      35.331 -19.134 -22.442  0.00  0.00    -0.315 N 
ATOM      2  N   UNL     1      35.311 -17.542 -20.891  0.00  0.00    -0.315 N 
ATOM      3  C   UNL     1      34.973 -17.986 -23.100  0.00  0.00    +0.062 C 
ATOM      4  C   UNL     1      34.968 -17.006 -22.112  0.00  0.00    +0.059 C 
ATOM      5  C   UNL     1      34.663 -17.727 -24.437  0.00  0.00    +0.052 C 
ATOM      6  C   UNL     1      34.335 -16.407 -24.763  0.00  0.00    +0.140 C 
ATOM      7  C   UNL     1      34.636 -15.686 -22.457  0.00  0.00    +0.019 C 
ATOM      8  C   UNL     1      34.321 -15.403 -23.792  0.00  0.00    +0.038 C 
ATOM      9  C   UNL     1      35.521 -18.817 -21.125  0.00  0.00    +0.182 C 
ATOM     10  H   UNL     1      35.432 -20.026 -22.844  0.00  0.00    +0.148 HD
ATOM     11  H   UNL     1      35.383 -17.071 -20.030  0.00  0.00    +0.148 HD
ENDROOT
BRANCH   6  12
ATOM     12  O   UNL     1      34.023 -16.096 -26.054  0.00  0.00    -0.471 OA
ATOM     13  C   UNL     1      33.136 -14.999 -26.257  0.00  0.00    +0.252 C 
ENDBRANCH   6  12
TORSDOF 1
ENDMDL
MODEL 5
REMARK VINA RESULT:      -6.3      4.942      6.042
REMARK  Name = 78598
REMARK  1 active torsions:
REMARK  status: ('A' for Active; 'I' for Inactive)
REMARK    1  A    between atoms: C_6  and  O_12
REMARK                            x       y       z     vdW  Elec       q    Type
REMARK                         _______ _______ _______ _____ _____    ______ ____
ROOT
ATOM      1  N   UNL     1      34.176 -15.224 -21.599  0.00  0.00    -0.315 N 
ATOM      2  N   UNL     1      35.172 -17.196 -21.356  0.00  0.00    -0.315 N 
ATOM      3  C   UNL     1      34.234 -15.762 -22.858  0.00  0.00    +0.062 C 
ATOM      4  C   UNL     1      34.859 -16.992 -22.682  0.00  0.00    +0.059 C 
ATOM      5  C   UNL     1      33.806 -15.291 -24.101  0.00  0.00    +0.052 C 
ATOM      6  C   UNL     1      34.032 -16.125 -25.202  0.00  0.00    +0.140 C 
ATOM      7  C   UNL     1      35.078 -17.816 -23.798  0.00  0.00    +0.019 C 
ATOM      8  C   UNL     1      34.657 -17.365 -25.055  0.00  0.00    +0.038 C 
ATOM      9  C   UNL     1      34.749 -16.118 -20.737  0.00  0.00    +0.182 C 
ATOM     10  H   UNL     1      33.792 -14.350 -21.358  0.00  0.00    +0.148 HD
ATOM     11  H   UNL     1      35.616 -17.980 -20.960  0.00  0.00    +0.148 HD
ENDROOT
BRANCH   6  12
ATOM     12  O   UNL     1      33.634 -15.717 -26.441  0.00  0.00    -0.471 OA
ATOM     13  C   UNL     1      32.877 -14.511 -26.512  0.00  0.00    +0.252 C 
ENDBRANCH   6  12
TORSDOF 1
ENDMDL
MODEL 6
REMARK VINA RESULT:      -6.3      4.121      5.400
REMARK  Name = 78598
REMARK  1 active torsions:
REMARK  status: ('A' for Active; 'I' for Inactive)
REMARK    1  A    between atoms: C_6  and  O_12
REMARK                            x       y       z     vdW  Elec       q    Type
REMARK                         _______ _______ _______ _____ _____    ______ ____
ROOT
ATOM      1  N   UNL     1      35.925 -18.042 -22.904  0.00  0.00    -0.315 N 
ATOM      2  N   UNL     1      35.527 -17.968 -20.719  0.00  0.00    -0.315 N 
ATOM      3  C   UNL     1      35.313 -16.835 -22.685  0.00  0.00    +0.062 C 
ATOM      4  C   UNL     1      35.075 -16.811 -21.314  0.00  0.00    +0.059 C 
ATOM      5  C   UNL     1      34.958 -15.792 -23.542  0.00  0.00    +0.052 C 
ATOM      6  C   UNL     1      34.334 -14.684 -22.961  0.00  0.00    +0.140 C 
ATOM      7  C   UNL     1      34.446 -15.690 -20.747  0.00  0.00    +0.019 C 
ATOM      8  C   UNL     1      34.082 -14.632 -21.588  0.00  0.00    +0.038 C 
ATOM      9  C   UNL     1      36.030 -18.681 -21.700  0.00  0.00    +0.182 C 
ATOM     10  H   UNL     1      36.233 -18.387 -23.773  0.00  0.00    +0.148 HD
ATOM     11  H   UNL     1      35.483 -18.206 -19.765  0.00  0.00    +0.148 HD
ENDROOT
BRANCH   6  12
ATOM     12  O   UNL     1      33.965 -13.635 -23.751  0.00  0.00    -0.471 OA
ATOM     13  C   UNL     1      33.061 -13.916 -24.817  0.00  0.00    +0.252 C 
ENDBRANCH   6  12
TORSDOF 1
ENDMDL
MODEL 7
REMARK VINA RESULT:      -6.1      4.071      5.760
REMARK  Name = 78598
REMARK  1 active torsions:
REMARK  status: ('A' for Active; 'I' for Inactive)
REMARK    1  A    between atoms: C_6  and  O_12
REMARK                            x       y       z     vdW  Elec       q    Type
REMARK                         _______ _______ _______ _____ _____    ______ ____
ROOT
ATOM      1  N   UNL     1      34.729 -17.209 -25.067  0.00  0.00    -0.315 N 
ATOM      2  N   UNL     1      33.821 -15.339 -24.280  0.00  0.00    -0.315 N 
ATOM      3  C   UNL     1      34.904 -17.261 -23.708  0.00  0.00    +0.062 C 
ATOM      4  C   UNL     1      34.330 -16.084 -23.239  0.00  0.00    +0.059 C 
ATOM      5  C   UNL     1      35.499 -18.209 -22.873  0.00  0.00    +0.052 C 
ATOM      6  C   UNL     1      35.499 -17.930 -21.503  0.00  0.00    +0.140 C 
ATOM      7  C   UNL     1      34.339 -15.819 -21.859  0.00  0.00    +0.019 C 
ATOM      8  C   UNL     1      34.930 -16.756 -21.003  0.00  0.00    +0.038 C 
ATOM      9  C   UNL     1      34.078 -16.043 -25.359  0.00  0.00    +0.182 C 
ATOM     10  H   UNL     1      35.020 -17.889 -25.716  0.00  0.00    +0.148 HD
ATOM     11  H   UNL     1      33.364 -14.469 -24.225  0.00  0.00    +0.148 HD
ENDROOT
BRANCH   6  12
ATOM     12  O   UNL     1      36.066 -18.821 -20.640  0.00  0.00    -0.471 OA
ATOM     13  C   UNL     1      35.519 -20.137 -20.619  0.00  0.00    +0.252 C 
ENDBRANCH   6  12
TORSDOF 1
ENDMDL
MODEL 8
REMARK VINA RESULT:      -6.0      6.161      7.348
REMARK  Name = 78598
REMARK  1 active torsions:
REMARK  status: ('A' for Active; 'I' for Inactive)
REMARK    1  A    between atoms: C_6  and  O_12
REMARK                            x       y       z     vdW  Elec       q    Type
REMARK                         _______ _______ _______ _____ _____    ______ ____
ROOT
ATOM      1  N   UNL     1      33.471 -23.662 -15.166  0.00  0.00    -0.315 N 
ATOM      2  N   UNL     1      32.576 -25.049 -13.678  0.00  0.00    -0.315 N 
ATOM      3  C   UNL     1      32.118 -23.612 -15.387  0.00  0.00    +0.062 C 
ATOM      4  C   UNL     1      31.581 -24.486 -14.446  0.00  0.00    +0.059 C 
ATOM      5  C   UNL     1      31.341 -22.899 -16.302  0.00  0.00    +0.052 C 
ATOM      6  C   UNL     1      29.958 -23.097 -16.241  0.00  0.00    +0.140 C 
ATOM      7  C   UNL     1      30.189 -24.672 -14.399  0.00  0.00    +0.019 C 
ATOM      8  C   UNL     1      29.390 -23.967 -15.307  0.00  0.00    +0.038 C 
ATOM      9  C   UNL     1      33.693 -24.534 -14.137  0.00  0.00    +0.182 C 
ATOM     10  H   UNL     1      34.158 -23.161 -15.661  0.00  0.00    +0.148 HD
ATOM     11  H   UNL     1      32.471 -25.697 -12.944  0.00  0.00    +0.148 HD
ENDROOT
BRANCH   6  12
ATOM     12  O   UNL     1      29.149 -22.426 -17.111  0.00  0.00    -0.471 OA
ATOM     13  C   UNL     1      27.748 -22.669 -17.009  0.00  0.00    +0.252 C 
ENDBRANCH   6  12
TORSDOF 1
ENDMDL
MODEL 9
REMARK VINA RESULT:      -6.0      5.110      6.918
REMARK  Name = 78598
REMARK  1 active torsions:
REMARK  status: ('A' for Active; 'I' for Inactive)
REMARK    1  A    between atoms: C_6  and  O_12
REMARK                            x       y       z     vdW  Elec       q    Type
REMARK                         _______ _______ _______ _____ _____    ______ ____
ROOT
ATOM      1  N   UNL     1      33.256 -14.063 -24.294  0.00  0.00    -0.315 N 
ATOM      2  N   UNL     1      33.340 -15.337 -26.112  0.00  0.00    -0.315 N 
ATOM      3  C   UNL     1      33.884 -15.217 -23.902  0.00  0.00    +0.062 C 
ATOM      4  C   UNL     1      33.925 -15.997 -25.054  0.00  0.00    +0.059 C 
ATOM      5  C   UNL     1      34.404 -15.634 -22.676  0.00  0.00    +0.052 C 
ATOM      6  C   UNL     1      34.988 -16.905 -22.639  0.00  0.00    +0.140 C 
ATOM      7  C   UNL     1      34.516 -17.270 -24.999  0.00  0.00    +0.019 C 
ATOM      8  C   UNL     1      35.044 -17.709 -23.779  0.00  0.00    +0.038 C 
ATOM      9  C   UNL     1      32.951 -14.183 -25.621  0.00  0.00    +0.182 C 
ATOM     10  H   UNL     1      33.059 -13.287 -23.721  0.00  0.00    +0.148 HD
ATOM     11  H   UNL     1      33.237 -15.662 -27.036  0.00  0.00    +0.148 HD
ENDROOT
BRANCH   6  12
ATOM     12  O   UNL     1      35.513 -17.364 -21.467  0.00  0.00    -0.471 OA
ATOM     13  C   UNL     1      36.123 -18.653 -21.494  0.00  0.00    +0.252 C 
ENDBRANCH   6  12
TORSDOF 1
ENDMDL
