MODEL 1
REMARK VINA RESULT:      -9.8      0.000      0.000
REMARK  Name = 5335
REMARK  5 active torsions:
REMARK  status: ('A' for Active; 'I' for Inactive)
REMARK    1  A    between atoms: N_1  and  C_5
REMARK    2  A    between atoms: N_1  and  S_14
REMARK    3  A    between atoms: N_3  and  C_8
REMARK    4  A    between atoms: S_14  and  C_17
REMARK    5  A    between atoms: C_22  and  N_23
REMARK                            x       y       z     vdW  Elec       q    Type
REMARK                         _______ _______ _______ _____ _____    ______ ____
ROOT
ATOM      1  N   UNL     1      34.547 -22.796 -17.124  0.00  0.00    -0.201 N 
ATOM      2  H   UNL     1      35.470 -22.455 -17.095  0.00  0.00    +0.175 HD
ENDROOT
BRANCH   1   5
ATOM      3  N   UNL     1      34.501 -24.149 -14.989  0.00  0.00    -0.175 N 
ATOM      4  N   UNL     1      33.649 -24.503 -14.004  0.00  0.00    -0.171 NA
ATOM      5  C   UNL     1      33.920 -23.350 -15.939  0.00  0.00    +0.141 C 
ATOM      6  C   UNL     1      32.615 -23.174 -15.548  0.00  0.00    +0.055 C 
ATOM      7  C   UNL     1      32.505 -23.906 -14.351  0.00  0.00    +0.121 C 
BRANCH   3   8
ATOM      8  C   UNL     1      35.812 -24.589 -14.973  0.00  0.00    +0.075 C 
ATOM      9  C   UNL     1      36.089 -25.956 -15.003  0.00  0.00    +0.017 C 
ATOM     10  C   UNL     1      36.856 -23.666 -14.926  0.00  0.00    +0.017 C 
ATOM     11  C   UNL     1      37.412 -26.399 -14.986  0.00  0.00    +0.001 C 
ATOM     12  C   UNL     1      38.179 -24.110 -14.910  0.00  0.00    +0.001 C 
ATOM     13  C   UNL     1      38.457 -25.477 -14.940  0.00  0.00    +0.000 C 
ENDBRANCH   3   8
ENDBRANCH   1   5
BRANCH   1  14
ATOM     14  S   UNL     1      33.638 -22.755 -18.574  0.00  0.00    +0.075 S 
ATOM     15  O   UNL     1      33.863 -23.997 -19.290  0.00  0.00    -0.150 OA
ATOM     16  O   UNL     1      32.283 -22.311 -18.309  0.00  0.00    -0.150 OA
BRANCH  14  17
ATOM     17  C   UNL     1      34.453 -21.479 -19.491  0.00  0.00    +0.125 C 
ATOM     18  C   UNL     1      33.693 -20.589 -20.228  0.00  0.00    +0.021 C 
ATOM     19  C   UNL     1      35.834 -21.400 -19.454  0.00  0.00    +0.021 C 
ATOM     20  C   UNL     1      34.336 -19.585 -20.953  0.00  0.00    +0.015 C 
ATOM     21  C   UNL     1      36.476 -20.396 -20.178  0.00  0.00    +0.015 C 
ATOM     22  C   UNL     1      35.727 -19.488 -20.927  0.00  0.00    +0.042 C 
BRANCH  22  23
ATOM     23  N   UNL     1      36.377 -18.473 -21.658  0.00  0.00    -0.357 N 
ATOM     24  H   UNL     1      35.951 -18.093 -22.461  0.00  0.00    +0.142 HD
ATOM     25  H   UNL     1      37.257 -18.141 -21.365  0.00  0.00    +0.142 HD
ENDBRANCH  22  23
ENDBRANCH  14  17
ENDBRANCH   1  14
TORSDOF 5
ENDMDL
MODEL 2
REMARK VINA RESULT:      -9.6      4.931     10.128
REMARK  Name = 5335
REMARK  5 active torsions:
REMARK  status: ('A' for Active; 'I' for Inactive)
REMARK    1  A    between atoms: N_1  and  C_5
REMARK    2  A    between atoms: N_1  and  S_14
REMARK    3  A    between atoms: N_3  and  C_8
REMARK    4  A    between atoms: S_14  and  C_17
REMARK    5  A    between atoms: C_22  and  N_23
REMARK                            x       y       z     vdW  Elec       q    Type
REMARK                         _______ _______ _______ _____ _____    ______ ____
ROOT
ATOM      1  N   UNL     1      34.737 -17.065 -22.375  0.00  0.00    -0.201 N 
ATOM      2  H   UNL     1      34.546 -16.680 -21.489  0.00  0.00    +0.175 HD
ENDROOT
BRANCH   1   5
ATOM      3  N   UNL     1      33.518 -15.275 -23.679  0.00  0.00    -0.175 N 
ATOM      4  N   UNL     1      33.257 -14.919 -24.954  0.00  0.00    -0.171 NA
ATOM      5  C   UNL     1      34.280 -16.411 -23.586  0.00  0.00    +0.141 C 
ATOM      6  C   UNL     1      34.528 -16.815 -24.875  0.00  0.00    +0.055 C 
ATOM      7  C   UNL     1      33.875 -15.858 -25.675  0.00  0.00    +0.121 C 
BRANCH   3   8
ATOM      8  C   UNL     1      33.031 -14.523 -22.626  0.00  0.00    +0.075 C 
ATOM      9  C   UNL     1      33.095 -15.022 -21.325  0.00  0.00    +0.017 C 
ATOM     10  C   UNL     1      32.474 -13.267 -22.866  0.00  0.00    +0.017 C 
ATOM     11  C   UNL     1      32.602 -14.262 -20.263  0.00  0.00    +0.001 C 
ATOM     12  C   UNL     1      31.983 -12.508 -21.804  0.00  0.00    +0.001 C 
ATOM     13  C   UNL     1      32.047 -13.005 -20.502  0.00  0.00    +0.000 C 
ENDBRANCH   3   8
ENDBRANCH   1   5
BRANCH   1  14
ATOM     14  S   UNL     1      35.616 -18.526 -22.529  0.00  0.00    +0.075 S 
ATOM     15  O   UNL     1      35.369 -19.071 -23.851  0.00  0.00    -0.150 OA
ATOM     16  O   UNL     1      36.979 -18.347 -22.067  0.00  0.00    -0.150 OA
BRANCH  14  17
ATOM     17  C   UNL     1      34.789 -19.585 -21.376  0.00  0.00    +0.125 C 
ATOM     18  C   UNL     1      35.537 -20.464 -20.614  0.00  0.00    +0.021 C 
ATOM     19  C   UNL     1      33.413 -19.512 -21.263  0.00  0.00    +0.021 C 
ATOM     20  C   UNL     1      34.885 -21.300 -19.707  0.00  0.00    +0.015 C 
ATOM     21  C   UNL     1      32.762 -20.347 -20.355  0.00  0.00    +0.015 C 
ATOM     22  C   UNL     1      33.497 -21.241 -19.577  0.00  0.00    +0.042 C 
BRANCH  22  23
ATOM     23  N   UNL     1      32.838 -22.084 -18.659  0.00  0.00    -0.357 N 
ATOM     24  H   UNL     1      33.295 -22.882 -18.307  0.00  0.00    +0.142 HD
ATOM     25  H   UNL     1      31.921 -21.874 -18.369  0.00  0.00    +0.142 HD
ENDBRANCH  22  23
ENDBRANCH  14  17
ENDBRANCH   1  14
TORSDOF 5
ENDMDL
MODEL 3
REMARK VINA RESULT:      -9.6      4.932     10.101
REMARK  Name = 5335
REMARK  5 active torsions:
REMARK  status: ('A' for Active; 'I' for Inactive)
REMARK    1  A    between atoms: N_1  and  C_5
REMARK    2  A    between atoms: N_1  and  S_14
REMARK    3  A    between atoms: N_3  and  C_8
REMARK    4  A    between atoms: S_14  and  C_17
REMARK    5  A    between atoms: C_22  and  N_23
REMARK                            x       y       z     vdW  Elec       q    Type
REMARK                         _______ _______ _______ _____ _____    ______ ____
ROOT
ATOM      1  N   UNL     1      34.753 -17.066 -22.373  0.00  0.00    -0.201 N 
ATOM      2  H   UNL     1      34.566 -16.679 -21.487  0.00  0.00    +0.175 HD
ENDROOT
BRANCH   1   5
ATOM      3  N   UNL     1      33.524 -15.282 -23.676  0.00  0.00    -0.175 N 
ATOM      4  N   UNL     1      33.260 -14.927 -24.951  0.00  0.00    -0.171 NA
ATOM      5  C   UNL     1      34.291 -16.414 -23.583  0.00  0.00    +0.141 C 
ATOM      6  C   UNL     1      34.541 -16.817 -24.873  0.00  0.00    +0.055 C 
ATOM      7  C   UNL     1      33.882 -15.863 -25.672  0.00  0.00    +0.121 C 
BRANCH   3   8
ATOM      8  C   UNL     1      33.034 -14.532 -22.623  0.00  0.00    +0.075 C 
ATOM      9  C   UNL     1      32.476 -13.276 -22.863  0.00  0.00    +0.017 C 
ATOM     10  C   UNL     1      33.100 -15.029 -21.322  0.00  0.00    +0.017 C 
ATOM     11  C   UNL     1      31.982 -12.519 -21.800  0.00  0.00    +0.001 C 
ATOM     12  C   UNL     1      32.606 -14.272 -20.260  0.00  0.00    +0.001 C 
ATOM     13  C   UNL     1      32.047 -13.017 -20.499  0.00  0.00    +0.000 C 
ENDBRANCH   3   8
ENDBRANCH   1   5
BRANCH   1  14
ATOM     14  S   UNL     1      35.629 -18.528 -22.527  0.00  0.00    +0.075 S 
ATOM     15  O   UNL     1      35.384 -19.070 -23.850  0.00  0.00    -0.150 OA
ATOM     16  O   UNL     1      36.992 -18.353 -22.061  0.00  0.00    -0.150 OA
BRANCH  14  17
ATOM     17  C   UNL     1      34.797 -19.587 -21.377  0.00  0.00    +0.125 C 
ATOM     18  C   UNL     1      33.420 -19.512 -21.268  0.00  0.00    +0.021 C 
ATOM     19  C   UNL     1      35.541 -20.465 -20.611  0.00  0.00    +0.021 C 
ATOM     20  C   UNL     1      32.765 -20.345 -20.361  0.00  0.00    +0.015 C 
ATOM     21  C   UNL     1      34.885 -21.298 -19.704  0.00  0.00    +0.015 C 
ATOM     22  C   UNL     1      33.498 -21.239 -19.579  0.00  0.00    +0.042 C 
BRANCH  22  23
ATOM     23  N   UNL     1      32.836 -22.081 -18.663  0.00  0.00    -0.357 N 
ATOM     24  H   UNL     1      31.894 -21.912 -18.429  0.00  0.00    +0.142 HD
ATOM     25  H   UNL     1      33.315 -22.841 -18.259  0.00  0.00    +0.142 HD
ENDBRANCH  22  23
ENDBRANCH  14  17
ENDBRANCH   1  14
TORSDOF 5
ENDMDL
MODEL 4
REMARK VINA RESULT:      -9.5      6.437      9.204
REMARK  Name = 5335
REMARK  5 active torsions:
REMARK  status: ('A' for Active; 'I' for Inactive)
REMARK    1  A    between atoms: N_1  and  C_5
REMARK    2  A    between atoms: N_1  and  S_14
REMARK    3  A    between atoms: N_3  and  C_8
REMARK    4  A    between atoms: S_14  and  C_17
REMARK    5  A    between atoms: C_22  and  N_23
REMARK                            x       y       z     vdW  Elec       q    Type
REMARK                         _______ _______ _______ _____ _____    ______ ____
ROOT
ATOM      1  N   UNL     1      35.059 -15.764 -22.574  0.00  0.00    -0.201 N 
ATOM      2  H   UNL     1      35.853 -15.194 -22.686  0.00  0.00    +0.175 HD
ENDROOT
BRANCH   1   5
ATOM      3  N   UNL     1      34.818 -18.129 -23.437  0.00  0.00    -0.175 N 
ATOM      4  N   UNL     1      34.420 -18.793 -24.543  0.00  0.00    -0.171 NA
ATOM      5  C   UNL     1      34.716 -16.767 -23.564  0.00  0.00    +0.141 C 
ATOM      6  C   UNL     1      34.223 -16.535 -24.825  0.00  0.00    +0.055 C 
ATOM      7  C   UNL     1      34.059 -17.817 -25.381  0.00  0.00    +0.121 C 
BRANCH   3   8
ATOM      8  C   UNL     1      35.273 -18.820 -22.329  0.00  0.00    +0.075 C 
ATOM      9  C   UNL     1      36.587 -18.650 -21.892  0.00  0.00    +0.017 C 
ATOM     10  C   UNL     1      34.418 -19.687 -21.650  0.00  0.00    +0.017 C 
ATOM     11  C   UNL     1      37.045 -19.348 -20.774  0.00  0.00    +0.001 C 
ATOM     12  C   UNL     1      34.876 -20.385 -20.532  0.00  0.00    +0.001 C 
ATOM     13  C   UNL     1      36.190 -20.215 -20.094  0.00  0.00    +0.000 C 
ENDBRANCH   3   8
ENDBRANCH   1   5
BRANCH   1  14
ATOM     14  S   UNL     1      34.042 -15.599 -21.207  0.00  0.00    +0.075 S 
ATOM     15  O   UNL     1      33.049 -16.657 -21.245  0.00  0.00    -0.150 OA
ATOM     16  O   UNL     1      34.835 -15.398 -20.009  0.00  0.00    -0.150 OA
BRANCH  14  17
ATOM     17  C   UNL     1      33.192 -14.085 -21.553  0.00  0.00    +0.125 C 
ATOM     18  C   UNL     1      32.430 -13.499 -20.558  0.00  0.00    +0.021 C 
ATOM     19  C   UNL     1      33.306 -13.521 -22.810  0.00  0.00    +0.021 C 
ATOM     20  C   UNL     1      31.759 -12.307 -20.831  0.00  0.00    +0.015 C 
ATOM     21  C   UNL     1      32.635 -12.329 -23.082  0.00  0.00    +0.015 C 
ATOM     22  C   UNL     1      31.862 -11.722 -22.093  0.00  0.00    +0.042 C 
BRANCH  22  23
ATOM     23  N   UNL     1      31.185 -10.516 -22.369  0.00  0.00    -0.357 N 
ATOM     24  H   UNL     1      30.481 -10.195 -21.759  0.00  0.00    +0.142 HD
ATOM     25  H   UNL     1      31.416  -9.994 -23.172  0.00  0.00    +0.142 HD
ENDBRANCH  22  23
ENDBRANCH  14  17
ENDBRANCH   1  14
TORSDOF 5
ENDMDL
MODEL 5
REMARK VINA RESULT:      -9.4      2.432      4.910
REMARK  Name = 5335
REMARK  5 active torsions:
REMARK  status: ('A' for Active; 'I' for Inactive)
REMARK    1  A    between atoms: N_1  and  C_5
REMARK    2  A    between atoms: N_1  and  S_14
REMARK    3  A    between atoms: N_3  and  C_8
REMARK    4  A    between atoms: S_14  and  C_17
REMARK    5  A    between atoms: C_22  and  N_23
REMARK                            x       y       z     vdW  Elec       q    Type
REMARK                         _______ _______ _______ _____ _____    ______ ____
ROOT
ATOM      1  N   UNL     1      32.680 -22.702 -17.160  0.00  0.00    -0.201 N 
ATOM      2  H   UNL     1      31.995 -22.057 -17.449  0.00  0.00    +0.175 HD
ENDROOT
BRANCH   1   5
ATOM      3  N   UNL     1      31.450 -23.684 -15.181  0.00  0.00    -0.175 N 
ATOM      4  N   UNL     1      31.701 -24.289 -14.002  0.00  0.00    -0.171 NA
ATOM      5  C   UNL     1      32.590 -23.358 -15.870  0.00  0.00    +0.141 C 
ATOM      6  C   UNL     1      33.642 -23.776 -15.091  0.00  0.00    +0.055 C 
ATOM      7  C   UNL     1      33.035 -24.342 -13.954  0.00  0.00    +0.121 C 
BRANCH   3   8
ATOM      8  C   UNL     1      30.149 -23.449 -15.587  0.00  0.00    +0.075 C 
ATOM      9  C   UNL     1      29.461 -22.333 -15.108  0.00  0.00    +0.017 C 
ATOM     10  C   UNL     1      29.525 -24.328 -16.471  0.00  0.00    +0.017 C 
ATOM     11  C   UNL     1      28.148 -22.097 -15.517  0.00  0.00    +0.001 C 
ATOM     12  C   UNL     1      28.212 -24.091 -16.880  0.00  0.00    +0.001 C 
ATOM     13  C   UNL     1      27.524 -22.975 -16.403  0.00  0.00    +0.000 C 
ENDBRANCH   3   8
ENDBRANCH   1   5
BRANCH   1  14
ATOM     14  S   UNL     1      34.013 -23.079 -18.166  0.00  0.00    +0.075 S 
ATOM     15  O   UNL     1      35.220 -23.031 -17.362  0.00  0.00    -0.150 OA
ATOM     16  O   UNL     1      33.727 -24.255 -18.966  0.00  0.00    -0.150 OA
BRANCH  14  17
ATOM     17  C   UNL     1      34.067 -21.685 -19.255  0.00  0.00    +0.125 C 
ATOM     18  C   UNL     1      32.883 -21.059 -19.606  0.00  0.00    +0.021 C 
ATOM     19  C   UNL     1      35.289 -21.251 -19.735  0.00  0.00    +0.021 C 
ATOM     20  C   UNL     1      32.926 -19.961 -20.466  0.00  0.00    +0.015 C 
ATOM     21  C   UNL     1      35.330 -20.153 -20.594  0.00  0.00    +0.015 C 
ATOM     22  C   UNL     1      34.149 -19.508 -20.960  0.00  0.00    +0.042 C 
BRANCH  22  23
ATOM     23  N   UNL     1      34.192 -18.398 -21.828  0.00  0.00    -0.357 N 
ATOM     24  H   UNL     1      33.361 -17.927 -22.067  0.00  0.00    +0.142 HD
ATOM     25  H   UNL     1      35.054 -18.092 -22.193  0.00  0.00    +0.142 HD
ENDBRANCH  22  23
ENDBRANCH  14  17
ENDBRANCH   1  14
TORSDOF 5
ENDMDL
MODEL 6
REMARK VINA RESULT:      -9.3      4.476      9.773
REMARK  Name = 5335
REMARK  5 active torsions:
REMARK  status: ('A' for Active; 'I' for Inactive)
REMARK    1  A    between atoms: N_1  and  C_5
REMARK    2  A    between atoms: N_1  and  S_14
REMARK    3  A    between atoms: N_3  and  C_8
REMARK    4  A    between atoms: S_14  and  C_17
REMARK    5  A    between atoms: C_22  and  N_23
REMARK                            x       y       z     vdW  Elec       q    Type
REMARK                         _______ _______ _______ _____ _____    ______ ____
ROOT
ATOM      1  N   UNL     1      33.819 -17.760 -21.889  0.00  0.00    -0.201 N 
ATOM      2  H   UNL     1      32.881 -18.028 -22.023  0.00  0.00    +0.175 HD
ENDROOT
BRANCH   1   5
ATOM      3  N   UNL     1      34.144 -15.293 -22.337  0.00  0.00    -0.175 N 
ATOM      4  N   UNL     1      34.518 -14.164 -21.699  0.00  0.00    -0.171 NA
ATOM      5  C   UNL     1      34.161 -16.398 -21.526  0.00  0.00    +0.141 C 
ATOM      6  C   UNL     1      34.569 -15.961 -20.289  0.00  0.00    +0.055 C 
ATOM      7  C   UNL     1      34.774 -14.578 -20.455  0.00  0.00    +0.121 C 
BRANCH   3   8
ATOM      8  C   UNL     1      33.794 -15.259 -23.675  0.00  0.00    +0.075 C 
ATOM      9  C   UNL     1      34.193 -16.291 -24.525  0.00  0.00    +0.017 C 
ATOM     10  C   UNL     1      33.046 -14.194 -24.173  0.00  0.00    +0.017 C 
ATOM     11  C   UNL     1      33.840 -16.257 -25.875  0.00  0.00    +0.001 C 
ATOM     12  C   UNL     1      32.694 -14.160 -25.522  0.00  0.00    +0.001 C 
ATOM     13  C   UNL     1      33.091 -15.192 -26.373  0.00  0.00    +0.000 C 
ENDBRANCH   3   8
ENDBRANCH   1   5
BRANCH   1  14
ATOM     14  S   UNL     1      35.093 -18.888 -22.080  0.00  0.00    +0.075 S 
ATOM     15  O   UNL     1      34.944 -19.530 -23.373  0.00  0.00    -0.150 OA
ATOM     16  O   UNL     1      36.361 -18.285 -21.717  0.00  0.00    -0.150 OA
BRANCH  14  17
ATOM     17  C   UNL     1      34.702 -20.105 -20.856  0.00  0.00    +0.125 C 
ATOM     18  C   UNL     1      33.377 -20.328 -20.527  0.00  0.00    +0.021 C 
ATOM     19  C   UNL     1      35.730 -20.806 -20.251  0.00  0.00    +0.021 C 
ATOM     20  C   UNL     1      33.070 -21.285 -19.560  0.00  0.00    +0.015 C 
ATOM     21  C   UNL     1      35.422 -21.764 -19.285  0.00  0.00    +0.015 C 
ATOM     22  C   UNL     1      34.092 -22.004 -18.940  0.00  0.00    +0.042 C 
BRANCH  22  23
ATOM     23  N   UNL     1      33.782 -22.973 -17.964  0.00  0.00    -0.357 N 
ATOM     24  H   UNL     1      33.669 -23.916 -18.224  0.00  0.00    +0.142 HD
ATOM     25  H   UNL     1      33.679 -22.707 -17.021  0.00  0.00    +0.142 HD
ENDBRANCH  22  23
ENDBRANCH  14  17
ENDBRANCH   1  14
TORSDOF 5
ENDMDL
MODEL 7
REMARK VINA RESULT:      -9.2      2.930      4.533
REMARK  Name = 5335
REMARK  5 active torsions:
REMARK  status: ('A' for Active; 'I' for Inactive)
REMARK    1  A    between atoms: N_1  and  C_5
REMARK    2  A    between atoms: N_1  and  S_14
REMARK    3  A    between atoms: N_3  and  C_8
REMARK    4  A    between atoms: S_14  and  C_17
REMARK    5  A    between atoms: C_22  and  N_23
REMARK                            x       y       z     vdW  Elec       q    Type
REMARK                         _______ _______ _______ _____ _____    ______ ____
ROOT
ATOM      1  N   UNL     1      35.730 -22.536 -14.460  0.00  0.00    -0.201 N 
ATOM      2  H   UNL     1      35.417 -21.602 -14.452  0.00  0.00    +0.175 HD
ENDROOT
BRANCH   1   5
ATOM      3  N   UNL     1      34.434 -24.022 -12.877  0.00  0.00    -0.175 N 
ATOM      4  N   UNL     1      34.613 -24.738 -11.748  0.00  0.00    -0.171 NA
ATOM      5  C   UNL     1      35.573 -23.384 -13.293  0.00  0.00    +0.141 C 
ATOM      6  C   UNL     1      36.549 -23.704 -12.381  0.00  0.00    +0.055 C 
ATOM      7  C   UNL     1      35.901 -24.541 -11.453  0.00  0.00    +0.121 C 
BRANCH   3   8
ATOM      8  C   UNL     1      33.197 -23.983 -13.495  0.00  0.00    +0.075 C 
ATOM      9  C   UNL     1      32.631 -22.757 -13.845  0.00  0.00    +0.017 C 
ATOM     10  C   UNL     1      32.515 -25.169 -13.765  0.00  0.00    +0.017 C 
ATOM     11  C   UNL     1      31.383 -22.718 -14.467  0.00  0.00    +0.001 C 
ATOM     12  C   UNL     1      31.267 -25.129 -14.387  0.00  0.00    +0.001 C 
ATOM     13  C   UNL     1      30.701 -23.904 -14.738  0.00  0.00    +0.000 C 
ENDBRANCH   3   8
ENDBRANCH   1   5
BRANCH   1  14
ATOM     14  S   UNL     1      36.475 -23.203 -15.849  0.00  0.00    +0.075 S 
ATOM     15  O   UNL     1      37.729 -22.509 -16.073  0.00  0.00    -0.150 OA
ATOM     16  O   UNL     1      36.455 -24.652 -15.787  0.00  0.00    -0.150 OA
BRANCH  14  17
ATOM     17  C   UNL     1      35.374 -22.703 -17.142  0.00  0.00    +0.125 C 
ATOM     18  C   UNL     1      34.047 -23.092 -17.084  0.00  0.00    +0.021 C 
ATOM     19  C   UNL     1      35.862 -21.935 -18.183  0.00  0.00    +0.021 C 
ATOM     20  C   UNL     1      33.181 -22.699 -18.104  0.00  0.00    +0.015 C 
ATOM     21  C   UNL     1      34.995 -21.542 -19.202  0.00  0.00    +0.015 C 
ATOM     22  C   UNL     1      33.654 -21.924 -19.163  0.00  0.00    +0.042 C 
BRANCH  22  23
ATOM     23  N   UNL     1      32.778 -21.525 -20.193  0.00  0.00    -0.357 N 
ATOM     24  H   UNL     1      31.949 -22.031 -20.358  0.00  0.00    +0.142 HD
ATOM     25  H   UNL     1      32.994 -20.740 -20.746  0.00  0.00    +0.142 HD
ENDBRANCH  22  23
ENDBRANCH  14  17
ENDBRANCH   1  14
TORSDOF 5
ENDMDL
MODEL 8
REMARK VINA RESULT:      -9.2      4.931     10.251
REMARK  Name = 5335
REMARK  5 active torsions:
REMARK  status: ('A' for Active; 'I' for Inactive)
REMARK    1  A    between atoms: N_1  and  C_5
REMARK    2  A    between atoms: N_1  and  S_14
REMARK    3  A    between atoms: N_3  and  C_8
REMARK    4  A    between atoms: S_14  and  C_17
REMARK    5  A    between atoms: C_22  and  N_23
REMARK                            x       y       z     vdW  Elec       q    Type
REMARK                         _______ _______ _______ _____ _____    ______ ____
ROOT
ATOM      1  N   UNL     1      34.101 -17.488 -22.902  0.00  0.00    -0.201 N 
ATOM      2  H   UNL     1      33.330 -17.616 -23.500  0.00  0.00    +0.175 HD
ENDROOT
BRANCH   1   5
ATOM      3  N   UNL     1      34.122 -14.980 -22.583  0.00  0.00    -0.175 N 
ATOM      4  N   UNL     1      34.327 -14.060 -21.618  0.00  0.00    -0.171 NA
ATOM      5  C   UNL     1      34.253 -16.268 -22.132  0.00  0.00    +0.141 C 
ATOM      6  C   UNL     1      34.561 -16.178 -20.797  0.00  0.00    +0.055 C 
ATOM      7  C   UNL     1      34.592 -14.796 -20.535  0.00  0.00    +0.121 C 
BRANCH   3   8
ATOM      8  C   UNL     1      33.816 -14.587 -23.874  0.00  0.00    +0.075 C 
ATOM      9  C   UNL     1      33.595 -15.548 -24.860  0.00  0.00    +0.017 C 
ATOM     10  C   UNL     1      33.730 -13.231 -24.187  0.00  0.00    +0.017 C 
ATOM     11  C   UNL     1      33.287 -15.151 -26.162  0.00  0.00    +0.001 C 
ATOM     12  C   UNL     1      33.422 -12.835 -25.489  0.00  0.00    +0.001 C 
ATOM     13  C   UNL     1      33.200 -13.795 -26.476  0.00  0.00    +0.000 C 
ENDBRANCH   3   8
ENDBRANCH   1   5
BRANCH   1  14
ATOM     14  S   UNL     1      35.301 -18.698 -22.742  0.00  0.00    +0.075 S 
ATOM     15  O   UNL     1      35.329 -19.479 -23.965  0.00  0.00    -0.150 OA
ATOM     16  O   UNL     1      36.530 -18.127 -22.224  0.00  0.00    -0.150 OA
BRANCH  14  17
ATOM     17  C   UNL     1      34.618 -19.740 -21.484  0.00  0.00    +0.125 C 
ATOM     18  C   UNL     1      35.464 -20.554 -20.751  0.00  0.00    +0.021 C 
ATOM     19  C   UNL     1      33.254 -19.720 -21.260  0.00  0.00    +0.021 C 
ATOM     20  C   UNL     1      34.926 -21.376 -19.762  0.00  0.00    +0.015 C 
ATOM     21  C   UNL     1      32.716 -20.541 -20.269  0.00  0.00    +0.015 C 
ATOM     22  C   UNL     1      33.551 -21.369 -19.520  0.00  0.00    +0.042 C 
BRANCH  22  23
ATOM     23  N   UNL     1      33.007 -22.199 -18.518  0.00  0.00    -0.357 N 
ATOM     24  H   UNL     1      33.591 -22.578 -17.822  0.00  0.00    +0.142 HD
ATOM     25  H   UNL     1      32.043 -22.397 -18.514  0.00  0.00    +0.142 HD
ENDBRANCH  22  23
ENDBRANCH  14  17
ENDBRANCH   1  14
TORSDOF 5
ENDMDL
MODEL 9
REMARK VINA RESULT:      -9.2      6.126     11.283
REMARK  Name = 5335
REMARK  5 active torsions:
REMARK  status: ('A' for Active; 'I' for Inactive)
REMARK    1  A    between atoms: N_1  and  C_5
REMARK    2  A    between atoms: N_1  and  S_14
REMARK    3  A    between atoms: N_3  and  C_8
REMARK    4  A    between atoms: S_14  and  C_17
REMARK    5  A    between atoms: C_22  and  N_23
REMARK                            x       y       z     vdW  Elec       q    Type
REMARK                         _______ _______ _______ _____ _____    ______ ____
ROOT
ATOM      1  N   UNL     1      34.929 -15.419 -22.772  0.00  0.00    -0.201 N 
ATOM      2  H   UNL     1      35.874 -15.142 -22.739  0.00  0.00    +0.175 HD
ENDROOT
BRANCH   1   5
ATOM      3  N   UNL     1      33.459 -14.471 -24.597  0.00  0.00    -0.175 N 
ATOM      4  N   UNL     1      32.913 -14.828 -25.778  0.00  0.00    -0.171 NA
ATOM      5  C   UNL     1      34.210 -15.468 -24.031  0.00  0.00    +0.141 C 
ATOM      6  C   UNL     1      34.149 -16.534 -24.895  0.00  0.00    +0.055 C 
ATOM      7  C   UNL     1      33.337 -16.083 -25.953  0.00  0.00    +0.121 C 
BRANCH   3   8
ATOM      8  C   UNL     1      33.236 -13.210 -24.074  0.00  0.00    +0.075 C 
ATOM      9  C   UNL     1      32.321 -13.039 -23.035  0.00  0.00    +0.017 C 
ATOM     10  C   UNL     1      33.925 -12.111 -24.586  0.00  0.00    +0.017 C 
ATOM     11  C   UNL     1      32.096 -11.766 -22.508  0.00  0.00    +0.001 C 
ATOM     12  C   UNL     1      33.700 -10.840 -24.059  0.00  0.00    +0.001 C 
ATOM     13  C   UNL     1      32.786 -10.667 -23.020  0.00  0.00    +0.000 C 
ENDBRANCH   3   8
ENDBRANCH   1   5
BRANCH   1  14
ATOM     14  S   UNL     1      34.089 -15.854 -21.345  0.00  0.00    +0.075 S 
ATOM     15  O   UNL     1      34.652 -15.105 -20.237  0.00  0.00    -0.150 OA
ATOM     16  O   UNL     1      32.657 -15.835 -21.575  0.00  0.00    -0.150 OA
BRANCH  14  17
ATOM     17  C   UNL     1      34.577 -17.542 -21.123  0.00  0.00    +0.125 C 
ATOM     18  C   UNL     1      33.602 -18.504 -20.928  0.00  0.00    +0.021 C 
ATOM     19  C   UNL     1      35.922 -17.863 -21.147  0.00  0.00    +0.021 C 
ATOM     20  C   UNL     1      33.987 -19.833 -20.751  0.00  0.00    +0.015 C 
ATOM     21  C   UNL     1      36.306 -19.192 -20.970  0.00  0.00    +0.015 C 
ATOM     22  C   UNL     1      35.339 -20.177 -20.773  0.00  0.00    +0.042 C 
BRANCH  22  23
ATOM     23  N   UNL     1      35.728 -21.521 -20.596  0.00  0.00    -0.357 N 
ATOM     24  H   UNL     1      35.155 -22.136 -20.083  0.00  0.00    +0.142 HD
ATOM     25  H   UNL     1      36.572 -21.844 -20.986  0.00  0.00    +0.142 HD
ENDBRANCH  22  23
ENDBRANCH  14  17
ENDBRANCH   1  14
TORSDOF 5
ENDMDL
