MODEL 1
REMARK VINA RESULT:      -6.4      0.000      0.000
REMARK  Name = 100773
REMARK  5 active torsions:
REMARK  status: ('A' for Active; 'I' for Inactive)
REMARK    1  A    between atoms: N_2  and  C_8
REMARK    2  A    between atoms: N_3  and  N_7
REMARK    3  A    between atoms: N_3  and  C_14
REMARK    4  A    between atoms: C_8  and  C_11
REMARK    5  A    between atoms: C_14  and  C_16
REMARK                            x       y       z     vdW  Elec       q    Type
REMARK                         _______ _______ _______ _____ _____    ______ ____
ROOT
ATOM      1  O   UNL     1      37.531 -23.110 -13.592  0.00  0.00    -0.251 OA
ATOM      2  N   UNL     1      38.033 -25.346 -13.365  0.00  0.00    -0.253 N 
ATOM      3  N   UNL     1      36.042 -24.399 -12.405  0.00  0.00    -0.163 N 
ATOM      4  C   UNL     1      37.217 -24.223 -13.148  0.00  0.00    +0.324 C 
ATOM      5  C   UNL     1      37.490 -26.700 -13.462  0.00  0.00    +0.117 C 
ENDROOT
BRANCH   3   7
ATOM      6  O   UNL     1      35.305 -25.099 -10.354  0.00  0.00    -0.078 OA
ATOM      7  N   UNL     1      35.950 -25.450 -11.349  0.00  0.00    +0.054 NA
ENDBRANCH   3   7
BRANCH   2   8
ATOM      8  C   UNL     1      39.478 -25.242 -13.511  0.00  0.00    +0.180 C 
BRANCH   8  11
ATOM      9  O   UNL     1      40.585 -26.216 -15.432  0.00  0.00    -0.273 OA
ATOM     10  N   UNL     1      39.320 -24.318 -15.722  0.00  0.00    -0.327 N 
ATOM     11  C   UNL     1      39.852 -25.345 -14.972  0.00  0.00    +0.240 C 
ATOM     12  H   UNL     1      39.493 -24.275 -16.690  0.00  0.00    +0.145 HD
ATOM     13  H   UNL     1      38.766 -23.628 -15.290  0.00  0.00    +0.145 HD
ENDBRANCH   8  11
ENDBRANCH   2   8
BRANCH   3  14
ATOM     14  C   UNL     1      34.873 -23.561 -12.641  0.00  0.00    +0.134 C 
BRANCH  14  16
ATOM     15 CL   UNL     1      34.043 -23.167 -15.212  0.00  0.00    -0.112 Cl
ATOM     16  C   UNL     1      33.956 -24.127 -13.713  0.00  0.00    +0.118 C 
ENDBRANCH  14  16
ENDBRANCH   3  14
TORSDOF 5
ENDMDL
MODEL 2
REMARK VINA RESULT:      -5.9      2.561      3.459
REMARK  Name = 100773
REMARK  5 active torsions:
REMARK  status: ('A' for Active; 'I' for Inactive)
REMARK    1  A    between atoms: N_2  and  C_8
REMARK    2  A    between atoms: N_3  and  N_7
REMARK    3  A    between atoms: N_3  and  C_14
REMARK    4  A    between atoms: C_8  and  C_11
REMARK    5  A    between atoms: C_14  and  C_16
REMARK                            x       y       z     vdW  Elec       q    Type
REMARK                         _______ _______ _______ _____ _____    ______ ____
ROOT
ATOM      1  O   UNL     1      34.616 -24.082 -12.325  0.00  0.00    -0.251 OA
ATOM      2  N   UNL     1      36.622 -23.777 -13.415  0.00  0.00    -0.253 N 
ATOM      3  N   UNL     1      34.592 -24.233 -14.619  0.00  0.00    -0.163 N 
ATOM      4  C   UNL     1      35.240 -24.031 -13.394  0.00  0.00    +0.324 C 
ATOM      5  C   UNL     1      37.275 -23.095 -14.530  0.00  0.00    +0.117 C 
ENDROOT
BRANCH   3   7
ATOM      6  O   UNL     1      35.615 -26.011 -15.634  0.00  0.00    -0.078 OA
ATOM      7  N   UNL     1      35.315 -24.821 -15.785  0.00  0.00    +0.054 NA
ENDBRANCH   3   7
BRANCH   2   8
ATOM      8  C   UNL     1      37.504 -24.177 -12.326  0.00  0.00    +0.180 C 
BRANCH   8  11
ATOM      9  O   UNL     1      37.105 -26.503 -11.786  0.00  0.00    -0.273 OA
ATOM     10  N   UNL     1      38.847 -25.972 -13.188  0.00  0.00    -0.327 N 
ATOM     11  C   UNL     1      37.760 -25.665 -12.398  0.00  0.00    +0.240 C 
ATOM     12  H   UNL     1      39.115 -26.911 -13.313  0.00  0.00    +0.145 HD
ATOM     13  H   UNL     1      39.356 -25.252 -13.627  0.00  0.00    +0.145 HD
ENDBRANCH   8  11
ENDBRANCH   2   8
BRANCH   3  14
ATOM     14  C   UNL     1      33.188 -23.875 -14.793  0.00  0.00    +0.134 C 
BRANCH  14  16
ATOM     15 CL   UNL     1      31.165 -22.942 -16.371  0.00  0.00    -0.112 Cl
ATOM     16  C   UNL     1      32.881 -23.391 -16.201  0.00  0.00    +0.118 C 
ENDBRANCH  14  16
ENDBRANCH   3  14
TORSDOF 5
ENDMDL
MODEL 3
REMARK VINA RESULT:      -5.9      3.300      5.025
REMARK  Name = 100773
REMARK  5 active torsions:
REMARK  status: ('A' for Active; 'I' for Inactive)
REMARK    1  A    between atoms: N_2  and  C_8
REMARK    2  A    between atoms: N_3  and  N_7
REMARK    3  A    between atoms: N_3  and  C_14
REMARK    4  A    between atoms: C_8  and  C_11
REMARK    5  A    between atoms: C_14  and  C_16
REMARK                            x       y       z     vdW  Elec       q    Type
REMARK                         _______ _______ _______ _____ _____    ______ ____
ROOT
ATOM      1  O   UNL     1      37.450 -23.187 -15.440  0.00  0.00    -0.251 OA
ATOM      2  N   UNL     1      35.313 -23.877 -14.930  0.00  0.00    -0.253 N 
ATOM      3  N   UNL     1      37.116 -25.447 -15.183  0.00  0.00    -0.163 N 
ATOM      4  C   UNL     1      36.672 -24.118 -15.196  0.00  0.00    +0.324 C 
ATOM      5  C   UNL     1      34.522 -24.739 -14.055  0.00  0.00    +0.117 C 
ENDROOT
BRANCH   3   7
ATOM      6  O   UNL     1      36.715 -27.402 -16.304  0.00  0.00    -0.078 OA
ATOM      7  N   UNL     1      36.201 -26.568 -15.550  0.00  0.00    +0.054 NA
ENDBRANCH   3   7
BRANCH   2   8
ATOM      8  C   UNL     1      34.596 -22.749 -15.508  0.00  0.00    +0.180 C 
BRANCH   8  11
ATOM      9  O   UNL     1      34.680 -23.188 -17.888  0.00  0.00    -0.273 OA
ATOM     10  N   UNL     1      32.670 -23.393 -16.791  0.00  0.00    -0.327 N 
ATOM     11  C   UNL     1      34.025 -23.142 -16.851  0.00  0.00    +0.240 C 
ATOM     12  H   UNL     1      32.182 -23.659 -17.604  0.00  0.00    +0.145 HD
ATOM     13  H   UNL     1      32.191 -23.306 -15.935  0.00  0.00    +0.145 HD
ENDBRANCH   8  11
ENDBRANCH   2   8
BRANCH   3  14
ATOM     14  C   UNL     1      38.488 -25.776 -14.813  0.00  0.00    +0.134 C 
BRANCH  14  16
ATOM     15 CL   UNL     1      37.391 -26.139 -12.339  0.00  0.00    -0.112 Cl
ATOM     16  C   UNL     1      38.757 -25.570 -13.331  0.00  0.00    +0.118 C 
ENDBRANCH  14  16
ENDBRANCH   3  14
TORSDOF 5
ENDMDL
MODEL 4
REMARK VINA RESULT:      -5.8      2.701      4.076
REMARK  Name = 100773
REMARK  5 active torsions:
REMARK  status: ('A' for Active; 'I' for Inactive)
REMARK    1  A    between atoms: N_2  and  C_8
REMARK    2  A    between atoms: N_3  and  N_7
REMARK    3  A    between atoms: N_3  and  C_14
REMARK    4  A    between atoms: C_8  and  C_11
REMARK    5  A    between atoms: C_14  and  C_16
REMARK                            x       y       z     vdW  Elec       q    Type
REMARK                         _______ _______ _______ _____ _____    ______ ____
ROOT
ATOM      1  O   UNL     1      34.351 -24.143 -12.542  0.00  0.00    -0.251 OA
ATOM      2  N   UNL     1      36.321 -23.882 -13.707  0.00  0.00    -0.253 N 
ATOM      3  N   UNL     1      34.185 -23.760 -14.803  0.00  0.00    -0.163 N 
ATOM      4  C   UNL     1      34.920 -23.937 -13.623  0.00  0.00    +0.324 C 
ATOM      5  C   UNL     1      37.014 -23.061 -14.697  0.00  0.00    +0.117 C 
ENDROOT
BRANCH   3   7
ATOM      6  O   UNL     1      34.497 -23.360 -17.035  0.00  0.00    -0.078 OA
ATOM      7  N   UNL     1      34.746 -24.161 -16.127  0.00  0.00    +0.054 NA
ENDBRANCH   3   7
BRANCH   2   8
ATOM      8  C   UNL     1      37.184 -24.640 -12.811  0.00  0.00    +0.180 C 
BRANCH   8  11
ATOM      9  O   UNL     1      38.854 -23.260 -11.729  0.00  0.00    -0.273 OA
ATOM     10  N   UNL     1      36.810 -23.532 -10.714  0.00  0.00    -0.327 N 
ATOM     11  C   UNL     1      37.721 -23.731 -11.729  0.00  0.00    +0.240 C 
ATOM     12  H   UNL     1      37.043 -22.957  -9.949  0.00  0.00    +0.145 HD
ATOM     13  H   UNL     1      35.926 -23.965 -10.753  0.00  0.00    +0.145 HD
ENDBRANCH   8  11
ENDBRANCH   2   8
BRANCH   3  14
ATOM     14  C   UNL     1      32.848 -23.178 -14.775  0.00  0.00    +0.134 C 
BRANCH  14  16
ATOM     15 CL   UNL     1      31.237 -25.010 -13.549  0.00  0.00    -0.112 Cl
ATOM     16  C   UNL     1      31.760 -24.204 -15.049  0.00  0.00    +0.118 C 
ENDBRANCH  14  16
ENDBRANCH   3  14
TORSDOF 5
ENDMDL
MODEL 5
REMARK VINA RESULT:      -5.8      2.562      3.207
REMARK  Name = 100773
REMARK  5 active torsions:
REMARK  status: ('A' for Active; 'I' for Inactive)
REMARK    1  A    between atoms: N_2  and  C_8
REMARK    2  A    between atoms: N_3  and  N_7
REMARK    3  A    between atoms: N_3  and  C_14
REMARK    4  A    between atoms: C_8  and  C_11
REMARK    5  A    between atoms: C_14  and  C_16
REMARK                            x       y       z     vdW  Elec       q    Type
REMARK                         _______ _______ _______ _____ _____    ______ ____
ROOT
ATOM      1  O   UNL     1      37.706 -23.037 -15.071  0.00  0.00    -0.251 OA
ATOM      2  N   UNL     1      37.360 -25.274 -14.645  0.00  0.00    -0.253 N 
ATOM      3  N   UNL     1      35.588 -23.855 -15.435  0.00  0.00    -0.163 N 
ATOM      4  C   UNL     1      36.928 -24.001 -15.054  0.00  0.00    +0.324 C 
ATOM      5  C   UNL     1      36.774 -26.505 -15.170  0.00  0.00    +0.117 C 
ENDROOT
BRANCH   3   7
ATOM      6  O   UNL     1      34.200 -24.384 -13.693  0.00  0.00    -0.078 OA
ATOM      7  N   UNL     1      34.520 -24.713 -14.841  0.00  0.00    +0.054 NA
ENDBRANCH   3   7
BRANCH   2   8
ATOM      8  C   UNL     1      38.424 -25.457 -13.666  0.00  0.00    +0.180 C 
BRANCH   8  11
ATOM      9  O   UNL     1      37.142 -26.204 -11.752  0.00  0.00    -0.273 OA
ATOM     10  N   UNL     1      38.187 -24.159 -11.660  0.00  0.00    -0.327 N 
ATOM     11  C   UNL     1      37.856 -25.350 -12.270  0.00  0.00    +0.240 C 
ATOM     12  H   UNL     1      37.875 -23.970 -10.745  0.00  0.00    +0.145 HD
ATOM     13  H   UNL     1      38.736 -23.496 -12.139  0.00  0.00    +0.145 HD
ENDBRANCH   8  11
ENDBRANCH   2   8
BRANCH   3  14
ATOM     14  C   UNL     1      35.193 -22.857 -16.423  0.00  0.00    +0.134 C 
BRANCH  14  16
ATOM     15 CL   UNL     1      33.663 -22.354 -18.627  0.00  0.00    -0.112 Cl
ATOM     16  C   UNL     1      33.841 -23.160 -17.049  0.00  0.00    +0.118 C 
ENDBRANCH  14  16
ENDBRANCH   3  14
TORSDOF 5
ENDMDL
MODEL 6
REMARK VINA RESULT:      -5.8      8.081      9.549
REMARK  Name = 100773
REMARK  5 active torsions:
REMARK  status: ('A' for Active; 'I' for Inactive)
REMARK    1  A    between atoms: N_2  and  C_8
REMARK    2  A    between atoms: N_3  and  N_7
REMARK    3  A    between atoms: N_3  and  C_14
REMARK    4  A    between atoms: C_8  and  C_11
REMARK    5  A    between atoms: C_14  and  C_16
REMARK                            x       y       z     vdW  Elec       q    Type
REMARK                         _______ _______ _______ _____ _____    ______ ____
ROOT
ATOM      1  O   UNL     1      32.572 -20.230 -19.888  0.00  0.00    -0.251 OA
ATOM      2  N   UNL     1      34.586 -21.346 -19.891  0.00  0.00    -0.253 N 
ATOM      3  N   UNL     1      34.281 -19.299 -21.113  0.00  0.00    -0.163 N 
ATOM      4  C   UNL     1      33.748 -20.286 -20.274  0.00  0.00    +0.324 C 
ATOM      5  C   UNL     1      36.032 -21.187 -19.744  0.00  0.00    +0.117 C 
ENDROOT
BRANCH   3   7
ATOM      6  O   UNL     1      34.997 -19.578 -23.269  0.00  0.00    -0.078 OA
ATOM      7  N   UNL     1      35.364 -19.621 -22.089  0.00  0.00    +0.054 NA
ENDBRANCH   3   7
BRANCH   2   8
ATOM      8  C   UNL     1      34.075 -22.681 -19.612  0.00  0.00    +0.180 C 
BRANCH   8  11
ATOM      9  O   UNL     1      34.564 -23.098 -17.277  0.00  0.00    -0.273 OA
ATOM     10  N   UNL     1      32.405 -22.599 -17.887  0.00  0.00    -0.327 N 
ATOM     11  C   UNL     1      33.744 -22.804 -18.142  0.00  0.00    +0.240 C 
ATOM     12  H   UNL     1      32.065 -22.652 -16.965  0.00  0.00    +0.145 HD
ATOM     13  H   UNL     1      31.788 -22.399 -18.628  0.00  0.00    +0.145 HD
ENDBRANCH   8  11
ENDBRANCH   2   8
BRANCH   3  14
ATOM     14  C   UNL     1      33.794 -17.925 -21.060  0.00  0.00    +0.134 C 
BRANCH  14  16
ATOM     15 CL   UNL     1      34.318 -15.303 -20.508  0.00  0.00    -0.112 Cl
ATOM     16  C   UNL     1      34.922 -16.909 -20.988  0.00  0.00    +0.118 C 
ENDBRANCH  14  16
ENDBRANCH   3  14
TORSDOF 5
ENDMDL
MODEL 7
REMARK VINA RESULT:      -5.8      2.741      3.703
REMARK  Name = 100773
REMARK  5 active torsions:
REMARK  status: ('A' for Active; 'I' for Inactive)
REMARK    1  A    between atoms: N_2  and  C_8
REMARK    2  A    between atoms: N_3  and  N_7
REMARK    3  A    between atoms: N_3  and  C_14
REMARK    4  A    between atoms: C_8  and  C_11
REMARK    5  A    between atoms: C_14  and  C_16
REMARK                            x       y       z     vdW  Elec       q    Type
REMARK                         _______ _______ _______ _____ _____    ______ ____
ROOT
ATOM      1  O   UNL     1      34.324 -24.545 -12.844  0.00  0.00    -0.251 OA
ATOM      2  N   UNL     1      36.274 -24.451 -14.065  0.00  0.00    -0.253 N 
ATOM      3  N   UNL     1      34.169 -23.769 -15.003  0.00  0.00    -0.163 N 
ATOM      4  C   UNL     1      34.890 -24.268 -13.910  0.00  0.00    +0.324 C 
ATOM      5  C   UNL     1      37.080 -23.615 -14.952  0.00  0.00    +0.117 C 
ENDROOT
BRANCH   3   7
ATOM      6  O   UNL     1      34.522 -23.056 -17.149  0.00  0.00    -0.078 OA
ATOM      7  N   UNL     1      34.608 -24.039 -16.404  0.00  0.00    +0.054 NA
ENDBRANCH   3   7
BRANCH   2   8
ATOM      8  C   UNL     1      37.006 -25.489 -13.352  0.00  0.00    +0.180 C 
BRANCH   8  11
ATOM      9  O   UNL     1      38.529 -26.968 -14.519  0.00  0.00    -0.273 OA
ATOM     10  N   UNL     1      36.278 -27.119 -14.959  0.00  0.00    -0.327 N 
ATOM     11  C   UNL     1      37.377 -26.600 -14.308  0.00  0.00    +0.240 C 
ATOM     12  H   UNL     1      36.390 -27.850 -15.609  0.00  0.00    +0.145 HD
ATOM     13  H   UNL     1      35.380 -26.760 -14.773  0.00  0.00    +0.145 HD
ENDBRANCH   8  11
ENDBRANCH   2   8
BRANCH   3  14
ATOM     14  C   UNL     1      32.964 -22.970 -14.805  0.00  0.00    +0.134 C 
BRANCH  14  16
ATOM     15 CL   UNL     1      30.897 -22.849 -16.585  0.00  0.00    -0.112 Cl
ATOM     16  C   UNL     1      31.704 -23.699 -15.242  0.00  0.00    +0.118 C 
ENDBRANCH  14  16
ENDBRANCH   3  14
TORSDOF 5
ENDMDL
MODEL 8
REMARK VINA RESULT:      -5.7      3.036      4.382
REMARK  Name = 100773
REMARK  5 active torsions:
REMARK  status: ('A' for Active; 'I' for Inactive)
REMARK    1  A    between atoms: N_2  and  C_8
REMARK    2  A    between atoms: N_3  and  N_7
REMARK    3  A    between atoms: N_3  and  C_14
REMARK    4  A    between atoms: C_8  and  C_11
REMARK    5  A    between atoms: C_14  and  C_16
REMARK                            x       y       z     vdW  Elec       q    Type
REMARK                         _______ _______ _______ _____ _____    ______ ____
ROOT
ATOM      1  O   UNL     1      37.785 -22.767 -14.203  0.00  0.00    -0.251 OA
ATOM      2  N   UNL     1      36.734 -24.816 -14.158  0.00  0.00    -0.253 N 
ATOM      3  N   UNL     1      36.203 -23.165 -15.823  0.00  0.00    -0.163 N 
ATOM      4  C   UNL     1      36.955 -23.540 -14.703  0.00  0.00    +0.324 C 
ATOM      5  C   UNL     1      36.315 -25.953 -14.975  0.00  0.00    +0.117 C 
ENDROOT
BRANCH   3   7
ATOM      6  O   UNL     1      33.962 -23.154 -15.356  0.00  0.00    -0.078 OA
ATOM      7  N   UNL     1      34.829 -23.706 -16.044  0.00  0.00    +0.054 NA
ENDBRANCH   3   7
BRANCH   2   8
ATOM      8  C   UNL     1      36.906 -25.098 -12.740  0.00  0.00    +0.180 C 
BRANCH   8  11
ATOM      9  O   UNL     1      35.305 -25.148 -10.924  0.00  0.00    -0.273 OA
ATOM     10  N   UNL     1      35.003 -23.635 -12.628  0.00  0.00    -0.327 N 
ATOM     11  C   UNL     1      35.681 -24.645 -11.978  0.00  0.00    +0.240 C 
ATOM     12  H   UNL     1      34.187 -23.255 -12.230  0.00  0.00    +0.145 HD
ATOM     13  H   UNL     1      35.336 -23.294 -13.490  0.00  0.00    +0.145 HD
ENDBRANCH   8  11
ENDBRANCH   2   8
BRANCH   3  14
ATOM     14  C   UNL     1      36.738 -22.233 -16.810  0.00  0.00    +0.134 C 
BRANCH  14  16
ATOM     15 CL   UNL     1      36.648 -21.317 -19.380  0.00  0.00    -0.112 Cl
ATOM     16  C   UNL     1      35.796 -22.023 -17.984  0.00  0.00    +0.118 C 
ENDBRANCH  14  16
ENDBRANCH   3  14
TORSDOF 5
ENDMDL
MODEL 9
REMARK VINA RESULT:      -5.7      7.273      8.514
REMARK  Name = 100773
REMARK  5 active torsions:
REMARK  status: ('A' for Active; 'I' for Inactive)
REMARK    1  A    between atoms: N_2  and  C_8
REMARK    2  A    between atoms: N_3  and  N_7
REMARK    3  A    between atoms: N_3  and  C_14
REMARK    4  A    between atoms: C_8  and  C_11
REMARK    5  A    between atoms: C_14  and  C_16
REMARK                            x       y       z     vdW  Elec       q    Type
REMARK                         _______ _______ _______ _____ _____    ______ ____
ROOT
ATOM      1  O   UNL     1      36.449 -20.667 -19.413  0.00  0.00    -0.251 OA
ATOM      2  N   UNL     1      34.409 -20.473 -20.463  0.00  0.00    -0.253 N 
ATOM      3  N   UNL     1      34.804 -22.144 -18.781  0.00  0.00    -0.163 N 
ATOM      4  C   UNL     1      35.285 -21.071 -19.542  0.00  0.00    +0.324 C 
ATOM      5  C   UNL     1      32.964 -20.424 -20.249  0.00  0.00    +0.117 C 
ENDROOT
BRANCH   3   7
ATOM      6  O   UNL     1      34.193 -24.056 -19.881  0.00  0.00    -0.078 OA
ATOM      7  N   UNL     1      33.746 -23.053 -19.314  0.00  0.00    +0.054 NA
ENDBRANCH   3   7
BRANCH   2   8
ATOM      8  C   UNL     1      34.877 -19.858 -21.698  0.00  0.00    +0.180 C 
BRANCH   8  11
ATOM      9  O   UNL     1      34.101 -17.637 -22.268  0.00  0.00    -0.273 OA
ATOM     10  N   UNL     1      35.694 -17.869 -20.627  0.00  0.00    -0.327 N 
ATOM     11  C   UNL     1      34.816 -18.353 -21.573  0.00  0.00    +0.240 C 
ATOM     12  H   UNL     1      35.747 -16.902 -20.453  0.00  0.00    +0.145 HD
ATOM     13  H   UNL     1      36.268 -18.492 -20.123  0.00  0.00    +0.145 HD
ENDBRANCH   8  11
ENDBRANCH   2   8
BRANCH   3  14
ATOM     14  C   UNL     1      35.324 -22.409 -17.444  0.00  0.00    +0.134 C 
BRANCH  14  16
ATOM     15 CL   UNL     1      35.127 -23.849 -15.133  0.00  0.00    -0.112 Cl
ATOM     16  C   UNL     1      34.333 -23.162 -16.572  0.00  0.00    +0.118 C 
ENDBRANCH  14  16
ENDBRANCH   3  14
TORSDOF 5
ENDMDL
