MODEL 1
REMARK VINA RESULT:      -6.1      0.000      0.000
REMARK  Name = 5479537
REMARK  7 active torsions:
REMARK  status: ('A' for Active; 'I' for Inactive)
REMARK    1  A    between atoms: C_4  and  C_29
REMARK    2  A    between atoms: CA_6  and  N_11
REMARK    3  A    between atoms: CA_7  and  C_28
REMARK    4  A    between atoms: C_12  and  C_15
REMARK    5  A    between atoms: N_14  and  O_24
REMARK    6  A    between atoms: C_15  and  C_19
REMARK    7  A    between atoms: C_29  and  N_30
REMARK                            x       y       z     vdW  Elec       q    Type
REMARK                         _______ _______ _______ _____ _____    ______ ____
ROOT
ATOM      1  S   UNL     1     -33.258  25.940   1.512  0.00  0.00    -0.114 S 
ATOM      2  O   UNL     1     -34.378  26.327   6.009  0.00  0.00    -0.273 OA
ATOM      3  N   UNL     1     -34.606  25.620   3.774  0.00  0.00    -0.242 N 
ATOM      4  C   UNL     1     -34.839  23.754   2.347  0.00  0.00    -0.034 C 
ATOM      5  C   UNL     1     -34.441  26.593   2.712  0.00  0.00    +0.155 C 
ATOM      6  CA  UNL     1     -33.873  27.536   3.798  0.00  0.00    +0.179 C 
ATOM      7  CA  UNL     1     -34.928  24.317   3.575  0.00  0.00    +0.126 C 
ATOM      8  C   UNL     1     -34.288  24.483   1.124  0.00  0.00    +0.081 C 
ATOM      9  C   UNL     1     -34.340  26.445   4.808  0.00  0.00    +0.251 C 
ENDROOT
BRANCH   6  11
ATOM     10  O   UNL     1     -32.433  29.738   5.125  0.00  0.00    -0.268 OA
ATOM     11  N   UNL     1     -32.433  27.782   3.827  0.00  0.00    -0.291 N 
ATOM     12  C   UNL     1     -31.871  28.860   4.490  0.00  0.00    +0.269 C 
ATOM     13  H   UNL     1     -31.837  27.155   3.356  0.00  0.00    +0.150 HD
BRANCH  12  15
ATOM     14  N   UNL     1     -29.809  29.170   3.236  0.00  0.00    -0.076 NA
ATOM     15  C   UNL     1     -30.370  28.905   4.377  0.00  0.00    +0.198 C 
BRANCH  15  19
ATOM     16  S   UNL     1     -28.157  28.906   7.665  0.00  0.00    -0.060 S 
ATOM     17  N   UNL     1     -28.985  27.385   5.746  0.00  0.00    -0.383 NA
ATOM     18  N   UNL     1     -27.592  26.329   7.338  0.00  0.00    -0.328 N 
ATOM     19  C   UNL     1     -29.510  28.645   5.537  0.00  0.00    +0.148 C 
ATOM     20  C   UNL     1     -29.173  29.601   6.471  0.00  0.00    +0.127 C 
ATOM     21  C   UNL     1     -28.255  27.405   6.839  0.00  0.00    +0.204 C 
ATOM     22  H   UNL     1     -27.062  26.416   8.163  0.00  0.00    +0.145 HD
ATOM     23  H   UNL     1     -27.640  25.462   6.873  0.00  0.00    +0.145 HD
ENDBRANCH  15  19
BRANCH  14  24
ATOM     24  O   UNL     1     -30.759  29.387   2.228  0.00  0.00    -0.373 OA
ATOM     25  C   UNL     1     -30.293  28.760   1.043  0.00  0.00    +0.288 C 
ENDBRANCH  14  24
ENDBRANCH  12  15
ENDBRANCH   6  11
BRANCH   7  28
ATOM     26  O   UNL     1     -36.600  23.454   4.979  0.00  0.00    -0.239 OA
ATOM     27  OXT UNL     1     -34.412  22.940   5.404  0.00  0.00    -0.239 OA
ATOM     28  C   UNL     1     -35.358  23.484   4.777  0.00  0.00    +0.401 C 
ENDBRANCH   7  28
BRANCH   4  29
ATOM     29  C   UNL     1     -35.198  22.322   2.028  0.00  0.00    -0.048 C 
BRANCH  29  30
ATOM     30  N   UNL     1     -36.504  22.210   1.255  0.00  0.00    +0.391 N 
ATOM     31  C   UNL     1     -37.311  23.520   1.364  0.00  0.00    -0.073 C 
ATOM     32  C   UNL     1     -37.398  21.113   1.871  0.00  0.00    -0.073 C 
ATOM     33  C   UNL     1     -38.442  23.194   2.320  0.00  0.00    -0.024 C 
ATOM     34  C   UNL     1     -38.767  21.755   1.987  0.00  0.00    -0.024 C 
ATOM     35  C   UNL     1     -36.200  21.896  -0.201  0.00  0.00    -0.095 C 
ENDBRANCH  29  30
ENDBRANCH   4  29
TORSDOF 7
ENDMDL
MODEL 2
REMARK VINA RESULT:      -6.0      3.237      5.826
REMARK  Name = 5479537
REMARK  7 active torsions:
REMARK  status: ('A' for Active; 'I' for Inactive)
REMARK    1  A    between atoms: C_4  and  C_29
REMARK    2  A    between atoms: CA_6  and  N_11
REMARK    3  A    between atoms: CA_7  and  C_28
REMARK    4  A    between atoms: C_12  and  C_15
REMARK    5  A    between atoms: N_14  and  O_24
REMARK    6  A    between atoms: C_15  and  C_19
REMARK    7  A    between atoms: C_29  and  N_30
REMARK                            x       y       z     vdW  Elec       q    Type
REMARK                         _______ _______ _______ _____ _____    ______ ____
ROOT
ATOM      1  S   UNL     1     -33.937  23.459   0.396  0.00  0.00    -0.114 S 
ATOM      2  O   UNL     1     -37.928  22.028   2.307  0.00  0.00    -0.273 OA
ATOM      3  N   UNL     1     -36.291  22.259   0.630  0.00  0.00    -0.242 N 
ATOM      4  C   UNL     1     -34.866  21.106  -0.858  0.00  0.00    -0.034 C 
ATOM      5  C   UNL     1     -35.740  23.574   0.365  0.00  0.00    +0.155 C 
ATOM      6  CA  UNL     1     -36.426  24.017   1.678  0.00  0.00    +0.179 C 
ATOM      7  CA  UNL     1     -35.957  21.137  -0.058  0.00  0.00    +0.126 C 
ATOM      8  C   UNL     1     -33.880  22.264  -0.983  0.00  0.00    +0.081 C 
ATOM      9  C   UNL     1     -37.098  22.611   1.652  0.00  0.00    +0.251 C 
ENDROOT
BRANCH   6  11
ATOM     10  O   UNL     1     -36.873  25.934   3.871  0.00  0.00    -0.268 OA
ATOM     11  N   UNL     1     -35.595  24.245   2.859  0.00  0.00    -0.291 N 
ATOM     12  C   UNL     1     -35.913  25.182   3.828  0.00  0.00    +0.269 C 
ATOM     13  H   UNL     1     -34.776  23.710   2.971  0.00  0.00    +0.150 HD
BRANCH  12  15
ATOM     14  N   UNL     1     -34.900  24.321   5.866  0.00  0.00    -0.076 NA
ATOM     15  C   UNL     1     -34.906  25.238   4.947  0.00  0.00    +0.198 C 
BRANCH  15  19
ATOM     16  S   UNL     1     -32.326  28.206   4.452  0.00  0.00    -0.060 S 
ATOM     17  N   UNL     1     -33.382  26.679   6.251  0.00  0.00    -0.383 NA
ATOM     18  N   UNL     1     -31.821  28.259   7.062  0.00  0.00    -0.328 N 
ATOM     19  C   UNL     1     -33.919  26.320   5.030  0.00  0.00    +0.148 C 
ATOM     20  C   UNL     1     -33.469  27.035   3.940  0.00  0.00    +0.127 C 
ATOM     21  C   UNL     1     -32.530  27.664   6.067  0.00  0.00    +0.204 C 
ATOM     22  H   UNL     1     -31.199  28.993   6.852  0.00  0.00    +0.145 HD
ATOM     23  H   UNL     1     -31.928  27.957   7.993  0.00  0.00    +0.145 HD
ENDBRANCH  15  19
BRANCH  14  24
ATOM     24  O   UNL     1     -35.902  23.364   5.652  0.00  0.00    -0.373 OA
ATOM     25  C   UNL     1     -35.511  22.164   6.302  0.00  0.00    +0.288 C 
ENDBRANCH  14  24
ENDBRANCH  12  15
ENDBRANCH   6  11
BRANCH   7  28
ATOM     26  O   UNL     1     -36.480  19.153   1.082  0.00  0.00    -0.239 OA
ATOM     27  OXT UNL     1     -37.754  19.777  -0.712  0.00  0.00    -0.239 OA
ATOM     28  C   UNL     1     -36.820  19.893   0.122  0.00  0.00    +0.401 C 
ENDBRANCH   7  28
BRANCH   4  29
ATOM     29  C   UNL     1     -34.433  19.913  -1.677  0.00  0.00    -0.048 C 
BRANCH  29  30
ATOM     30  N   UNL     1     -33.221  19.211  -1.083  0.00  0.00    +0.391 N 
ATOM     31  C   UNL     1     -33.426  17.681  -1.088  0.00  0.00    -0.073 C 
ATOM     32  C   UNL     1     -33.047  19.606   0.399  0.00  0.00    -0.073 C 
ATOM     33  C   UNL     1     -33.702  17.327   0.360  0.00  0.00    -0.024 C 
ATOM     34  C   UNL     1     -32.821  18.292   1.122  0.00  0.00    -0.024 C 
ATOM     35  C   UNL     1     -31.983  19.581  -1.884  0.00  0.00    -0.095 C 
ENDBRANCH  29  30
ENDBRANCH   4  29
TORSDOF 7
ENDMDL
MODEL 3
REMARK VINA RESULT:      -5.8      2.643      9.011
REMARK  Name = 5479537
REMARK  7 active torsions:
REMARK  status: ('A' for Active; 'I' for Inactive)
REMARK    1  A    between atoms: C_4  and  C_29
REMARK    2  A    between atoms: CA_6  and  N_11
REMARK    3  A    between atoms: CA_7  and  C_28
REMARK    4  A    between atoms: C_12  and  C_15
REMARK    5  A    between atoms: N_14  and  O_24
REMARK    6  A    between atoms: C_15  and  C_19
REMARK    7  A    between atoms: C_29  and  N_30
REMARK                            x       y       z     vdW  Elec       q    Type
REMARK                         _______ _______ _______ _____ _____    ______ ____
ROOT
ATOM      1  S   UNL     1     -34.195  26.027   5.186  0.00  0.00    -0.114 S 
ATOM      2  O   UNL     1     -34.654  26.725   0.612  0.00  0.00    -0.273 OA
ATOM      3  N   UNL     1     -34.046  27.234   2.829  0.00  0.00    -0.242 N 
ATOM      4  C   UNL     1     -32.276  27.876   4.254  0.00  0.00    -0.034 C 
ATOM      5  C   UNL     1     -35.003  26.993   3.891  0.00  0.00    +0.155 C 
ATOM      6  CA  UNL     1     -35.816  26.198   2.843  0.00  0.00    +0.179 C 
ATOM      7  CA  UNL     1     -32.817  27.779   3.017  0.00  0.00    +0.126 C 
ATOM      8  C   UNL     1     -32.935  27.308   5.508  0.00  0.00    +0.081 C 
ATOM      9  C   UNL     1     -34.792  26.759   1.811  0.00  0.00    +0.251 C 
ENDROOT
BRANCH   6  11
ATOM     10  O   UNL     1     -38.052  24.433   3.598  0.00  0.00    -0.268 OA
ATOM     11  N   UNL     1     -35.825  24.739   2.924  0.00  0.00    -0.291 N 
ATOM     12  C   UNL     1     -36.946  24.016   3.294  0.00  0.00    +0.269 C 
ATOM     13  H   UNL     1     -34.999  24.249   2.706  0.00  0.00    +0.150 HD
BRANCH  12  15
ATOM     14  N   UNL     1     -36.243  21.951   4.372  0.00  0.00    -0.076 NA
ATOM     15  C   UNL     1     -36.710  22.528   3.308  0.00  0.00    +0.198 C 
BRANCH  15  19
ATOM     16  S   UNL     1     -37.759  20.904  -0.152  0.00  0.00    -0.060 S 
ATOM     17  N   UNL     1     -36.640  20.366   2.115  0.00  0.00    -0.383 NA
ATOM     18  N   UNL     1     -36.795  18.547   0.613  0.00  0.00    -0.328 N 
ATOM     19  C   UNL     1     -36.994  21.701   2.130  0.00  0.00    +0.148 C 
ATOM     20  C   UNL     1     -37.610  22.174   0.990  0.00  0.00    +0.127 C 
ATOM     21  C   UNL     1     -36.995  19.845   0.962  0.00  0.00    +0.204 C 
ATOM     22  H   UNL     1     -37.087  18.224  -0.270  0.00  0.00    +0.145 HD
ATOM     23  H   UNL     1     -36.358  17.929   1.243  0.00  0.00    +0.145 HD
ENDBRANCH  15  19
BRANCH  14  24
ATOM     24  O   UNL     1     -36.018  22.871   5.406  0.00  0.00    -0.373 OA
ATOM     25  C   UNL     1     -35.314  22.204   6.443  0.00  0.00    +0.288 C 
ENDBRANCH  14  24
ENDBRANCH  12  15
ENDBRANCH   6  11
BRANCH   7  28
ATOM     26  O   UNL     1     -32.375  29.379   1.356  0.00  0.00    -0.239 OA
ATOM     27  OXT UNL     1     -31.162  27.439   1.388  0.00  0.00    -0.239 OA
ATOM     28  C   UNL     1     -32.037  28.247   1.793  0.00  0.00    +0.401 C 
ENDBRANCH   7  28
BRANCH   4  29
ATOM     29  C   UNL     1     -30.929  28.488   4.559  0.00  0.00    -0.048 C 
BRANCH  29  30
ATOM     30  N   UNL     1     -31.048  29.851   5.226  0.00  0.00    +0.391 N 
ATOM     31  C   UNL     1     -32.289  30.603   4.700  0.00  0.00    -0.073 C 
ATOM     32  C   UNL     1     -29.836  30.734   4.861  0.00  0.00    -0.073 C 
ATOM     33  C   UNL     1     -31.728  31.671   3.782  0.00  0.00    -0.024 C 
ATOM     34  C   UNL     1     -30.439  32.068   4.466  0.00  0.00    -0.024 C 
ATOM     35  C   UNL     1     -31.141  29.666   6.732  0.00  0.00    -0.095 C 
ENDBRANCH  29  30
ENDBRANCH   4  29
TORSDOF 7
ENDMDL
MODEL 4
REMARK VINA RESULT:      -5.8      3.985      7.061
REMARK  Name = 5479537
REMARK  7 active torsions:
REMARK  status: ('A' for Active; 'I' for Inactive)
REMARK    1  A    between atoms: C_4  and  C_29
REMARK    2  A    between atoms: CA_6  and  N_11
REMARK    3  A    between atoms: CA_7  and  C_28
REMARK    4  A    between atoms: C_12  and  C_15
REMARK    5  A    between atoms: N_14  and  O_24
REMARK    6  A    between atoms: C_15  and  C_19
REMARK    7  A    between atoms: C_29  and  N_30
REMARK                            x       y       z     vdW  Elec       q    Type
REMARK                         _______ _______ _______ _____ _____    ______ ____
ROOT
ATOM      1  S   UNL     1     -38.336  21.217   1.225  0.00  0.00    -0.114 S 
ATOM      2  O   UNL     1     -33.697  20.927   1.071  0.00  0.00    -0.273 OA
ATOM      3  N   UNL     1     -35.922  20.288   0.638  0.00  0.00    -0.242 N 
ATOM      4  C   UNL     1     -37.494  19.760  -1.042  0.00  0.00    -0.034 C 
ATOM      5  C   UNL     1     -36.874  20.283   1.731  0.00  0.00    +0.155 C 
ATOM      6  CA  UNL     1     -35.805  21.057   2.536  0.00  0.00    +0.179 C 
ATOM      7  CA  UNL     1     -36.212  19.905  -0.631  0.00  0.00    +0.126 C 
ATOM      8  C   UNL     1     -38.701  20.101  -0.172  0.00  0.00    +0.081 C 
ATOM      9  C   UNL     1     -34.863  20.753   1.333  0.00  0.00    +0.251 C 
ENDROOT
BRANCH   6  11
ATOM     10  O   UNL     1     -36.019  22.455   5.122  0.00  0.00    -0.268 OA
ATOM     11  N   UNL     1     -36.007  22.485   2.775  0.00  0.00    -0.291 N 
ATOM     12  C   UNL     1     -36.091  23.026   4.046  0.00  0.00    +0.269 C 
ATOM     13  H   UNL     1     -36.085  23.087   1.999  0.00  0.00    +0.150 HD
BRANCH  12  15
ATOM     14  N   UNL     1     -37.481  25.009   3.801  0.00  0.00    -0.076 NA
ATOM     15  C   UNL     1     -36.303  24.518   4.038  0.00  0.00    +0.198 C 
BRANCH  15  19
ATOM     16  S   UNL     1     -33.312  27.118   3.994  0.00  0.00    -0.060 S 
ATOM     17  N   UNL     1     -34.749  25.666   5.578  0.00  0.00    -0.383 NA
ATOM     18  N   UNL     1     -33.087  26.970   6.639  0.00  0.00    -0.328 N 
ATOM     19  C   UNL     1     -35.195  25.446   4.289  0.00  0.00    +0.148 C 
ATOM     20  C   UNL     1     -34.539  26.144   3.297  0.00  0.00    +0.127 C 
ATOM     21  C   UNL     1     -33.758  26.529   5.543  0.00  0.00    +0.204 C 
ATOM     22  H   UNL     1     -32.354  27.619   6.540  0.00  0.00    +0.145 HD
ATOM     23  H   UNL     1     -33.334  26.640   7.534  0.00  0.00    +0.145 HD
ENDBRANCH  15  19
BRANCH  14  24
ATOM     24  O   UNL     1     -38.429  24.000   3.575  0.00  0.00    -0.373 OA
ATOM     25  C   UNL     1     -39.556  24.589   2.944  0.00  0.00    +0.288 C 
ENDBRANCH  14  24
ENDBRANCH  12  15
ENDBRANCH   6  11
BRANCH   7  28
ATOM     26  O   UNL     1     -34.790  20.663  -2.338  0.00  0.00    -0.239 OA
ATOM     27  OXT UNL     1     -34.532  18.537  -1.534  0.00  0.00    -0.239 OA
ATOM     28  C   UNL     1     -35.059  19.678  -1.602  0.00  0.00    +0.401 C 
ENDBRANCH   7  28
BRANCH   4  29
ATOM     29  C   UNL     1     -37.910  19.317  -2.426  0.00  0.00    -0.048 C 
BRANCH  29  30
ATOM     30  N   UNL     1     -38.088  17.809  -2.522  0.00  0.00    +0.391 N 
ATOM     31  C   UNL     1     -39.545  17.459  -2.891  0.00  0.00    -0.073 C 
ATOM     32  C   UNL     1     -37.833  17.151  -1.149  0.00  0.00    -0.073 C 
ATOM     33  C   UNL     1     -40.150  16.934  -1.604  0.00  0.00    -0.024 C 
ATOM     34  C   UNL     1     -38.997  16.197  -0.959  0.00  0.00    -0.024 C 
ATOM     35  C   UNL     1     -37.131  17.256  -3.566  0.00  0.00    -0.095 C 
ENDBRANCH  29  30
ENDBRANCH   4  29
TORSDOF 7
ENDMDL
MODEL 5
REMARK VINA RESULT:      -5.7      3.286      9.038
REMARK  Name = 5479537
REMARK  7 active torsions:
REMARK  status: ('A' for Active; 'I' for Inactive)
REMARK    1  A    between atoms: C_4  and  C_29
REMARK    2  A    between atoms: CA_6  and  N_11
REMARK    3  A    between atoms: CA_7  and  C_28
REMARK    4  A    between atoms: C_12  and  C_15
REMARK    5  A    between atoms: N_14  and  O_24
REMARK    6  A    between atoms: C_15  and  C_19
REMARK    7  A    between atoms: C_29  and  N_30
REMARK                            x       y       z     vdW  Elec       q    Type
REMARK                         _______ _______ _______ _____ _____    ______ ____
ROOT
ATOM      1  S   UNL     1     -35.082  28.289   1.941  0.00  0.00    -0.114 S 
ATOM      2  O   UNL     1     -32.097  27.239   5.349  0.00  0.00    -0.273 OA
ATOM      3  N   UNL     1     -32.943  28.433   3.504  0.00  0.00    -0.242 N 
ATOM      4  C   UNL     1     -33.583  30.559   2.701  0.00  0.00    -0.034 C 
ATOM      5  C   UNL     1     -33.426  27.694   2.354  0.00  0.00    +0.155 C 
ATOM      6  CA  UNL     1     -33.348  26.438   3.251  0.00  0.00    +0.179 C 
ATOM      7  CA  UNL     1     -32.905  29.788   3.582  0.00  0.00    +0.126 C 
ATOM      8  C   UNL     1     -34.511  29.995   1.628  0.00  0.00    +0.081 C 
ATOM      9  C   UNL     1     -32.633  27.370   4.275  0.00  0.00    +0.251 C 
ENDROOT
BRANCH   6  11
ATOM     10  O   UNL     1     -34.602  23.880   2.497  0.00  0.00    -0.268 OA
ATOM     11  N   UNL     1     -34.592  25.861   3.756  0.00  0.00    -0.291 N 
ATOM     12  C   UNL     1     -35.082  24.641   3.321  0.00  0.00    +0.269 C 
ATOM     13  H   UNL     1     -35.103  26.359   4.435  0.00  0.00    +0.150 HD
BRANCH  12  15
ATOM     14  N   UNL     1     -36.374  23.692   5.153  0.00  0.00    -0.076 NA
ATOM     15  C   UNL     1     -36.380  24.257   3.984  0.00  0.00    +0.198 C 
BRANCH  15  19
ATOM     16  S   UNL     1     -39.716  25.620   2.335  0.00  0.00    -0.060 S 
ATOM     17  N   UNL     1     -38.433  23.442   2.878  0.00  0.00    -0.383 NA
ATOM     18  N   UNL     1     -40.510  23.142   1.789  0.00  0.00    -0.328 N 
ATOM     19  C   UNL     1     -37.670  24.502   3.331  0.00  0.00    +0.148 C 
ATOM     20  C   UNL     1     -38.201  25.758   3.125  0.00  0.00    +0.127 C 
ATOM     21  C   UNL     1     -39.534  23.913   2.335  0.00  0.00    +0.204 C 
ATOM     22  H   UNL     1     -41.309  23.562   1.399  0.00  0.00    +0.145 HD
ATOM     23  H   UNL     1     -40.417  22.161   1.782  0.00  0.00    +0.145 HD
ENDBRANCH  15  19
BRANCH  14  24
ATOM     24  O   UNL     1     -35.070  23.521   5.640  0.00  0.00    -0.373 OA
ATOM     25  C   UNL     1     -34.916  22.160   6.015  0.00  0.00    +0.288 C 
ENDBRANCH  14  24
ENDBRANCH  12  15
ENDBRANCH   6  11
BRANCH   7  28
ATOM     26  O   UNL     1     -30.902  30.665   4.438  0.00  0.00    -0.239 OA
ATOM     27  OXT UNL     1     -32.762  30.626   5.769  0.00  0.00    -0.239 OA
ATOM     28  C   UNL     1     -32.107  30.426   4.714  0.00  0.00    +0.401 C 
ENDBRANCH   7  28
BRANCH   4  29
ATOM     29  C   UNL     1     -33.579  32.070   2.697  0.00  0.00    -0.048 C 
BRANCH  29  30
ATOM     30  N   UNL     1     -32.522  32.644   1.767  0.00  0.00    +0.391 N 
ATOM     31  C   UNL     1     -31.578  33.590   2.539  0.00  0.00    -0.073 C 
ATOM     32  C   UNL     1     -33.183  33.512   0.675  0.00  0.00    -0.073 C 
ATOM     33  C   UNL     1     -31.987  34.982   2.100  0.00  0.00    -0.024 C 
ATOM     34  C   UNL     1     -32.361  34.786   0.647  0.00  0.00    -0.024 C 
ATOM     35  C   UNL     1     -31.732  31.505   1.141  0.00  0.00    -0.095 C 
ENDBRANCH  29  30
ENDBRANCH   4  29
TORSDOF 7
ENDMDL
MODEL 6
REMARK VINA RESULT:      -5.7      1.974      2.509
REMARK  Name = 5479537
REMARK  7 active torsions:
REMARK  status: ('A' for Active; 'I' for Inactive)
REMARK    1  A    between atoms: C_4  and  C_29
REMARK    2  A    between atoms: CA_6  and  N_11
REMARK    3  A    between atoms: CA_7  and  C_28
REMARK    4  A    between atoms: C_12  and  C_15
REMARK    5  A    between atoms: N_14  and  O_24
REMARK    6  A    between atoms: C_15  and  C_19
REMARK    7  A    between atoms: C_29  and  N_30
REMARK                            x       y       z     vdW  Elec       q    Type
REMARK                         _______ _______ _______ _____ _____    ______ ____
ROOT
ATOM      1  S   UNL     1     -35.359  27.516   2.608  0.00  0.00    -0.114 S 
ATOM      2  O   UNL     1     -33.686  24.094   5.275  0.00  0.00    -0.273 OA
ATOM      3  N   UNL     1     -35.286  25.259   3.999  0.00  0.00    -0.242 N 
ATOM      4  C   UNL     1     -36.794  25.121   2.188  0.00  0.00    -0.034 C 
ATOM      5  C   UNL     1     -35.446  26.685   4.210  0.00  0.00    +0.155 C 
ATOM      6  CA  UNL     1     -34.132  26.612   5.021  0.00  0.00    +0.179 C 
ATOM      7  CA  UNL     1     -36.033  24.525   3.135  0.00  0.00    +0.126 C 
ATOM      8  C   UNL     1     -36.809  26.628   1.944  0.00  0.00    +0.081 C 
ATOM      9  C   UNL     1     -34.273  25.069   4.868  0.00  0.00    +0.251 C 
ENDROOT
BRANCH   6  11
ATOM     10  O   UNL     1     -32.466  28.841   5.991  0.00  0.00    -0.268 OA
ATOM     11  N   UNL     1     -32.911  27.150   4.425  0.00  0.00    -0.291 N 
ATOM     12  C   UNL     1     -32.211  28.209   4.979  0.00  0.00    +0.269 C 
ATOM     13  H   UNL     1     -32.571  26.742   3.596  0.00  0.00    +0.150 HD
BRANCH  12  15
ATOM     14  N   UNL     1     -31.100  29.328   3.125  0.00  0.00    -0.076 NA
ATOM     15  C   UNL     1     -30.987  28.586   4.185  0.00  0.00    +0.198 C 
BRANCH  15  19
ATOM     16  S   UNL     1     -27.206  27.459   4.552  0.00  0.00    -0.060 S 
ATOM     17  N   UNL     1     -29.401  27.750   5.884  0.00  0.00    -0.383 NA
ATOM     18  N   UNL     1     -27.563  26.950   7.137  0.00  0.00    -0.328 N 
ATOM     19  C   UNL     1     -29.651  28.125   4.578  0.00  0.00    +0.148 C 
ATOM     20  C   UNL     1     -28.584  28.036   3.711  0.00  0.00    +0.127 C 
ATOM     21  C   UNL     1     -28.144  27.380   5.986  0.00  0.00    +0.204 C 
ATOM     22  H   UNL     1     -26.614  26.688   7.141  0.00  0.00    +0.145 HD
ATOM     23  H   UNL     1     -28.091  26.900   7.967  0.00  0.00    +0.145 HD
ENDBRANCH  15  19
BRANCH  14  24
ATOM     24  O   UNL     1     -32.434  29.680   2.877  0.00  0.00    -0.373 OA
ATOM     25  C   UNL     1     -32.591  29.850   1.476  0.00  0.00    +0.288 C 
ENDBRANCH  14  24
ENDBRANCH  12  15
ENDBRANCH   6  11
BRANCH   7  28
ATOM     26  O   UNL     1     -35.191  22.462   2.395  0.00  0.00    -0.239 OA
ATOM     27  OXT UNL     1     -36.687  22.501   4.125  0.00  0.00    -0.239 OA
ATOM     28  C   UNL     1     -35.964  23.005   3.228  0.00  0.00    +0.401 C 
ENDBRANCH   7  28
BRANCH   4  29
ATOM     29  C   UNL     1     -37.673  24.387   1.202  0.00  0.00    -0.048 C 
BRANCH  29  30
ATOM     30  N   UNL     1     -39.096  24.212   1.711  0.00  0.00    +0.391 N 
ATOM     31  C   UNL     1     -40.094  24.942   0.788  0.00  0.00    -0.073 C 
ATOM     32  C   UNL     1     -39.252  24.867   3.099  0.00  0.00    -0.073 C 
ATOM     33  C   UNL     1     -40.510  26.172   1.571  0.00  0.00    -0.024 C 
ATOM     34  C   UNL     1     -40.530  25.677   3.000  0.00  0.00    -0.024 C 
ATOM     35  C   UNL     1     -39.426  22.730   1.779  0.00  0.00    -0.095 C 
ENDBRANCH  29  30
ENDBRANCH   4  29
TORSDOF 7
ENDMDL
MODEL 7
REMARK VINA RESULT:      -5.6      2.981      4.753
REMARK  Name = 5479537
REMARK  7 active torsions:
REMARK  status: ('A' for Active; 'I' for Inactive)
REMARK    1  A    between atoms: C_4  and  C_29
REMARK    2  A    between atoms: CA_6  and  N_11
REMARK    3  A    between atoms: CA_7  and  C_28
REMARK    4  A    between atoms: C_12  and  C_15
REMARK    5  A    between atoms: N_14  and  O_24
REMARK    6  A    between atoms: C_15  and  C_19
REMARK    7  A    between atoms: C_29  and  N_30
REMARK                            x       y       z     vdW  Elec       q    Type
REMARK                         _______ _______ _______ _____ _____    ______ ____
ROOT
ATOM      1  S   UNL     1     -35.786  24.835   0.076  0.00  0.00    -0.114 S 
ATOM      2  O   UNL     1     -38.627  24.351   3.725  0.00  0.00    -0.273 OA
ATOM      3  N   UNL     1     -37.989  24.318   1.458  0.00  0.00    -0.242 N 
ATOM      4  C   UNL     1     -37.856  23.003  -0.498  0.00  0.00    -0.034 C 
ATOM      5  C   UNL     1     -37.260  25.450   0.919  0.00  0.00    +0.155 C 
ATOM      6  CA  UNL     1     -37.078  25.904   2.386  0.00  0.00    +0.179 C 
ATOM      7  CA  UNL     1     -38.374  23.239   0.730  0.00  0.00    +0.126 C 
ATOM      8  C   UNL     1     -36.747  23.847  -1.121  0.00  0.00    +0.081 C 
ATOM      9  C   UNL     1     -38.071  24.755   2.732  0.00  0.00    +0.251 C 
ENDROOT
BRANCH   6  11
ATOM     10  O   UNL     1     -36.276  26.596   5.136  0.00  0.00    -0.268 OA
ATOM     11  N   UNL     1     -35.764  25.748   3.008  0.00  0.00    -0.291 N 
ATOM     12  C   UNL     1     -35.509  26.113   4.319  0.00  0.00    +0.269 C 
ATOM     13  H   UNL     1     -35.030  25.368   2.473  0.00  0.00    +0.150 HD
BRANCH  12  15
ATOM     14  N   UNL     1     -33.651  24.645   4.882  0.00  0.00    -0.076 NA
ATOM     15  C   UNL     1     -34.083  25.861   4.734  0.00  0.00    +0.198 C 
BRANCH  15  19
ATOM     16  S   UNL     1     -31.560  28.917   4.693  0.00  0.00    -0.060 S 
ATOM     17  N   UNL     1     -32.815  27.310   6.282  0.00  0.00    -0.383 NA
ATOM     18  N   UNL     1     -31.443  28.912   7.349  0.00  0.00    -0.328 N 
ATOM     19  C   UNL     1     -33.156  26.969   4.987  0.00  0.00    +0.148 C 
ATOM     20  C   UNL     1     -32.576  27.727   3.992  0.00  0.00    +0.127 C 
ATOM     21  C   UNL     1     -31.979  28.324   6.248  0.00  0.00    +0.204 C 
ATOM     22  H   UNL     1     -30.822  29.669   7.250  0.00  0.00    +0.145 HD
ATOM     23  H   UNL     1     -31.675  28.581   8.247  0.00  0.00    +0.145 HD
ENDBRANCH  15  19
BRANCH  14  24
ATOM     24  O   UNL     1     -34.653  23.702   4.611  0.00  0.00    -0.373 OA
ATOM     25  C   UNL     1     -34.932  23.000   5.813  0.00  0.00    +0.288 C 
ENDBRANCH  14  24
ENDBRANCH  12  15
ENDBRANCH   6  11
BRANCH   7  28
ATOM     26  O   UNL     1     -40.585  22.538   1.092  0.00  0.00    -0.239 OA
ATOM     27  OXT UNL     1     -38.869  21.340   2.016  0.00  0.00    -0.239 OA
ATOM     28  C   UNL     1     -39.380  22.272   1.343  0.00  0.00    +0.401 C 
ENDBRANCH   7  28
BRANCH   4  29
ATOM     29  C   UNL     1     -38.241  21.844  -1.387  0.00  0.00    -0.048 C 
BRANCH  29  30
ATOM     30  N   UNL     1     -37.148  20.790  -1.473  0.00  0.00    +0.391 N 
ATOM     31  C   UNL     1     -37.761  19.374  -1.480  0.00  0.00    -0.073 C 
ATOM     32  C   UNL     1     -36.246  20.851  -0.222  0.00  0.00    -0.073 C 
ATOM     33  C   UNL     1     -37.472  18.825  -0.096  0.00  0.00    -0.024 C 
ATOM     34  C   UNL     1     -36.114  19.408   0.226  0.00  0.00    -0.024 C 
ATOM     35  C   UNL     1     -36.329  21.017  -2.734  0.00  0.00    -0.095 C 
ENDBRANCH  29  30
ENDBRANCH   4  29
TORSDOF 7
ENDMDL
MODEL 8
REMARK VINA RESULT:      -5.6      3.678      6.655
REMARK  Name = 5479537
REMARK  7 active torsions:
REMARK  status: ('A' for Active; 'I' for Inactive)
REMARK    1  A    between atoms: C_4  and  C_29
REMARK    2  A    between atoms: CA_6  and  N_11
REMARK    3  A    between atoms: CA_7  and  C_28
REMARK    4  A    between atoms: C_12  and  C_15
REMARK    5  A    between atoms: N_14  and  O_24
REMARK    6  A    between atoms: C_15  and  C_19
REMARK    7  A    between atoms: C_29  and  N_30
REMARK                            x       y       z     vdW  Elec       q    Type
REMARK                         _______ _______ _______ _____ _____    ______ ____
ROOT
ATOM      1  S   UNL     1     -34.391  23.360   0.063  0.00  0.00    -0.114 S 
ATOM      2  O   UNL     1     -36.501  19.924   2.380  0.00  0.00    -0.273 OA
ATOM      3  N   UNL     1     -35.623  21.054   0.509  0.00  0.00    -0.242 N 
ATOM      4  C   UNL     1     -34.137  20.911  -1.319  0.00  0.00    -0.034 C 
ATOM      5  C   UNL     1     -35.934  22.460   0.331  0.00  0.00    +0.155 C 
ATOM      6  CA  UNL     1     -36.469  22.423   1.781  0.00  0.00    +0.179 C 
ATOM      7  CA  UNL     1     -34.885  20.318  -0.360  0.00  0.00    +0.126 C 
ATOM      8  C   UNL     1     -33.978  22.424  -1.449  0.00  0.00    +0.081 C 
ATOM      9  C   UNL     1     -36.267  20.882   1.682  0.00  0.00    +0.251 C 
ENDROOT
BRANCH   6  11
ATOM     10  O   UNL     1     -37.129  24.811   3.378  0.00  0.00    -0.268 OA
ATOM     11  N   UNL     1     -35.675  23.050   2.836  0.00  0.00    -0.291 N 
ATOM     12  C   UNL     1     -36.095  24.178   3.519  0.00  0.00    +0.269 C 
ATOM     13  H   UNL     1     -34.805  22.653   3.071  0.00  0.00    +0.150 HD
BRANCH  12  15
ATOM     14  N   UNL     1     -35.072  24.073   5.725  0.00  0.00    -0.076 NA
ATOM     15  C   UNL     1     -35.106  24.641   4.558  0.00  0.00    +0.198 C 
BRANCH  15  19
ATOM     16  S   UNL     1     -32.549  27.321   3.150  0.00  0.00    -0.060 S 
ATOM     17  N   UNL     1     -33.844  26.638   5.280  0.00  0.00    -0.383 NA
ATOM     18  N   UNL     1     -32.470  28.548   5.507  0.00  0.00    -0.328 N 
ATOM     19  C   UNL     1     -34.170  25.737   4.285  0.00  0.00    +0.148 C 
ATOM     20  C   UNL     1     -33.568  25.944   3.062  0.00  0.00    +0.127 C 
ATOM     21  C   UNL     1     -32.996  27.518   4.794  0.00  0.00    +0.204 C 
ATOM     22  H   UNL     1     -31.839  29.171   5.079  0.00  0.00    +0.145 HD
ATOM     23  H   UNL     1     -32.719  28.672   6.451  0.00  0.00    +0.145 HD
ENDBRANCH  15  19
BRANCH  14  24
ATOM     24  O   UNL     1     -36.027  23.052   5.835  0.00  0.00    -0.373 OA
ATOM     25  C   UNL     1     -35.374  21.888   6.317  0.00  0.00    +0.288 C 
ENDBRANCH  14  24
ENDBRANCH  12  15
ENDBRANCH   6  11
BRANCH   7  28
ATOM     26  O   UNL     1     -34.068  18.360   0.644  0.00  0.00    -0.239 OA
ATOM     27  OXT UNL     1     -35.700  18.198  -0.951  0.00  0.00    -0.239 OA
ATOM     28  C   UNL     1     -34.885  18.801  -0.207  0.00  0.00    +0.401 C 
ENDBRANCH   7  28
BRANCH   4  29
ATOM     29  C   UNL     1     -33.304  20.173  -2.341  0.00  0.00    -0.048 C 
BRANCH  29  30
ATOM     30  N   UNL     1     -31.820  20.195  -2.006  0.00  0.00    +0.391 N 
ATOM     31  C   UNL     1     -31.196  18.800  -2.221  0.00  0.00    -0.073 C 
ATOM     32  C   UNL     1     -31.614  20.521  -0.512  0.00  0.00    -0.073 C 
ATOM     33  C   UNL     1     -30.982  18.257  -0.822  0.00  0.00    -0.024 C 
ATOM     34  C   UNL     1     -30.611  19.491  -0.029  0.00  0.00    -0.024 C 
ATOM     35  C   UNL     1     -31.124  21.226  -2.880  0.00  0.00    -0.095 C 
ENDBRANCH  29  30
ENDBRANCH   4  29
TORSDOF 7
ENDMDL
MODEL 9
REMARK VINA RESULT:      -5.6      5.760      9.586
REMARK  Name = 5479537
REMARK  7 active torsions:
REMARK  status: ('A' for Active; 'I' for Inactive)
REMARK    1  A    between atoms: C_4  and  C_29
REMARK    2  A    between atoms: CA_6  and  N_11
REMARK    3  A    between atoms: CA_7  and  C_28
REMARK    4  A    between atoms: C_12  and  C_15
REMARK    5  A    between atoms: N_14  and  O_24
REMARK    6  A    between atoms: C_15  and  C_19
REMARK    7  A    between atoms: C_29  and  N_30
REMARK                            x       y       z     vdW  Elec       q    Type
REMARK                         _______ _______ _______ _____ _____    ______ ____
ROOT
ATOM      1  S   UNL     1     -37.938  27.155   0.938  0.00  0.00    -0.114 S 
ATOM      2  O   UNL     1     -40.394  23.375   2.080  0.00  0.00    -0.273 OA
ATOM      3  N   UNL     1     -38.525  24.599   1.335  0.00  0.00    -0.242 N 
ATOM      4  C   UNL     1     -36.230  25.033   1.680  0.00  0.00    -0.034 C 
ATOM      5  C   UNL     1     -38.719  25.639   0.343  0.00  0.00    +0.155 C 
ATOM      6  CA  UNL     1     -40.232  25.486   0.623  0.00  0.00    +0.179 C 
ATOM      7  CA  UNL     1     -37.318  24.245   1.845  0.00  0.00    +0.126 C 
ATOM      8  C   UNL     1     -36.276  26.403   1.008  0.00  0.00    +0.081 C 
ATOM      9  C   UNL     1     -39.820  24.247   1.473  0.00  0.00    +0.251 C 
ENDROOT
BRANCH   6  11
ATOM     10  O   UNL     1     -42.813  26.787   0.048  0.00  0.00    -0.268 OA
ATOM     11  N   UNL     1     -40.909  26.525   1.395  0.00  0.00    -0.291 N 
ATOM     12  C   UNL     1     -42.129  27.062   1.020  0.00  0.00    +0.269 C 
ATOM     13  H   UNL     1     -40.481  26.858   2.217  0.00  0.00    +0.150 HD
BRANCH  12  15
ATOM     14  N   UNL     1     -42.211  29.345   1.860  0.00  0.00    -0.076 NA
ATOM     15  C   UNL     1     -42.626  28.119   1.972  0.00  0.00    +0.198 C 
BRANCH  15  19
ATOM     16  S   UNL     1     -45.285  26.623   4.501  0.00  0.00    -0.060 S 
ATOM     17  N   UNL     1     -43.798  28.693   4.069  0.00  0.00    -0.383 NA
ATOM     18  N   UNL     1     -45.130  28.800   6.019  0.00  0.00    -0.328 N 
ATOM     19  C   UNL     1     -43.575  27.796   3.042  0.00  0.00    +0.148 C 
ATOM     20  C   UNL     1     -44.290  26.619   3.105  0.00  0.00    +0.127 C 
ATOM     21  C   UNL     1     -44.681  28.180   4.897  0.00  0.00    +0.204 C 
ATOM     22  H   UNL     1     -45.793  28.356   6.595  0.00  0.00    +0.145 HD
ATOM     23  H   UNL     1     -44.791  29.693   6.258  0.00  0.00    +0.145 HD
ENDBRANCH  15  19
BRANCH  14  24
ATOM     24  O   UNL     1     -41.307  29.493   0.798  0.00  0.00    -0.373 OA
ATOM     25  C   UNL     1     -41.497  30.782   0.235  0.00  0.00    +0.288 C 
ENDBRANCH  14  24
ENDBRANCH  12  15
ENDBRANCH   6  11
BRANCH   7  28
ATOM     26  O   UNL     1     -36.991  21.923   1.961  0.00  0.00    -0.239 OA
ATOM     27  OXT UNL     1     -37.386  23.091   3.888  0.00  0.00    -0.239 OA
ATOM     28  C   UNL     1     -37.222  22.952   2.648  0.00  0.00    +0.401 C 
ENDBRANCH   7  28
BRANCH   4  29
ATOM     29  C   UNL     1     -34.846  24.708   2.191  0.00  0.00    -0.048 C 
BRANCH  29  30
ATOM     30  N   UNL     1     -34.486  25.506   3.435  0.00  0.00    +0.391 N 
ATOM     31  C   UNL     1     -33.955  24.572   4.543  0.00  0.00    -0.073 C 
ATOM     32  C   UNL     1     -35.744  26.181   4.022  0.00  0.00    -0.073 C 
ATOM     33  C   UNL     1     -35.087  24.489   5.548  0.00  0.00    -0.024 C 
ATOM     34  C   UNL     1     -35.684  25.878   5.507  0.00  0.00    -0.024 C 
ATOM     35  C   UNL     1     -33.438  26.548   3.077  0.00  0.00    -0.095 C 
ENDBRANCH  29  30
ENDBRANCH   4  29
TORSDOF 7
ENDMDL
