MODEL 1
REMARK VINA RESULT:      -5.7      0.000      0.000
REMARK  Name = 53710056
REMARK  7 active torsions:
REMARK  status: ('A' for Active; 'I' for Inactive)
REMARK    1  A    between atoms: C_1  and  N_6
REMARK    2  A    between atoms: C_1  and  C_11
REMARK    3  A    between atoms: C_2  and  C_15
REMARK    4  A    between atoms: C_4  and  C_19
REMARK    5  A    between atoms: C_11  and  O_12
REMARK    6  A    between atoms: C_15  and  O_16
REMARK    7  A    between atoms: C_19  and  O_20
REMARK                            x       y       z     vdW  Elec       q    Type
REMARK                         _______ _______ _______ _____ _____    ______ ____
ROOT
ATOM      1  C   UNL     1     -35.473  25.682   4.867  0.00  0.00    +0.053 C 
ATOM      2  C   UNL     1     -36.028  25.135   3.547  0.00  0.00    +0.091 C 
ATOM      3  C   UNL     1     -35.223  24.430   5.708  0.00  0.00    +0.002 C 
ATOM      4  C   UNL     1     -34.780  23.361   4.703  0.00  0.00    +0.098 C 
ATOM      5  C   UNL     1     -35.239  23.841   3.317  0.00  0.00    +0.021 C 
ENDROOT
BRANCH   1   6
ATOM      6  N   UNL     1     -36.348  26.630   5.542  0.00  0.00    +0.390 N 
ATOM      7  H   UNL     1     -36.602  26.264   6.460  0.00  0.00    -0.088 HD
ATOM      8  H   UNL     1     -37.192  26.768   4.986  0.00  0.00    -0.088 HD
ATOM      9  H   UNL     1     -35.863  27.520   5.653  0.00  0.00    -0.088 HD
ENDBRANCH   1   6
BRANCH   1  11
ATOM     10  O   UNL     1     -33.171  26.317   5.294  0.00  0.00    -0.253 OA
ATOM     11  C   UNL     1     -34.187  26.430   4.624  0.00  0.00    +0.295 C 
BRANCH  11  12
ATOM     12  O   UNL     1     -34.307  27.254   3.553  0.00  0.00    -0.482 OA
ATOM     13  H   UNL     1     -34.715  28.091   3.650  0.00  0.00    +0.295 HD
ENDBRANCH  11  12
ENDBRANCH   1  11
BRANCH   2  15
ATOM     14  O   UNL     1     -37.992  23.725   3.685  0.00  0.00    -0.250 OA
ATOM     15  C   UNL     1     -37.501  24.841   3.608  0.00  0.00    +0.312 C 
BRANCH  15  16
ATOM     16  O   UNL     1     -38.220  25.989   3.561  0.00  0.00    -0.480 OA
ATOM     17  H   UNL     1     -38.019  26.693   4.146  0.00  0.00    +0.295 HD
ENDBRANCH  15  16
ENDBRANCH   2  15
BRANCH   4  19
ATOM     18  O   UNL     1     -35.112  20.977   4.501  0.00  0.00    -0.250 OA
ATOM     19  C   UNL     1     -35.385  22.037   5.046  0.00  0.00    +0.313 C 
BRANCH  19  20
ATOM     20  O   UNL     1     -36.284  22.168   6.052  0.00  0.00    -0.480 OA
ATOM     21  H   UNL     1     -36.394  21.478   6.675  0.00  0.00    +0.295 HD
ENDBRANCH  19  20
ENDBRANCH   4  19
TORSDOF 7
ENDMDL
MODEL 2
REMARK VINA RESULT:      -5.4      0.486      1.472
REMARK  Name = 53710056
REMARK  7 active torsions:
REMARK  status: ('A' for Active; 'I' for Inactive)
REMARK    1  A    between atoms: C_1  and  N_6
REMARK    2  A    between atoms: C_1  and  C_11
REMARK    3  A    between atoms: C_2  and  C_15
REMARK    4  A    between atoms: C_4  and  C_19
REMARK    5  A    between atoms: C_11  and  O_12
REMARK    6  A    between atoms: C_15  and  O_16
REMARK    7  A    between atoms: C_19  and  O_20
REMARK                            x       y       z     vdW  Elec       q    Type
REMARK                         _______ _______ _______ _____ _____    ______ ____
ROOT
ATOM      1  C   UNL     1     -35.436  25.588   4.700  0.00  0.00    +0.053 C 
ATOM      2  C   UNL     1     -35.882  24.809   3.457  0.00  0.00    +0.091 C 
ATOM      3  C   UNL     1     -35.301  24.512   5.779  0.00  0.00    +0.002 C 
ATOM      4  C   UNL     1     -34.796  23.270   5.036  0.00  0.00    +0.098 C 
ATOM      5  C   UNL     1     -35.112  23.487   3.548  0.00  0.00    +0.021 C 
ENDROOT
BRANCH   1   6
ATOM      6  N   UNL     1     -36.344  26.654   5.101  0.00  0.00    +0.390 N 
ATOM      7  H   UNL     1     -36.305  27.409   4.415  0.00  0.00    -0.088 HD
ATOM      8  H   UNL     1     -36.065  27.011   6.015  0.00  0.00    -0.088 HD
ATOM      9  H   UNL     1     -37.295  26.290   5.153  0.00  0.00    -0.088 HD
ENDBRANCH   1   6
BRANCH   1  11
ATOM     10  O   UNL     1     -33.738  26.691   3.366  0.00  0.00    -0.253 OA
ATOM     11  C   UNL     1     -34.113  26.264   4.448  0.00  0.00    +0.295 C 
BRANCH  11  12
ATOM     12  O   UNL     1     -33.386  26.337   5.590  0.00  0.00    -0.482 OA
ATOM     13  H   UNL     1     -32.485  26.082   5.589  0.00  0.00    +0.295 HD
ENDBRANCH  11  12
ENDBRANCH   1  11
BRANCH   2  15
ATOM     14  O   UNL     1     -38.228  25.410   3.443  0.00  0.00    -0.250 OA
ATOM     15  C   UNL     1     -37.362  24.547   3.429  0.00  0.00    +0.312 C 
BRANCH  15  16
ATOM     16  O   UNL     1     -37.612  23.216   3.391  0.00  0.00    -0.480 OA
ATOM     17  H   UNL     1     -37.087  22.626   3.895  0.00  0.00    +0.295 HD
ENDBRANCH  15  16
ENDBRANCH   2  15
BRANCH   4  19
ATOM     18  O   UNL     1     -35.945  21.922   6.678  0.00  0.00    -0.250 OA
ATOM     19  C   UNL     1     -35.467  22.040   5.559  0.00  0.00    +0.313 C 
BRANCH  19  20
ATOM     20  O   UNL     1     -35.474  21.063   4.619  0.00  0.00    -0.480 OA
ATOM     21  H   UNL     1     -35.965  20.279   4.763  0.00  0.00    +0.295 HD
ENDBRANCH  19  20
ENDBRANCH   4  19
TORSDOF 7
ENDMDL
MODEL 3
REMARK VINA RESULT:      -5.3      1.712      3.908
REMARK  Name = 53710056
REMARK  7 active torsions:
REMARK  status: ('A' for Active; 'I' for Inactive)
REMARK    1  A    between atoms: C_1  and  N_6
REMARK    2  A    between atoms: C_1  and  C_11
REMARK    3  A    between atoms: C_2  and  C_15
REMARK    4  A    between atoms: C_4  and  C_19
REMARK    5  A    between atoms: C_11  and  O_12
REMARK    6  A    between atoms: C_15  and  O_16
REMARK    7  A    between atoms: C_19  and  O_20
REMARK                            x       y       z     vdW  Elec       q    Type
REMARK                         _______ _______ _______ _____ _____    ______ ____
ROOT
ATOM      1  C   UNL     1     -36.032  23.124   4.305  0.00  0.00    +0.053 C 
ATOM      2  C   UNL     1     -36.416  24.462   4.948  0.00  0.00    +0.091 C 
ATOM      3  C   UNL     1     -34.806  23.461   3.457  0.00  0.00    +0.002 C 
ATOM      4  C   UNL     1     -34.060  24.538   4.253  0.00  0.00    +0.098 C 
ATOM      5  C   UNL     1     -35.071  25.133   5.246  0.00  0.00    +0.021 C 
ENDROOT
BRANCH   1   6
ATOM      6  N   UNL     1     -37.091  22.508   3.517  0.00  0.00    +0.390 N 
ATOM      7  H   UNL     1     -37.919  23.105   3.535  0.00  0.00    -0.088 HD
ATOM      8  H   UNL     1     -37.320  21.596   3.911  0.00  0.00    -0.088 HD
ATOM      9  H   UNL     1     -36.775  22.394   2.554  0.00  0.00    -0.088 HD
ENDBRANCH   1   6
BRANCH   1  11
ATOM     10  O   UNL     1     -35.803  22.291   6.572  0.00  0.00    -0.253 OA
ATOM     11  C   UNL     1     -35.687  22.112   5.369  0.00  0.00    +0.295 C 
BRANCH  11  12
ATOM     12  O   UNL     1     -35.227  20.967   4.808  0.00  0.00    -0.482 OA
ATOM     13  H   UNL     1     -35.831  20.310   4.521  0.00  0.00    +0.295 HD
ENDBRANCH  11  12
ENDBRANCH   1  11
BRANCH   2  15
ATOM     14  O   UNL     1     -36.809  26.262   3.377  0.00  0.00    -0.250 OA
ATOM     15  C   UNL     1     -37.241  25.332   4.042  0.00  0.00    +0.312 C 
BRANCH  15  16
ATOM     16  O   UNL     1     -38.541  24.947   4.061  0.00  0.00    -0.480 OA
ATOM     17  H   UNL     1     -38.933  24.581   3.293  0.00  0.00    +0.295 HD
ENDBRANCH  15  16
ENDBRANCH   2  15
BRANCH   4  19
ATOM     18  O   UNL     1     -32.561  26.307   3.576  0.00  0.00    -0.250 OA
ATOM     19  C   UNL     1     -33.520  25.588   3.335  0.00  0.00    +0.313 C 
BRANCH  19  20
ATOM     20  O   UNL     1     -34.242  25.638   2.188  0.00  0.00    -0.480 OA
ATOM     21  H   UNL     1     -33.896  25.268   1.401  0.00  0.00    +0.295 HD
ENDBRANCH  19  20
ENDBRANCH   4  19
TORSDOF 7
ENDMDL
MODEL 4
REMARK VINA RESULT:      -5.0      1.634      3.943
REMARK  Name = 53710056
REMARK  7 active torsions:
REMARK  status: ('A' for Active; 'I' for Inactive)
REMARK    1  A    between atoms: C_1  and  N_6
REMARK    2  A    between atoms: C_1  and  C_11
REMARK    3  A    between atoms: C_2  and  C_15
REMARK    4  A    between atoms: C_4  and  C_19
REMARK    5  A    between atoms: C_11  and  O_12
REMARK    6  A    between atoms: C_15  and  O_16
REMARK    7  A    between atoms: C_19  and  O_20
REMARK                            x       y       z     vdW  Elec       q    Type
REMARK                         _______ _______ _______ _____ _____    ______ ____
ROOT
ATOM      1  C   UNL     1     -35.423  23.429   4.200  0.00  0.00    +0.053 C 
ATOM      2  C   UNL     1     -36.536  24.474   4.341  0.00  0.00    +0.091 C 
ATOM      3  C   UNL     1     -34.144  24.208   4.512  0.00  0.00    +0.002 C 
ATOM      4  C   UNL     1     -34.553  25.221   5.587  0.00  0.00    +0.098 C 
ATOM      5  C   UNL     1     -36.084  25.344   5.519  0.00  0.00    +0.021 C 
ENDROOT
BRANCH   1   6
ATOM      6  N   UNL     1     -35.365  22.782   2.896  0.00  0.00    +0.390 N 
ATOM      7  H   UNL     1     -34.481  23.012   2.441  0.00  0.00    -0.088 HD
ATOM      8  H   UNL     1     -36.140  23.111   2.319  0.00  0.00    -0.088 HD
ATOM      9  H   UNL     1     -35.434  21.772   3.015  0.00  0.00    -0.088 HD
ENDBRANCH   1   6
BRANCH   1  11
ATOM     10  O   UNL     1     -35.962  22.458   6.356  0.00  0.00    -0.253 OA
ATOM     11  C   UNL     1     -35.625  22.311   5.190  0.00  0.00    +0.295 C 
BRANCH  11  12
ATOM     12  O   UNL     1     -35.383  21.109   4.612  0.00  0.00    -0.482 OA
ATOM     13  H   UNL     1     -34.810  21.052   3.873  0.00  0.00    +0.295 HD
ENDBRANCH  11  12
ENDBRANCH   1  11
BRANCH   2  15
ATOM     14  O   UNL     1     -36.751  24.887   1.965  0.00  0.00    -0.250 OA
ATOM     15  C   UNL     1     -36.708  25.316   3.108  0.00  0.00    +0.312 C 
BRANCH  15  16
ATOM     16  O   UNL     1     -36.807  26.628   3.435  0.00  0.00    -0.480 OA
ATOM     17  H   UNL     1     -36.852  26.884   4.335  0.00  0.00    +0.295 HD
ENDBRANCH  15  16
ENDBRANCH   2  15
BRANCH   4  19
ATOM     18  O   UNL     1     -34.203  27.329   4.462  0.00  0.00    -0.250 OA
ATOM     19  C   UNL     1     -33.891  26.540   5.341  0.00  0.00    +0.313 C 
BRANCH  19  20
ATOM     20  O   UNL     1     -32.890  26.746   6.232  0.00  0.00    -0.480 OA
ATOM     21  H   UNL     1     -32.906  27.500   6.787  0.00  0.00    +0.295 HD
ENDBRANCH  19  20
ENDBRANCH   4  19
TORSDOF 7
ENDMDL
MODEL 5
REMARK VINA RESULT:      -4.9      2.109      4.233
REMARK  Name = 53710056
REMARK  7 active torsions:
REMARK  status: ('A' for Active; 'I' for Inactive)
REMARK    1  A    between atoms: C_1  and  N_6
REMARK    2  A    between atoms: C_1  and  C_11
REMARK    3  A    between atoms: C_2  and  C_15
REMARK    4  A    between atoms: C_4  and  C_19
REMARK    5  A    between atoms: C_11  and  O_12
REMARK    6  A    between atoms: C_15  and  O_16
REMARK    7  A    between atoms: C_19  and  O_20
REMARK                            x       y       z     vdW  Elec       q    Type
REMARK                         _______ _______ _______ _____ _____    ______ ____
ROOT
ATOM      1  C   UNL     1     -36.484  23.321   3.124  0.00  0.00    +0.053 C 
ATOM      2  C   UNL     1     -35.235  22.882   3.897  0.00  0.00    +0.091 C 
ATOM      3  C   UNL     1     -36.791  24.713   3.679  0.00  0.00    +0.002 C 
ATOM      4  C   UNL     1     -35.419  25.332   3.968  0.00  0.00    +0.098 C 
ATOM      5  C   UNL     1     -34.417  24.169   4.046  0.00  0.00    +0.021 C 
ENDROOT
BRANCH   1   6
ATOM      6  N   UNL     1     -37.621  22.418   3.252  0.00  0.00    +0.390 N 
ATOM      7  H   UNL     1     -38.469  22.961   3.414  0.00  0.00    -0.088 HD
ATOM      8  H   UNL     1     -37.465  21.786   4.037  0.00  0.00    -0.088 HD
ATOM      9  H   UNL     1     -37.722  21.877   2.394  0.00  0.00    -0.088 HD
ENDBRANCH   1   6
BRANCH   1  11
ATOM     10  O   UNL     1     -36.626  24.231   0.880  0.00  0.00    -0.253 OA
ATOM     11  C   UNL     1     -36.191  23.385   1.647  0.00  0.00    +0.295 C 
BRANCH  11  12
ATOM     12  O   UNL     1     -35.373  22.369   1.276  0.00  0.00    -0.482 OA
ATOM     13  H   UNL     1     -35.737  21.550   1.003  0.00  0.00    +0.295 HD
ENDBRANCH  11  12
ENDBRANCH   1  11
BRANCH   2  15
ATOM     14  O   UNL     1     -35.938  22.955   6.213  0.00  0.00    -0.250 OA
ATOM     15  C   UNL     1     -35.554  22.309   5.249  0.00  0.00    +0.312 C 
BRANCH  15  16
ATOM     16  O   UNL     1     -35.356  20.968   5.260  0.00  0.00    -0.480 OA
ATOM     17  H   UNL     1     -35.257  20.503   4.453  0.00  0.00    +0.295 HD
ENDBRANCH  15  16
ENDBRANCH   2  15
BRANCH   4  19
ATOM     18  O   UNL     1     -34.506  26.251   6.007  0.00  0.00    -0.250 OA
ATOM     19  C   UNL     1     -35.454  26.104   5.249  0.00  0.00    +0.313 C 
BRANCH  19  20
ATOM     20  O   UNL     1     -36.687  26.625   5.460  0.00  0.00    -0.480 OA
ATOM     21  H   UNL     1     -36.898  27.010   6.287  0.00  0.00    +0.295 HD
ENDBRANCH  19  20
ENDBRANCH   4  19
TORSDOF 7
ENDMDL
MODEL 6
REMARK VINA RESULT:      -4.9      2.786      4.906
REMARK  Name = 53710056
REMARK  7 active torsions:
REMARK  status: ('A' for Active; 'I' for Inactive)
REMARK    1  A    between atoms: C_1  and  N_6
REMARK    2  A    between atoms: C_1  and  C_11
REMARK    3  A    between atoms: C_2  and  C_15
REMARK    4  A    between atoms: C_4  and  C_19
REMARK    5  A    between atoms: C_11  and  O_12
REMARK    6  A    between atoms: C_15  and  O_16
REMARK    7  A    between atoms: C_19  and  O_20
REMARK                            x       y       z     vdW  Elec       q    Type
REMARK                         _______ _______ _______ _____ _____    ______ ____
ROOT
ATOM      1  C   UNL     1     -36.267  21.583   2.514  0.00  0.00    +0.053 C 
ATOM      2  C   UNL     1     -35.339  22.284   3.512  0.00  0.00    +0.091 C 
ATOM      3  C   UNL     1     -37.542  22.427   2.540  0.00  0.00    +0.002 C 
ATOM      4  C   UNL     1     -37.058  23.866   2.747  0.00  0.00    +0.098 C 
ATOM      5  C   UNL     1     -35.630  23.776   3.308  0.00  0.00    +0.021 C 
ENDROOT
BRANCH   1   6
ATOM      6  N   UNL     1     -36.531  20.183   2.816  0.00  0.00    +0.390 N 
ATOM      7  H   UNL     1     -36.264  19.606   2.018  0.00  0.00    -0.088 HD
ATOM      8  H   UNL     1     -37.525  20.058   3.009  0.00  0.00    -0.088 HD
ATOM      9  H   UNL     1     -35.987  19.904   3.633  0.00  0.00    -0.088 HD
ENDBRANCH   1   6
BRANCH   1  11
ATOM     10  O   UNL     1     -34.453  21.596   0.904  0.00  0.00    -0.253 OA
ATOM     11  C   UNL     1     -35.652  21.584   1.137  0.00  0.00    +0.295 C 
BRANCH  11  12
ATOM     12  O   UNL     1     -36.615  21.569   0.182  0.00  0.00    -0.482 OA
ATOM     13  H   UNL     1     -36.376  21.574  -0.724  0.00  0.00    +0.295 HD
ENDBRANCH  11  12
ENDBRANCH   1  11
BRANCH   2  15
ATOM     14  O   UNL     1     -36.182  22.589   5.761  0.00  0.00    -0.250 OA
ATOM     15  C   UNL     1     -35.608  21.892   4.937  0.00  0.00    +0.312 C 
BRANCH  15  16
ATOM     16  O   UNL     1     -35.123  20.652   5.193  0.00  0.00    -0.480 OA
ATOM     17  H   UNL     1     -34.214  20.469   5.063  0.00  0.00    +0.295 HD
ENDBRANCH  15  16
ENDBRANCH   2  15
BRANCH   4  19
ATOM     18  O   UNL     1     -39.179  24.677   3.569  0.00  0.00    -0.250 OA
ATOM     19  C   UNL     1     -37.966  24.594   3.688  0.00  0.00    +0.313 C 
BRANCH  19  20
ATOM     20  O   UNL     1     -37.257  25.154   4.698  0.00  0.00    -0.480 OA
ATOM     21  H   UNL     1     -36.433  24.788   4.951  0.00  0.00    +0.295 HD
ENDBRANCH  19  20
ENDBRANCH   4  19
TORSDOF 7
ENDMDL
MODEL 7
REMARK VINA RESULT:      -4.8      1.565      3.831
REMARK  Name = 53710056
REMARK  7 active torsions:
REMARK  status: ('A' for Active; 'I' for Inactive)
REMARK    1  A    between atoms: C_1  and  N_6
REMARK    2  A    between atoms: C_1  and  C_11
REMARK    3  A    between atoms: C_2  and  C_15
REMARK    4  A    between atoms: C_4  and  C_19
REMARK    5  A    between atoms: C_11  and  O_12
REMARK    6  A    between atoms: C_15  and  O_16
REMARK    7  A    between atoms: C_19  and  O_20
REMARK                            x       y       z     vdW  Elec       q    Type
REMARK                         _______ _______ _______ _____ _____    ______ ____
ROOT
ATOM      1  C   UNL     1     -36.693  25.291   3.579  0.00  0.00    +0.053 C 
ATOM      2  C   UNL     1     -35.600  24.228   3.417  0.00  0.00    +0.091 C 
ATOM      3  C   UNL     1     -36.008  26.407   4.370  0.00  0.00    +0.002 C 
ATOM      4  C   UNL     1     -34.558  26.406   3.875  0.00  0.00    +0.098 C 
ATOM      5  C   UNL     1     -34.316  25.041   3.213  0.00  0.00    +0.021 C 
ENDROOT
BRANCH   1   6
ATOM      6  N   UNL     1     -37.903  24.817   4.236  0.00  0.00    +0.390 N 
ATOM      7  H   UNL     1     -38.166  23.909   3.851  0.00  0.00    -0.088 HD
ATOM      8  H   UNL     1     -38.659  25.484   4.079  0.00  0.00    -0.088 HD
ATOM      9  H   UNL     1     -37.732  24.725   5.237  0.00  0.00    -0.088 HD
ENDBRANCH   1   6
BRANCH   1  11
ATOM     10  O   UNL     1     -37.096  25.145   1.191  0.00  0.00    -0.253 OA
ATOM     11  C   UNL     1     -37.143  25.789   2.228  0.00  0.00    +0.295 C 
BRANCH  11  12
ATOM     12  O   UNL     1     -37.611  27.059   2.317  0.00  0.00    -0.482 OA
ATOM     13  H   UNL     1     -38.531  27.224   2.262  0.00  0.00    +0.295 HD
ENDBRANCH  11  12
ENDBRANCH   1  11
BRANCH   2  15
ATOM     14  O   UNL     1     -34.573  23.410   5.451  0.00  0.00    -0.250 OA
ATOM     15  C   UNL     1     -35.467  23.338   4.621  0.00  0.00    +0.312 C 
BRANCH  15  16
ATOM     16  O   UNL     1     -36.476  22.435   4.662  0.00  0.00    -0.480 OA
ATOM     17  H   UNL     1     -36.329  21.584   5.026  0.00  0.00    +0.295 HD
ENDBRANCH  15  16
ENDBRANCH   2  15
BRANCH   4  19
ATOM     18  O   UNL     1     -32.466  27.030   4.911  0.00  0.00    -0.250 OA
ATOM     19  C   UNL     1     -33.616  26.630   5.017  0.00  0.00    +0.313 C 
BRANCH  19  20
ATOM     20  O   UNL     1     -34.214  26.327   6.195  0.00  0.00    -0.480 OA
ATOM     21  H   UNL     1     -33.705  26.281   6.980  0.00  0.00    +0.295 HD
ENDBRANCH  19  20
ENDBRANCH   4  19
TORSDOF 7
ENDMDL
MODEL 8
REMARK VINA RESULT:      -4.7      1.498      1.884
REMARK  Name = 53710056
REMARK  7 active torsions:
REMARK  status: ('A' for Active; 'I' for Inactive)
REMARK    1  A    between atoms: C_1  and  N_6
REMARK    2  A    between atoms: C_1  and  C_11
REMARK    3  A    between atoms: C_2  and  C_15
REMARK    4  A    between atoms: C_4  and  C_19
REMARK    5  A    between atoms: C_11  and  O_12
REMARK    6  A    between atoms: C_15  and  O_16
REMARK    7  A    between atoms: C_19  and  O_20
REMARK                            x       y       z     vdW  Elec       q    Type
REMARK                         _______ _______ _______ _____ _____    ______ ____
ROOT
ATOM      1  C   UNL     1     -34.822  26.185   4.590  0.00  0.00    +0.053 C 
ATOM      2  C   UNL     1     -34.501  25.221   3.442  0.00  0.00    +0.091 C 
ATOM      3  C   UNL     1     -35.552  25.312   5.612  0.00  0.00    +0.002 C 
ATOM      4  C   UNL     1     -34.885  23.936   5.503  0.00  0.00    +0.098 C 
ATOM      5  C   UNL     1     -34.164  23.901   4.146  0.00  0.00    +0.021 C 
ENDROOT
BRANCH   1   6
ATOM      6  N   UNL     1     -35.610  27.346   4.200  0.00  0.00    +0.390 N 
ATOM      7  H   UNL     1     -34.993  28.059   3.810  0.00  0.00    -0.088 HD
ATOM      8  H   UNL     1     -36.090  27.721   5.018  0.00  0.00    -0.088 HD
ATOM      9  H   UNL     1     -36.296  27.070   3.498  0.00  0.00    -0.088 HD
ENDBRANCH   1   6
BRANCH   1  11
ATOM     10  O   UNL     1     -33.357  26.958   6.362  0.00  0.00    -0.253 OA
ATOM     11  C   UNL     1     -33.550  26.744   5.175  0.00  0.00    +0.295 C 
BRANCH  11  12
ATOM     12  O   UNL     1     -32.638  26.982   4.199  0.00  0.00    -0.482 OA
ATOM     13  H   UNL     1     -32.480  26.337   3.539  0.00  0.00    +0.295 HD
ENDBRANCH  11  12
ENDBRANCH   1  11
BRANCH   2  15
ATOM     14  O   UNL     1     -36.436  25.902   2.156  0.00  0.00    -0.250 OA
ATOM     15  C   UNL     1     -35.657  25.026   2.500  0.00  0.00    +0.312 C 
BRANCH  15  16
ATOM     16  O   UNL     1     -35.722  23.739   2.082  0.00  0.00    -0.480 OA
ATOM     17  H   UNL     1     -36.435  23.457   1.543  0.00  0.00    +0.295 HD
ENDBRANCH  15  16
ENDBRANCH   2  15
BRANCH   4  19
ATOM     18  O   UNL     1     -35.988  22.039   6.512  0.00  0.00    -0.250 OA
ATOM     19  C   UNL     1     -35.909  22.849   5.601  0.00  0.00    +0.313 C 
BRANCH  19  20
ATOM     20  O   UNL     1     -36.745  22.882   4.534  0.00  0.00    -0.480 OA
ATOM     21  H   UNL     1     -36.549  22.379   3.770  0.00  0.00    +0.295 HD
ENDBRANCH  19  20
ENDBRANCH   4  19
TORSDOF 7
ENDMDL
MODEL 9
REMARK VINA RESULT:      -4.7      1.120      1.550
REMARK  Name = 53710056
REMARK  7 active torsions:
REMARK  status: ('A' for Active; 'I' for Inactive)
REMARK    1  A    between atoms: C_1  and  N_6
REMARK    2  A    between atoms: C_1  and  C_11
REMARK    3  A    between atoms: C_2  and  C_15
REMARK    4  A    between atoms: C_4  and  C_19
REMARK    5  A    between atoms: C_11  and  O_12
REMARK    6  A    between atoms: C_15  and  O_16
REMARK    7  A    between atoms: C_19  and  O_20
REMARK                            x       y       z     vdW  Elec       q    Type
REMARK                         _______ _______ _______ _____ _____    ______ ____
ROOT
ATOM      1  C   UNL     1     -35.782  25.747   4.688  0.00  0.00    +0.053 C 
ATOM      2  C   UNL     1     -36.321  25.818   3.255  0.00  0.00    +0.091 C 
ATOM      3  C   UNL     1     -35.831  24.257   5.027  0.00  0.00    +0.002 C 
ATOM      4  C   UNL     1     -35.510  23.542   3.710  0.00  0.00    +0.098 C 
ATOM      5  C   UNL     1     -35.764  24.557   2.583  0.00  0.00    +0.021 C 
ENDROOT
BRANCH   1   6
ATOM      6  N   UNL     1     -36.521  26.553   5.650  0.00  0.00    +0.390 N 
ATOM      7  H   UNL     1     -37.227  27.104   5.161  0.00  0.00    -0.088 HD
ATOM      8  H   UNL     1     -35.877  27.177   6.136  0.00  0.00    -0.088 HD
ATOM      9  H   UNL     1     -36.977  25.940   6.326  0.00  0.00    -0.088 HD
ENDBRANCH   1   6
BRANCH   1  11
ATOM     10  O   UNL     1     -33.417  25.662   5.222  0.00  0.00    -0.253 OA
ATOM     11  C   UNL     1     -34.366  26.263   4.741  0.00  0.00    +0.295 C 
BRANCH  11  12
ATOM     12  O   UNL     1     -34.284  27.495   4.180  0.00  0.00    -0.482 OA
ATOM     13  H   UNL     1     -33.640  27.667   3.522  0.00  0.00    +0.295 HD
ENDBRANCH  11  12
ENDBRANCH   1  11
BRANCH   2  15
ATOM     14  O   UNL     1     -38.492  26.464   2.399  0.00  0.00    -0.250 OA
ATOM     15  C   UNL     1     -37.823  25.819   3.193  0.00  0.00    +0.312 C 
BRANCH  15  16
ATOM     16  O   UNL     1     -38.342  25.006   4.145  0.00  0.00    -0.480 OA
ATOM     17  H   UNL     1     -37.771  24.525   4.712  0.00  0.00    +0.295 HD
ENDBRANCH  15  16
ENDBRANCH   2  15
BRANCH   4  19
ATOM     18  O   UNL     1     -37.517  22.331   3.126  0.00  0.00    -0.250 OA
ATOM     19  C   UNL     1     -36.371  22.329   3.550  0.00  0.00    +0.313 C 
BRANCH  19  20
ATOM     20  O   UNL     1     -35.705  21.215   3.943  0.00  0.00    -0.480 OA
ATOM     21  H   UNL     1     -35.707  20.452   3.400  0.00  0.00    +0.295 HD
ENDBRANCH  19  20
ENDBRANCH   4  19
TORSDOF 7
ENDMDL
