MODEL 1
REMARK VINA RESULT:      -5.1      0.000      0.000
REMARK  Name = 20981865
REMARK  9 active torsions:
REMARK  status: ('A' for Active; 'I' for Inactive)
REMARK    1  A    between atoms: C_3  and  C_8
REMARK    2  A    between atoms: C_4  and  O_20
REMARK    3  A    between atoms: C_7  and  O_26
REMARK    4  A    between atoms: C_8  and  S_11
REMARK    5  A    between atoms: S_11  and  C_13
REMARK    6  A    between atoms: O_20  and  C_22
REMARK    7  A    between atoms: C_22  and  O_23
REMARK    8  A    between atoms: O_23  and  C_24
REMARK    9  A    between atoms: O_26  and  C_27
REMARK                            x       y       z     vdW  Elec       q    Type
REMARK                         _______ _______ _______ _____ _____    ______ ____
ROOT
ATOM      1  O   UNL     1     -33.438  25.594   4.967  0.00  0.00    -0.226 OA
ATOM      2  N   UNL     1     -35.153  25.340   3.433  0.00  0.00    -0.243 N 
ATOM      3  C   UNL     1     -36.259  24.535   2.907  0.00  0.00    +0.130 C 
ATOM      4  C   UNL     1     -37.149  25.558   2.188  0.00  0.00    +0.193 C 
ATOM      5  C   UNL     1     -36.174  26.650   1.754  0.00  0.00    +0.067 C 
ATOM      6  C   UNL     1     -35.164  26.694   2.891  0.00  0.00    +0.101 C 
ATOM      7  C   UNL     1     -34.293  24.895   4.427  0.00  0.00    +0.405 C 
ENDROOT
BRANCH   3   8
ATOM      8  C   UNL     1     -35.753  23.472   1.972  0.00  0.00    +0.093 C 
ATOM      9  C   UNL     1     -35.785  23.686   0.502  0.00  0.00    +0.016 C 
ATOM     10  C   UNL     1     -34.477  23.664   1.236  0.00  0.00    +0.016 C 
BRANCH   8  11
ATOM     11  S   UNL     1     -36.114  21.809   2.565  0.00  0.00    +0.065 S 
ATOM     12  O   UNL     1     -35.096  20.863   1.936  0.00  0.00    -0.251 OA
BRANCH  11  13
ATOM     13  C   UNL     1     -37.635  21.548   1.609  0.00  0.00    +0.056 C 
ATOM     14  C   UNL     1     -38.793  22.202   1.991  0.00  0.00    +0.008 C 
ATOM     15  C   UNL     1     -37.609  20.700   0.516  0.00  0.00    +0.008 C 
ATOM     16  C   UNL     1     -39.962  22.002   1.256  0.00  0.00    -0.004 C 
ATOM     17  C   UNL     1     -38.777  20.501  -0.219  0.00  0.00    -0.004 C 
ATOM     18  C   UNL     1     -39.954  21.151   0.151  0.00  0.00    -0.022 C 
ATOM     19  C   UNL     1     -41.203  20.938  -0.636  0.00  0.00    +0.031 C 
ENDBRANCH  11  13
ENDBRANCH   8  11
ENDBRANCH   3   8
BRANCH   4  20
ATOM     20  O   UNL     1     -38.090  26.109   3.104  0.00  0.00    -0.420 OA
BRANCH  20  22
ATOM     21  O   UNL     1     -40.141  25.103   3.408  0.00  0.00    -0.203 OA
ATOM     22  C   UNL     1     -39.405  25.880   2.815  0.00  0.00    +0.512 C 
BRANCH  22  23
ATOM     23  O   UNL     1     -39.751  26.661   1.754  0.00  0.00    -0.418 OA
BRANCH  23  24
ATOM     24  C   UNL     1     -40.656  26.065   0.818  0.00  0.00    +0.212 C 
ATOM     25  C   UNL     1     -39.858  25.395  -0.281  0.00  0.00    +0.051 C 
ENDBRANCH  23  24
ENDBRANCH  22  23
ENDBRANCH  20  22
ENDBRANCH   4  20
BRANCH   7  26
ATOM     26  O   UNL     1     -34.506  23.579   4.737  0.00  0.00    -0.435 OA
BRANCH  26  27
ATOM     27  C   UNL     1     -35.193  23.329   5.970  0.00  0.00    +0.210 C 
ATOM     28  C   UNL     1     -35.197  21.838   6.237  0.00  0.00    +0.051 C 
ENDBRANCH  26  27
ENDBRANCH   7  26
TORSDOF 9
ENDMDL
MODEL 2
REMARK VINA RESULT:      -5.1      4.765      9.073
REMARK  Name = 20981865
REMARK  9 active torsions:
REMARK  status: ('A' for Active; 'I' for Inactive)
REMARK    1  A    between atoms: C_3  and  C_8
REMARK    2  A    between atoms: C_4  and  O_20
REMARK    3  A    between atoms: C_7  and  O_26
REMARK    4  A    between atoms: C_8  and  S_11
REMARK    5  A    between atoms: S_11  and  C_13
REMARK    6  A    between atoms: O_20  and  C_22
REMARK    7  A    between atoms: C_22  and  O_23
REMARK    8  A    between atoms: O_23  and  C_24
REMARK    9  A    between atoms: O_26  and  C_27
REMARK                            x       y       z     vdW  Elec       q    Type
REMARK                         _______ _______ _______ _____ _____    ______ ____
ROOT
ATOM      1  O   UNL     1     -37.185  29.031   0.668  0.00  0.00    -0.226 OA
ATOM      2  N   UNL     1     -35.446  28.324   2.022  0.00  0.00    -0.243 N 
ATOM      3  C   UNL     1     -34.513  28.604   3.118  0.00  0.00    +0.130 C 
ATOM      4  C   UNL     1     -34.109  27.212   3.621  0.00  0.00    +0.193 C 
ATOM      5  C   UNL     1     -34.248  26.321   2.389  0.00  0.00    +0.067 C 
ATOM      6  C   UNL     1     -35.447  26.911   1.661  0.00  0.00    +0.101 C 
ATOM      7  C   UNL     1     -36.313  29.273   1.499  0.00  0.00    +0.405 C 
ENDROOT
BRANCH   3   8
ATOM      8  C   UNL     1     -33.330  29.392   2.627  0.00  0.00    +0.093 C 
ATOM      9  C   UNL     1     -32.081  28.698   2.220  0.00  0.00    +0.016 C 
ATOM     10  C   UNL     1     -32.949  29.361   1.192  0.00  0.00    +0.016 C 
BRANCH   8  11
ATOM     11  S   UNL     1     -33.149  30.964   3.489  0.00  0.00    +0.065 S 
ATOM     12  O   UNL     1     -32.460  31.936   2.537  0.00  0.00    -0.251 OA
BRANCH  11  13
ATOM     13  C   UNL     1     -31.844  30.448   4.641  0.00  0.00    +0.056 C 
ATOM     14  C   UNL     1     -30.541  30.852   4.410  0.00  0.00    +0.008 C 
ATOM     15  C   UNL     1     -32.177  29.660   5.729  0.00  0.00    +0.008 C 
ATOM     16  C   UNL     1     -29.538  30.457   5.296  0.00  0.00    -0.004 C 
ATOM     17  C   UNL     1     -31.175  29.266   6.615  0.00  0.00    -0.004 C 
ATOM     18  C   UNL     1     -29.855  29.663   6.399  0.00  0.00    -0.022 C 
ATOM     19  C   UNL     1     -28.784  29.242   7.347  0.00  0.00    +0.031 C 
ENDBRANCH  11  13
ENDBRANCH   8  11
ENDBRANCH   3   8
BRANCH   4  20
ATOM     20  O   UNL     1     -35.024  26.773   4.620  0.00  0.00    -0.420 OA
BRANCH  20  22
ATOM     21  O   UNL     1     -33.470  26.251   6.240  0.00  0.00    -0.203 OA
ATOM     22  C   UNL     1     -34.494  26.005   5.617  0.00  0.00    +0.512 C 
BRANCH  22  23
ATOM     23  O   UNL     1     -35.300  24.921   5.795  0.00  0.00    -0.418 OA
BRANCH  23  24
ATOM     24  C   UNL     1     -34.815  23.694   5.239  0.00  0.00    +0.212 C 
ATOM     25  C   UNL     1     -35.416  22.535   6.005  0.00  0.00    +0.051 C 
ENDBRANCH  23  24
ENDBRANCH  22  23
ENDBRANCH  20  22
ENDBRANCH   4  20
BRANCH   7  26
ATOM     26  O   UNL     1     -36.082  30.519   2.017  0.00  0.00    -0.435 OA
BRANCH  26  27
ATOM     27  C   UNL     1     -36.465  31.623   1.188  0.00  0.00    +0.210 C 
ATOM     28  C   UNL     1     -37.588  32.380   1.864  0.00  0.00    +0.051 C 
ENDBRANCH  26  27
ENDBRANCH   7  26
TORSDOF 9
ENDMDL
MODEL 3
REMARK VINA RESULT:      -5.1      2.038      2.935
REMARK  Name = 20981865
REMARK  9 active torsions:
REMARK  status: ('A' for Active; 'I' for Inactive)
REMARK    1  A    between atoms: C_3  and  C_8
REMARK    2  A    between atoms: C_4  and  O_20
REMARK    3  A    between atoms: C_7  and  O_26
REMARK    4  A    between atoms: C_8  and  S_11
REMARK    5  A    between atoms: S_11  and  C_13
REMARK    6  A    between atoms: O_20  and  C_22
REMARK    7  A    between atoms: C_22  and  O_23
REMARK    8  A    between atoms: O_23  and  C_24
REMARK    9  A    between atoms: O_26  and  C_27
REMARK                            x       y       z     vdW  Elec       q    Type
REMARK                         _______ _______ _______ _____ _____    ______ ____
ROOT
ATOM      1  O   UNL     1     -33.742  25.369   5.006  0.00  0.00    -0.226 OA
ATOM      2  N   UNL     1     -35.380  25.514   3.376  0.00  0.00    -0.243 N 
ATOM      3  C   UNL     1     -36.481  24.884   2.641  0.00  0.00    +0.130 C 
ATOM      4  C   UNL     1     -37.298  26.071   2.115  0.00  0.00    +0.193 C 
ATOM      5  C   UNL     1     -36.269  27.189   1.967  0.00  0.00    +0.067 C 
ATOM      6  C   UNL     1     -35.321  26.951   3.133  0.00  0.00    +0.101 C 
ATOM      7  C   UNL     1     -34.588  24.836   4.291  0.00  0.00    +0.405 C 
ENDROOT
BRANCH   3   8
ATOM      8  C   UNL     1     -35.957  24.021   1.526  0.00  0.00    +0.093 C 
ATOM      9  C   UNL     1     -35.302  24.636   0.343  0.00  0.00    +0.016 C 
ATOM     10  C   UNL     1     -34.494  23.849   1.333  0.00  0.00    +0.016 C 
BRANCH   8  11
ATOM     11  S   UNL     1     -36.998  22.581   1.227  0.00  0.00    +0.065 S 
ATOM     12  O   UNL     1     -37.731  22.263   2.527  0.00  0.00    -0.251 OA
BRANCH  11  13
ATOM     13  C   UNL     1     -35.669  21.349   1.136  0.00  0.00    +0.056 C 
ATOM     14  C   UNL     1     -35.285  20.684   2.288  0.00  0.00    +0.008 C 
ATOM     15  C   UNL     1     -35.064  21.095  -0.083  0.00  0.00    +0.008 C 
ATOM     16  C   UNL     1     -34.264  19.735   2.218  0.00  0.00    -0.004 C 
ATOM     17  C   UNL     1     -34.045  20.147  -0.152  0.00  0.00    -0.004 C 
ATOM     18  C   UNL     1     -33.643  19.467   0.998  0.00  0.00    -0.022 C 
ATOM     19  C   UNL     1     -32.553  18.452   0.923  0.00  0.00    +0.031 C 
ENDBRANCH  11  13
ENDBRANCH   8  11
ENDBRANCH   3   8
BRANCH   4  20
ATOM     20  O   UNL     1     -38.271  26.455   3.082  0.00  0.00    -0.420 OA
BRANCH  20  22
ATOM     21  O   UNL     1     -39.708  24.723   3.576  0.00  0.00    -0.203 OA
ATOM     22  C   UNL     1     -39.461  25.788   3.027  0.00  0.00    +0.512 C 
BRANCH  22  23
ATOM     23  O   UNL     1     -40.320  26.511   2.256  0.00  0.00    -0.418 OA
BRANCH  23  24
ATOM     24  C   UNL     1     -40.922  25.799   1.169  0.00  0.00    +0.212 C 
ATOM     25  C   UNL     1     -42.381  25.552   1.490  0.00  0.00    +0.051 C 
ENDBRANCH  23  24
ENDBRANCH  22  23
ENDBRANCH  20  22
ENDBRANCH   4  20
BRANCH   7  26
ATOM     26  O   UNL     1     -34.857  23.493   4.306  0.00  0.00    -0.435 OA
BRANCH  26  27
ATOM     27  C   UNL     1     -35.545  23.004   5.464  0.00  0.00    +0.210 C 
ATOM     28  C   UNL     1     -34.942  21.676   5.869  0.00  0.00    +0.051 C 
ENDBRANCH  26  27
ENDBRANCH   7  26
TORSDOF 9
ENDMDL
MODEL 4
REMARK VINA RESULT:      -4.9      1.816      2.380
REMARK  Name = 20981865
REMARK  9 active torsions:
REMARK  status: ('A' for Active; 'I' for Inactive)
REMARK    1  A    between atoms: C_3  and  C_8
REMARK    2  A    between atoms: C_4  and  O_20
REMARK    3  A    between atoms: C_7  and  O_26
REMARK    4  A    between atoms: C_8  and  S_11
REMARK    5  A    between atoms: S_11  and  C_13
REMARK    6  A    between atoms: O_20  and  C_22
REMARK    7  A    between atoms: C_22  and  O_23
REMARK    8  A    between atoms: O_23  and  C_24
REMARK    9  A    between atoms: O_26  and  C_27
REMARK                            x       y       z     vdW  Elec       q    Type
REMARK                         _______ _______ _______ _____ _____    ______ ____
ROOT
ATOM      1  O   UNL     1     -36.250  25.751   5.310  0.00  0.00    -0.226 OA
ATOM      2  N   UNL     1     -37.179  24.773   3.429  0.00  0.00    -0.243 N 
ATOM      3  C   UNL     1     -37.685  23.574   2.756  0.00  0.00    +0.130 C 
ATOM      4  C   UNL     1     -38.619  24.127   1.671  0.00  0.00    +0.193 C 
ATOM      5  C   UNL     1     -38.037  25.501   1.351  0.00  0.00    +0.067 C 
ATOM      6  C   UNL     1     -37.522  25.988   2.698  0.00  0.00    +0.101 C 
ATOM      7  C   UNL     1     -36.571  24.749   4.676  0.00  0.00    +0.405 C 
ENDROOT
BRANCH   3   8
ATOM      8  C   UNL     1     -36.556  22.769   2.172  0.00  0.00    +0.093 C 
ATOM      9  C   UNL     1     -36.021  23.093   0.825  0.00  0.00    +0.016 C 
ATOM     10  C   UNL     1     -35.198  23.358   2.051  0.00  0.00    +0.016 C 
BRANCH   8  11
ATOM     11  S   UNL     1     -36.657  21.026   2.615  0.00  0.00    +0.065 S 
ATOM     12  O   UNL     1     -35.237  20.529   2.865  0.00  0.00    -0.251 OA
BRANCH  11  13
ATOM     13  C   UNL     1     -37.082  20.392   0.968  0.00  0.00    +0.056 C 
ATOM     14  C   UNL     1     -38.352  20.613   0.467  0.00  0.00    +0.008 C 
ATOM     15  C   UNL     1     -36.127  19.700   0.243  0.00  0.00    +0.008 C 
ATOM     16  C   UNL     1     -38.679  20.127  -0.800  0.00  0.00    -0.004 C 
ATOM     17  C   UNL     1     -36.453  19.215  -1.023  0.00  0.00    -0.004 C 
ATOM     18  C   UNL     1     -37.729  19.427  -1.545  0.00  0.00    -0.022 C 
ATOM     19  C   UNL     1     -38.077  18.909  -2.899  0.00  0.00    +0.031 C 
ENDBRANCH  11  13
ENDBRANCH   8  11
ENDBRANCH   3   8
BRANCH   4  20
ATOM     20  O   UNL     1     -39.932  24.287   2.198  0.00  0.00    -0.420 OA
BRANCH  20  22
ATOM     21  O   UNL     1     -41.730  25.172   1.060  0.00  0.00    -0.203 OA
ATOM     22  C   UNL     1     -40.948  24.259   1.285  0.00  0.00    +0.512 C 
BRANCH  22  23
ATOM     23  O   UNL     1     -40.938  23.041   0.675  0.00  0.00    -0.418 OA
BRANCH  23  24
ATOM     24  C   UNL     1     -41.395  23.028  -0.682  0.00  0.00    +0.212 C 
ATOM     25  C   UNL     1     -40.241  23.390  -1.594  0.00  0.00    +0.051 C 
ENDBRANCH  23  24
ENDBRANCH  22  23
ENDBRANCH  20  22
ENDBRANCH   4  20
BRANCH   7  26
ATOM     26  O   UNL     1     -36.366  23.470   5.120  0.00  0.00    -0.435 OA
BRANCH  26  27
ATOM     27  C   UNL     1     -35.103  23.220   5.749  0.00  0.00    +0.210 C 
ATOM     28  C   UNL     1     -35.040  21.766   6.167  0.00  0.00    +0.051 C 
ENDBRANCH  26  27
ENDBRANCH   7  26
TORSDOF 9
ENDMDL
MODEL 5
REMARK VINA RESULT:      -4.9      2.844      5.957
REMARK  Name = 20981865
REMARK  9 active torsions:
REMARK  status: ('A' for Active; 'I' for Inactive)
REMARK    1  A    between atoms: C_3  and  C_8
REMARK    2  A    between atoms: C_4  and  O_20
REMARK    3  A    between atoms: C_7  and  O_26
REMARK    4  A    between atoms: C_8  and  S_11
REMARK    5  A    between atoms: S_11  and  C_13
REMARK    6  A    between atoms: O_20  and  C_22
REMARK    7  A    between atoms: C_22  and  O_23
REMARK    8  A    between atoms: O_23  and  C_24
REMARK    9  A    between atoms: O_26  and  C_27
REMARK                            x       y       z     vdW  Elec       q    Type
REMARK                         _______ _______ _______ _____ _____    ______ ____
ROOT
ATOM      1  O   UNL     1     -37.642  29.657  -0.619  0.00  0.00    -0.226 OA
ATOM      2  N   UNL     1     -36.863  27.669   0.275  0.00  0.00    -0.243 N 
ATOM      3  C   UNL     1     -36.351  26.926   1.430  0.00  0.00    +0.130 C 
ATOM      4  C   UNL     1     -36.660  25.462   1.092  0.00  0.00    +0.193 C 
ATOM      5  C   UNL     1     -36.645  25.427  -0.434  0.00  0.00    +0.067 C 
ATOM      6  C   UNL     1     -37.221  26.780  -0.824  0.00  0.00    +0.101 C 
ATOM      7  C   UNL     1     -37.101  29.036   0.293  0.00  0.00    +0.405 C 
ENDROOT
BRANCH   3   8
ATOM      8  C   UNL     1     -34.877  27.164   1.611  0.00  0.00    +0.093 C 
ATOM      9  C   UNL     1     -33.886  26.273   0.956  0.00  0.00    +0.016 C 
ATOM     10  C   UNL     1     -34.057  27.688   0.489  0.00  0.00    +0.016 C 
BRANCH   8  11
ATOM     11  S   UNL     1     -34.477  27.757   3.265  0.00  0.00    +0.065 S 
ATOM     12  O   UNL     1     -32.966  27.956   3.331  0.00  0.00    -0.251 OA
BRANCH  11  13
ATOM     13  C   UNL     1     -34.775  26.200   4.148  0.00  0.00    +0.056 C 
ATOM     14  C   UNL     1     -35.916  26.069   4.920  0.00  0.00    +0.008 C 
ATOM     15  C   UNL     1     -33.856  25.171   4.033  0.00  0.00    +0.008 C 
ATOM     16  C   UNL     1     -36.146  24.871   5.598  0.00  0.00    -0.004 C 
ATOM     17  C   UNL     1     -34.086  23.974   4.710  0.00  0.00    -0.004 C 
ATOM     18  C   UNL     1     -35.230  23.824   5.494  0.00  0.00    -0.022 C 
ATOM     19  C   UNL     1     -35.477  22.543   6.217  0.00  0.00    +0.031 C 
ENDBRANCH  11  13
ENDBRANCH   8  11
ENDBRANCH   3   8
BRANCH   4  20
ATOM     20  O   UNL     1     -37.964  25.123   1.554  0.00  0.00    -0.420 OA
BRANCH  20  22
ATOM     21  O   UNL     1     -38.992  23.863   3.187  0.00  0.00    -0.203 OA
ATOM     22  C   UNL     1     -38.026  24.126   2.484  0.00  0.00    +0.512 C 
BRANCH  22  23
ATOM     23  O   UNL     1     -36.827  23.479   2.495  0.00  0.00    -0.418 OA
BRANCH  23  24
ATOM     24  C   UNL     1     -36.895  22.052   2.394  0.00  0.00    +0.212 C 
ATOM     25  C   UNL     1     -35.488  21.496   2.316  0.00  0.00    +0.051 C 
ENDBRANCH  23  24
ENDBRANCH  22  23
ENDBRANCH  20  22
ENDBRANCH   4  20
BRANCH   7  26
ATOM     26  O   UNL     1     -36.657  29.618   1.450  0.00  0.00    -0.435 OA
BRANCH  26  27
ATOM     27  C   UNL     1     -36.275  30.995   1.353  0.00  0.00    +0.210 C 
ATOM     28  C   UNL     1     -35.305  31.317   2.470  0.00  0.00    +0.051 C 
ENDBRANCH  26  27
ENDBRANCH   7  26
TORSDOF 9
ENDMDL
MODEL 6
REMARK VINA RESULT:      -4.9      2.151      5.031
REMARK  Name = 20981865
REMARK  9 active torsions:
REMARK  status: ('A' for Active; 'I' for Inactive)
REMARK    1  A    between atoms: C_3  and  C_8
REMARK    2  A    between atoms: C_4  and  O_20
REMARK    3  A    between atoms: C_7  and  O_26
REMARK    4  A    between atoms: C_8  and  S_11
REMARK    5  A    between atoms: S_11  and  C_13
REMARK    6  A    between atoms: O_20  and  C_22
REMARK    7  A    between atoms: C_22  and  O_23
REMARK    8  A    between atoms: O_23  and  C_24
REMARK    9  A    between atoms: O_26  and  C_27
REMARK                            x       y       z     vdW  Elec       q    Type
REMARK                         _______ _______ _______ _____ _____    ______ ____
ROOT
ATOM      1  O   UNL     1     -37.340  28.315   1.127  0.00  0.00    -0.226 OA
ATOM      2  N   UNL     1     -35.915  26.509   1.382  0.00  0.00    -0.243 N 
ATOM      3  C   UNL     1     -35.702  25.130   1.833  0.00  0.00    +0.130 C 
ATOM      4  C   UNL     1     -34.490  24.660   1.018  0.00  0.00    +0.193 C 
ATOM      5  C   UNL     1     -33.713  25.944   0.742  0.00  0.00    +0.067 C 
ATOM      6  C   UNL     1     -34.806  26.988   0.565  0.00  0.00    +0.101 C 
ATOM      7  C   UNL     1     -37.094  27.208   1.599  0.00  0.00    +0.405 C 
ENDROOT
BRANCH   3   8
ATOM      8  C   UNL     1     -35.439  25.084   3.314  0.00  0.00    +0.093 C 
ATOM      9  C   UNL     1     -34.047  25.015   3.827  0.00  0.00    +0.016 C 
ATOM     10  C   UNL     1     -34.860  26.262   4.010  0.00  0.00    +0.016 C 
BRANCH   8  11
ATOM     11  S   UNL     1     -36.687  24.138   4.202  0.00  0.00    +0.065 S 
ATOM     12  O   UNL     1     -36.080  23.710   5.535  0.00  0.00    -0.251 OA
BRANCH  11  13
ATOM     13  C   UNL     1     -36.626  22.646   3.170  0.00  0.00    +0.056 C 
ATOM     14  C   UNL     1     -35.563  21.771   3.310  0.00  0.00    +0.008 C 
ATOM     15  C   UNL     1     -37.643  22.411   2.262  0.00  0.00    +0.008 C 
ATOM     16  C   UNL     1     -35.516  20.624   2.518  0.00  0.00    -0.004 C 
ATOM     17  C   UNL     1     -37.596  21.264   1.470  0.00  0.00    -0.004 C 
ATOM     18  C   UNL     1     -36.533  20.370   1.597  0.00  0.00    -0.022 C 
ATOM     19  C   UNL     1     -36.484  19.143   0.751  0.00  0.00    +0.031 C 
ENDBRANCH  11  13
ENDBRANCH   8  11
ENDBRANCH   3   8
BRANCH   4  20
ATOM     20  O   UNL     1     -34.925  24.103  -0.218  0.00  0.00    -0.420 OA
BRANCH  20  22
ATOM     21  O   UNL     1     -35.266  22.005  -1.110  0.00  0.00    -0.203 OA
ATOM     22  C   UNL     1     -34.630  22.784  -0.413  0.00  0.00    +0.512 C 
BRANCH  22  23
ATOM     23  O   UNL     1     -33.511  22.487   0.304  0.00  0.00    -0.418 OA
BRANCH  23  24
ATOM     24  C   UNL     1     -32.577  21.615  -0.342  0.00  0.00    +0.212 C 
ATOM     25  C   UNL     1     -32.572  20.280   0.374  0.00  0.00    +0.051 C 
ENDBRANCH  23  24
ENDBRANCH  22  23
ENDBRANCH  20  22
ENDBRANCH   4  20
BRANCH   7  26
ATOM     26  O   UNL     1     -37.957  26.518   2.408  0.00  0.00    -0.435 OA
BRANCH  26  27
ATOM     27  C   UNL     1     -39.228  26.190   1.834  0.00  0.00    +0.210 C 
ATOM     28  C   UNL     1     -40.034  25.398   2.841  0.00  0.00    +0.051 C 
ENDBRANCH  26  27
ENDBRANCH   7  26
TORSDOF 9
ENDMDL
MODEL 7
REMARK VINA RESULT:      -4.8      2.557      5.281
REMARK  Name = 20981865
REMARK  9 active torsions:
REMARK  status: ('A' for Active; 'I' for Inactive)
REMARK    1  A    between atoms: C_3  and  C_8
REMARK    2  A    between atoms: C_4  and  O_20
REMARK    3  A    between atoms: C_7  and  O_26
REMARK    4  A    between atoms: C_8  and  S_11
REMARK    5  A    between atoms: S_11  and  C_13
REMARK    6  A    between atoms: O_20  and  C_22
REMARK    7  A    between atoms: C_22  and  O_23
REMARK    8  A    between atoms: O_23  and  C_24
REMARK    9  A    between atoms: O_26  and  C_27
REMARK                            x       y       z     vdW  Elec       q    Type
REMARK                         _______ _______ _______ _____ _____    ______ ____
ROOT
ATOM      1  O   UNL     1     -37.821  28.548   0.745  0.00  0.00    -0.226 OA
ATOM      2  N   UNL     1     -37.655  26.348   1.446  0.00  0.00    -0.243 N 
ATOM      3  C   UNL     1     -36.822  25.241   1.923  0.00  0.00    +0.130 C 
ATOM      4  C   UNL     1     -37.812  24.321   2.649  0.00  0.00    +0.193 C 
ATOM      5  C   UNL     1     -39.139  24.578   1.939  0.00  0.00    +0.067 C 
ATOM      6  C   UNL     1     -39.076  26.060   1.600  0.00  0.00    +0.101 C 
ATOM      7  C   UNL     1     -37.138  27.567   1.032  0.00  0.00    +0.405 C 
ENDROOT
BRANCH   3   8
ATOM      8  C   UNL     1     -36.144  24.545   0.774  0.00  0.00    +0.093 C 
ATOM      9  C   UNL     1     -36.805  23.404   0.091  0.00  0.00    +0.016 C 
ATOM     10  C   UNL     1     -36.649  24.720  -0.612  0.00  0.00    +0.016 C 
BRANCH   8  11
ATOM     11  S   UNL     1     -34.358  24.447   0.989  0.00  0.00    +0.065 S 
ATOM     12  O   UNL     1     -33.709  24.915  -0.309  0.00  0.00    -0.251 OA
BRANCH  11  13
ATOM     13  C   UNL     1     -34.219  22.638   0.945  0.00  0.00    +0.056 C 
ATOM     14  C   UNL     1     -33.465  22.043  -0.051  0.00  0.00    +0.008 C 
ATOM     15  C   UNL     1     -34.869  21.886   1.909  0.00  0.00    +0.008 C 
ATOM     16  C   UNL     1     -33.356  20.652  -0.085  0.00  0.00    -0.004 C 
ATOM     17  C   UNL     1     -34.760  20.496   1.875  0.00  0.00    -0.004 C 
ATOM     18  C   UNL     1     -34.004  19.878   0.878  0.00  0.00    -0.022 C 
ATOM     19  C   UNL     1     -33.887  18.392   0.844  0.00  0.00    +0.031 C 
ENDBRANCH  11  13
ENDBRANCH   8  11
ENDBRANCH   3   8
BRANCH   4  20
ATOM     20  O   UNL     1     -37.928  24.714   4.013  0.00  0.00    -0.420 OA
BRANCH  20  22
ATOM     21  O   UNL     1     -36.217  25.644   5.245  0.00  0.00    -0.203 OA
ATOM     22  C   UNL     1     -36.774  24.679   4.743  0.00  0.00    +0.512 C 
BRANCH  22  23
ATOM     23  O   UNL     1     -36.353  23.385   4.810  0.00  0.00    -0.418 OA
BRANCH  23  24
ATOM     24  C   UNL     1     -35.258  23.138   5.699  0.00  0.00    +0.212 C 
ATOM     25  C   UNL     1     -35.132  21.646   5.924  0.00  0.00    +0.051 C 
ENDBRANCH  23  24
ENDBRANCH  22  23
ENDBRANCH  20  22
ENDBRANCH   4  20
BRANCH   7  26
ATOM     26  O   UNL     1     -35.770  27.551   0.976  0.00  0.00    -0.435 OA
BRANCH  26  27
ATOM     27  C   UNL     1     -35.165  28.547   0.142  0.00  0.00    +0.210 C 
ATOM     28  C   UNL     1     -35.056  28.007  -1.269  0.00  0.00    +0.051 C 
ENDBRANCH  26  27
ENDBRANCH   7  26
TORSDOF 9
ENDMDL
MODEL 8
REMARK VINA RESULT:      -4.7      3.229      5.938
REMARK  Name = 20981865
REMARK  9 active torsions:
REMARK  status: ('A' for Active; 'I' for Inactive)
REMARK    1  A    between atoms: C_3  and  C_8
REMARK    2  A    between atoms: C_4  and  O_20
REMARK    3  A    between atoms: C_7  and  O_26
REMARK    4  A    between atoms: C_8  and  S_11
REMARK    5  A    between atoms: S_11  and  C_13
REMARK    6  A    between atoms: O_20  and  C_22
REMARK    7  A    between atoms: C_22  and  O_23
REMARK    8  A    between atoms: O_23  and  C_24
REMARK    9  A    between atoms: O_26  and  C_27
REMARK                            x       y       z     vdW  Elec       q    Type
REMARK                         _______ _______ _______ _____ _____    ______ ____
ROOT
ATOM      1  O   UNL     1     -31.841  24.510  -0.253  0.00  0.00    -0.226 OA
ATOM      2  N   UNL     1     -32.991  25.730   1.343  0.00  0.00    -0.243 N 
ATOM      3  C   UNL     1     -34.127  25.840   2.264  0.00  0.00    +0.130 C 
ATOM      4  C   UNL     1     -33.654  26.856   3.311  0.00  0.00    +0.193 C 
ATOM      5  C   UNL     1     -32.664  27.734   2.550  0.00  0.00    +0.067 C 
ATOM      6  C   UNL     1     -31.989  26.760   1.595  0.00  0.00    +0.101 C 
ATOM      7  C   UNL     1     -32.840  24.687   0.440  0.00  0.00    +0.405 C 
ENDROOT
BRANCH   3   8
ATOM      8  C   UNL     1     -35.361  26.307   1.542  0.00  0.00    +0.093 C 
ATOM      9  C   UNL     1     -35.843  27.702   1.703  0.00  0.00    +0.016 C 
ATOM     10  C   UNL     1     -35.251  27.251   0.400  0.00  0.00    +0.016 C 
BRANCH   8  11
ATOM     11  S   UNL     1     -36.613  25.017   1.421  0.00  0.00    +0.065 S 
ATOM     12  O   UNL     1     -37.968  25.662   1.691  0.00  0.00    -0.251 OA
BRANCH  11  13
ATOM     13  C   UNL     1     -36.201  24.150   2.961  0.00  0.00    +0.056 C 
ATOM     14  C   UNL     1     -36.285  24.831   4.162  0.00  0.00    +0.008 C 
ATOM     15  C   UNL     1     -35.813  22.822   2.906  0.00  0.00    +0.008 C 
ATOM     16  C   UNL     1     -35.970  24.164   5.347  0.00  0.00    -0.004 C 
ATOM     17  C   UNL     1     -35.499  22.156   4.090  0.00  0.00    -0.004 C 
ATOM     18  C   UNL     1     -35.576  22.826   5.310  0.00  0.00    -0.022 C 
ATOM     19  C   UNL     1     -35.241  22.112   6.576  0.00  0.00    +0.031 C 
ENDBRANCH  11  13
ENDBRANCH   8  11
ENDBRANCH   3   8
BRANCH   4  20
ATOM     20  O   UNL     1     -32.968  26.184   4.364  0.00  0.00    -0.420 OA
BRANCH  20  22
ATOM     21  O   UNL     1     -33.878  26.729   6.410  0.00  0.00    -0.203 OA
ATOM     22  C   UNL     1     -32.984  26.808   5.578  0.00  0.00    +0.512 C 
BRANCH  22  23
ATOM     23  O   UNL     1     -31.837  27.533   5.699  0.00  0.00    -0.418 OA
BRANCH  23  24
ATOM     24  C   UNL     1     -31.889  28.619   6.632  0.00  0.00    +0.212 C 
ATOM     25  C   UNL     1     -31.844  29.926   5.868  0.00  0.00    +0.051 C 
ENDBRANCH  23  24
ENDBRANCH  22  23
ENDBRANCH  20  22
ENDBRANCH   4  20
BRANCH   7  26
ATOM     26  O   UNL     1     -33.941  23.874   0.409  0.00  0.00    -0.435 OA
BRANCH  26  27
ATOM     27  C   UNL     1     -33.897  22.796  -0.534  0.00  0.00    +0.210 C 
ATOM     28  C   UNL     1     -33.751  21.490   0.219  0.00  0.00    +0.051 C 
ENDBRANCH  26  27
ENDBRANCH   7  26
TORSDOF 9
ENDMDL
MODEL 9
REMARK VINA RESULT:      -4.7      1.931      3.100
REMARK  Name = 20981865
REMARK  9 active torsions:
REMARK  status: ('A' for Active; 'I' for Inactive)
REMARK    1  A    between atoms: C_3  and  C_8
REMARK    2  A    between atoms: C_4  and  O_20
REMARK    3  A    between atoms: C_7  and  O_26
REMARK    4  A    between atoms: C_8  and  S_11
REMARK    5  A    between atoms: S_11  and  C_13
REMARK    6  A    between atoms: O_20  and  C_22
REMARK    7  A    between atoms: C_22  and  O_23
REMARK    8  A    between atoms: O_23  and  C_24
REMARK    9  A    between atoms: O_26  and  C_27
REMARK                            x       y       z     vdW  Elec       q    Type
REMARK                         _______ _______ _______ _____ _____    ______ ____
ROOT
ATOM      1  O   UNL     1     -33.428  24.877   4.818  0.00  0.00    -0.226 OA
ATOM      2  N   UNL     1     -34.755  25.051   2.929  0.00  0.00    -0.243 N 
ATOM      3  C   UNL     1     -36.055  24.848   2.283  0.00  0.00    +0.130 C 
ATOM      4  C   UNL     1     -36.044  25.840   1.113  0.00  0.00    +0.193 C 
ATOM      5  C   UNL     1     -34.564  25.981   0.766  0.00  0.00    +0.067 C 
ATOM      6  C   UNL     1     -33.873  25.884   2.118  0.00  0.00    +0.101 C 
ATOM      7  C   UNL     1     -34.465  24.613   4.213  0.00  0.00    +0.405 C 
ENDROOT
BRANCH   3   8
ATOM      8  C   UNL     1     -36.206  23.426   1.816  0.00  0.00    +0.093 C 
ATOM      9  C   UNL     1     -36.046  23.086   0.379  0.00  0.00    +0.016 C 
ATOM     10  C   UNL     1     -35.018  22.649   1.380  0.00  0.00    +0.016 C 
BRANCH   8  11
ATOM     11  S   UNL     1     -37.478  22.536   2.730  0.00  0.00    +0.065 S 
ATOM     12  O   UNL     1     -37.829  21.284   1.933  0.00  0.00    -0.251 OA
BRANCH  11  13
ATOM     13  C   UNL     1     -38.845  23.685   2.404  0.00  0.00    +0.056 C 
ATOM     14  C   UNL     1     -39.092  24.711   3.299  0.00  0.00    +0.008 C 
ATOM     15  C   UNL     1     -39.614  23.515   1.266  0.00  0.00    +0.008 C 
ATOM     16  C   UNL     1     -40.142  25.596   3.048  0.00  0.00    -0.004 C 
ATOM     17  C   UNL     1     -40.663  24.399   1.016  0.00  0.00    -0.004 C 
ATOM     18  C   UNL     1     -40.928  25.439   1.907  0.00  0.00    -0.022 C 
ATOM     19  C   UNL     1     -42.049  26.385   1.638  0.00  0.00    +0.031 C 
ENDBRANCH  11  13
ENDBRANCH   8  11
ENDBRANCH   3   8
BRANCH   4  20
ATOM     20  O   UNL     1     -36.545  27.102   1.543  0.00  0.00    -0.420 OA
BRANCH  20  22
ATOM     21  O   UNL     1     -38.372  26.984   0.144  0.00  0.00    -0.203 OA
ATOM     22  C   UNL     1     -37.560  27.626   0.795  0.00  0.00    +0.512 C 
BRANCH  22  23
ATOM     23  O   UNL     1     -37.508  28.984   0.897  0.00  0.00    -0.418 OA
BRANCH  23  24
ATOM     24  C   UNL     1     -36.198  29.558   0.824  0.00  0.00    +0.212 C 
ATOM     25  C   UNL     1     -36.015  30.517   1.981  0.00  0.00    +0.051 C 
ENDBRANCH  23  24
ENDBRANCH  22  23
ENDBRANCH  20  22
ENDBRANCH   4  20
BRANCH   7  26
ATOM     26  O   UNL     1     -35.473  23.845   4.732  0.00  0.00    -0.435 OA
BRANCH  26  27
ATOM     27  C   UNL     1     -35.202  23.224   5.994  0.00  0.00    +0.210 C 
ATOM     28  C   UNL     1     -35.137  21.724   5.801  0.00  0.00    +0.051 C 
ENDBRANCH  26  27
ENDBRANCH   7  26
TORSDOF 9
ENDMDL
