MODEL 1
REMARK VINA RESULT:      -7.1      0.000      0.000
REMARK  Name = 54692968
REMARK  6 active torsions:
REMARK  status: ('A' for Active; 'I' for Inactive)
REMARK    1  A    between atoms: C_6  and  O_25
REMARK    2  A    between atoms: C_7  and  N_14
REMARK    3  A    between atoms: C_9  and  O_27
REMARK    4  A    between atoms: C_15  and  O_17
REMARK    5  A    between atoms: O_17  and  C_18
REMARK    6  A    between atoms: C_18  and  C_19
REMARK                            x       y       z     vdW  Elec       q    Type
REMARK                         _______ _______ _______ _____ _____    ______ ____
ROOT
ATOM      1  O   UNL     1     -34.417  24.668   5.591  0.00  0.00    -0.420 OA
ATOM      2  O   UNL     1     -33.756  26.622   6.561  0.00  0.00    -0.243 OA
ATOM      3  C   UNL     1     -34.697  24.529   3.168  0.00  0.00    +0.070 A 
ATOM      4  C   UNL     1     -34.763  23.942   4.434  0.00  0.00    +0.151 A 
ATOM      5  C   UNL     1     -35.182  22.625   4.629  0.00  0.00    +0.047 C 
ATOM      6  C   UNL     1     -34.237  25.920   3.083  0.00  0.00    +0.156 A 
ATOM      7  C   UNL     1     -33.932  26.606   4.194  0.00  0.00    +0.164 A 
ATOM      8  C   UNL     1     -35.092  23.747   2.075  0.00  0.00    +0.009 C 
ATOM      9  C   UNL     1     -35.559  21.863   3.528  0.00  0.00    +0.133 C 
ATOM     10  C   UNL     1     -35.516  22.424   2.254  0.00  0.00    +0.037 C 
ATOM     11  C   UNL     1     -35.235  22.036   6.001  0.00  0.00    +0.037 C 
ATOM     12  C   UNL     1     -34.022  25.997   5.540  0.00  0.00    +0.363 A 
ENDROOT
BRANCH   7  14
ATOM     13  O   UNL     1     -31.245  27.538   3.807  0.00  0.00    -0.226 OA
ATOM     14  N   UNL     1     -33.511  27.909   4.164  0.00  0.00    -0.242 N 
ATOM     15  C   UNL     1     -32.202  28.290   3.974  0.00  0.00    +0.406 C 
ATOM     16  H   UNL     1     -34.185  28.616   4.287  0.00  0.00    +0.158 HD
BRANCH  15  17
ATOM     17  O   UNL     1     -32.117  29.654   3.997  0.00  0.00    -0.429 OA
BRANCH  17  18
ATOM     18  C   UNL     1     -32.039  30.252   5.296  0.00  0.00    +0.237 C 
BRANCH  18  19
ATOM     19  C   UNL     1     -30.605  30.285   5.735  0.00  0.00    +0.021 C 
ATOM     20  C   UNL     1     -29.704  31.148   5.111  0.00  0.00    -0.001 C 
ATOM     21  C   UNL     1     -30.172  29.453   6.767  0.00  0.00    -0.001 C 
ATOM     22  C   UNL     1     -28.370  31.177   5.518  0.00  0.00    -0.000 C 
ATOM     23  C   UNL     1     -28.840  29.483   7.176  0.00  0.00    -0.000 C 
ATOM     24  C   UNL     1     -27.937  30.345   6.551  0.00  0.00    -0.000 C 
ENDBRANCH  18  19
ENDBRANCH  17  18
ENDBRANCH  15  17
ENDBRANCH   7  14
BRANCH   6  25
ATOM     25  O   UNL     1     -34.166  26.435   1.807  0.00  0.00    -0.504 OA
ATOM     26  H   UNL     1     -34.290  27.354   1.665  0.00  0.00    +0.292 HD
ENDBRANCH   6  25
BRANCH   9  27
ATOM     27  O   UNL     1     -35.976  20.575   3.676  0.00  0.00    -0.506 OA
ATOM     28  H   UNL     1     -35.662  19.912   3.092  0.00  0.00    +0.292 HD
ENDBRANCH   9  27
TORSDOF 6
ENDMDL
MODEL 2
REMARK VINA RESULT:      -6.8      4.273      5.604
REMARK  Name = 54692968
REMARK  6 active torsions:
REMARK  status: ('A' for Active; 'I' for Inactive)
REMARK    1  A    between atoms: C_6  and  O_25
REMARK    2  A    between atoms: C_7  and  N_14
REMARK    3  A    between atoms: C_9  and  O_27
REMARK    4  A    between atoms: C_15  and  O_17
REMARK    5  A    between atoms: O_17  and  C_18
REMARK    6  A    between atoms: C_18  and  C_19
REMARK                            x       y       z     vdW  Elec       q    Type
REMARK                         _______ _______ _______ _____ _____    ______ ____
ROOT
ATOM      1  O   UNL     1     -36.261  23.952   2.107  0.00  0.00    -0.420 OA
ATOM      2  O   UNL     1     -36.709  25.498   0.491  0.00  0.00    -0.243 OA
ATOM      3  C   UNL     1     -35.750  24.666   4.386  0.00  0.00    +0.070 A 
ATOM      4  C   UNL     1     -35.911  23.653   3.438  0.00  0.00    +0.151 A 
ATOM      5  C   UNL     1     -35.726  22.303   3.744  0.00  0.00    +0.047 C 
ATOM      6  C   UNL     1     -35.976  26.050   3.953  0.00  0.00    +0.156 A 
ATOM      7  C   UNL     1     -36.287  26.322   2.677  0.00  0.00    +0.164 A 
ATOM      8  C   UNL     1     -35.367  24.283   5.678  0.00  0.00    +0.009 C 
ATOM      9  C   UNL     1     -35.357  21.945   5.036  0.00  0.00    +0.133 C 
ATOM     10  C   UNL     1     -35.176  22.934   6.000  0.00  0.00    +0.037 C 
ATOM     11  C   UNL     1     -35.912  21.252   2.699  0.00  0.00    +0.037 C 
ATOM     12  C   UNL     1     -36.437  25.255   1.663  0.00  0.00    +0.363 A 
ENDROOT
BRANCH   7  14
ATOM     13  O   UNL     1     -34.322  28.399   2.423  0.00  0.00    -0.226 OA
ATOM     14  N   UNL     1     -36.494  27.598   2.224  0.00  0.00    -0.242 N 
ATOM     15  C   UNL     1     -35.504  28.550   2.127  0.00  0.00    +0.406 C 
ATOM     16  H   UNL     1     -37.406  27.850   1.953  0.00  0.00    +0.158 HD
BRANCH  15  17
ATOM     17  O   UNL     1     -36.036  29.711   1.642  0.00  0.00    -0.429 OA
BRANCH  17  18
ATOM     18  C   UNL     1     -35.163  30.847   1.643  0.00  0.00    +0.237 C 
BRANCH  18  19
ATOM     19  C   UNL     1     -35.986  32.098   1.546  0.00  0.00    +0.021 C 
ATOM     20  C   UNL     1     -35.384  33.303   1.184  0.00  0.00    -0.001 C 
ATOM     21  C   UNL     1     -37.353  32.055   1.821  0.00  0.00    -0.001 C 
ATOM     22  C   UNL     1     -36.149  34.466   1.096  0.00  0.00    -0.000 C 
ATOM     23  C   UNL     1     -38.118  33.218   1.732  0.00  0.00    -0.000 C 
ATOM     24  C   UNL     1     -37.517  34.424   1.370  0.00  0.00    -0.000 C 
ENDBRANCH  18  19
ENDBRANCH  17  18
ENDBRANCH  15  17
ENDBRANCH   7  14
BRANCH   6  25
ATOM     25  O   UNL     1     -35.829  27.003   4.938  0.00  0.00    -0.504 OA
ATOM     26  H   UNL     1     -36.569  27.264   5.451  0.00  0.00    +0.292 HD
ENDBRANCH   6  25
BRANCH   9  27
ATOM     27  O   UNL     1     -35.164  20.640   5.375  0.00  0.00    -0.506 OA
ATOM     28  H   UNL     1     -34.593  20.103   4.860  0.00  0.00    +0.292 HD
ENDBRANCH   9  27
TORSDOF 6
ENDMDL
MODEL 3
REMARK VINA RESULT:      -6.8      2.000      2.847
REMARK  Name = 54692968
REMARK  6 active torsions:
REMARK  status: ('A' for Active; 'I' for Inactive)
REMARK    1  A    between atoms: C_6  and  O_25
REMARK    2  A    between atoms: C_7  and  N_14
REMARK    3  A    between atoms: C_9  and  O_27
REMARK    4  A    between atoms: C_15  and  O_17
REMARK    5  A    between atoms: O_17  and  C_18
REMARK    6  A    between atoms: C_18  and  C_19
REMARK                            x       y       z     vdW  Elec       q    Type
REMARK                         _______ _______ _______ _____ _____    ______ ____
ROOT
ATOM      1  O   UNL     1     -34.413  24.712   5.620  0.00  0.00    -0.420 OA
ATOM      2  O   UNL     1     -33.776  26.688   6.562  0.00  0.00    -0.243 OA
ATOM      3  C   UNL     1     -34.752  24.552   3.206  0.00  0.00    +0.070 A 
ATOM      4  C   UNL     1     -34.771  23.971   4.476  0.00  0.00    +0.151 A 
ATOM      5  C   UNL     1     -35.152  22.645   4.689  0.00  0.00    +0.047 C 
ATOM      6  C   UNL     1     -34.329  25.953   3.101  0.00  0.00    +0.156 A 
ATOM      7  C   UNL     1     -34.013  26.653   4.200  0.00  0.00    +0.164 A 
ATOM      8  C   UNL     1     -35.156  23.754   2.128  0.00  0.00    +0.009 C 
ATOM      9  C   UNL     1     -35.538  21.867   3.603  0.00  0.00    +0.133 C 
ATOM     10  C   UNL     1     -35.542  22.422   2.325  0.00  0.00    +0.037 C 
ATOM     11  C   UNL     1     -35.155  22.064   6.066  0.00  0.00    +0.037 C 
ATOM     12  C   UNL     1     -34.053  26.051   5.551  0.00  0.00    +0.363 A 
ENDROOT
BRANCH   7  14
ATOM     13  O   UNL     1     -31.330  27.648   3.976  0.00  0.00    -0.226 OA
ATOM     14  N   UNL     1     -33.625  27.965   4.152  0.00  0.00    -0.242 N 
ATOM     15  C   UNL     1     -32.315  28.377   4.044  0.00  0.00    +0.406 C 
ATOM     16  H   UNL     1     -34.325  28.657   4.199  0.00  0.00    +0.158 HD
BRANCH  15  17
ATOM     17  O   UNL     1     -32.269  29.743   4.022  0.00  0.00    -0.429 OA
BRANCH  17  18
ATOM     18  C   UNL     1     -33.148  30.384   3.091  0.00  0.00    +0.237 C 
BRANCH  18  19
ATOM     19  C   UNL     1     -32.750  31.824   2.954  0.00  0.00    +0.021 C 
ATOM     20  C   UNL     1     -31.508  32.253   3.423  0.00  0.00    -0.001 C 
ATOM     21  C   UNL     1     -33.623  32.735   2.358  0.00  0.00    -0.001 C 
ATOM     22  C   UNL     1     -31.139  33.592   3.296  0.00  0.00    -0.000 C 
ATOM     23  C   UNL     1     -33.254  34.073   2.230  0.00  0.00    -0.000 C 
ATOM     24  C   UNL     1     -32.012  34.503   2.700  0.00  0.00    -0.000 C 
ENDBRANCH  18  19
ENDBRANCH  17  18
ENDBRANCH  15  17
ENDBRANCH   7  14
BRANCH   6  25
ATOM     25  O   UNL     1     -34.304  26.462   1.821  0.00  0.00    -0.504 OA
ATOM     26  H   UNL     1     -34.655  27.314   1.648  0.00  0.00    +0.292 HD
ENDBRANCH   6  25
BRANCH   9  27
ATOM     27  O   UNL     1     -35.919  20.570   3.768  0.00  0.00    -0.506 OA
ATOM     28  H   UNL     1     -35.945  19.993   3.031  0.00  0.00    +0.292 HD
ENDBRANCH   9  27
TORSDOF 6
ENDMDL
MODEL 4
REMARK VINA RESULT:      -6.7      0.627      2.179
REMARK  Name = 54692968
REMARK  6 active torsions:
REMARK  status: ('A' for Active; 'I' for Inactive)
REMARK    1  A    between atoms: C_6  and  O_25
REMARK    2  A    between atoms: C_7  and  N_14
REMARK    3  A    between atoms: C_9  and  O_27
REMARK    4  A    between atoms: C_15  and  O_17
REMARK    5  A    between atoms: O_17  and  C_18
REMARK    6  A    between atoms: C_18  and  C_19
REMARK                            x       y       z     vdW  Elec       q    Type
REMARK                         _______ _______ _______ _____ _____    ______ ____
ROOT
ATOM      1  O   UNL     1     -34.809  25.040   2.320  0.00  0.00    -0.420 OA
ATOM      2  O   UNL     1     -34.217  27.111   1.571  0.00  0.00    -0.243 OA
ATOM      3  C   UNL     1     -34.653  24.501   4.697  0.00  0.00    +0.070 A 
ATOM      4  C   UNL     1     -34.943  24.126   3.384  0.00  0.00    +0.151 A 
ATOM      5  C   UNL     1     -35.367  22.839   3.047  0.00  0.00    +0.047 C 
ATOM      6  C   UNL     1     -34.221  25.884   4.935  0.00  0.00    +0.156 A 
ATOM      7  C   UNL     1     -34.076  26.737   3.911  0.00  0.00    +0.164 A 
ATOM      8  C   UNL     1     -34.780  23.520   5.689  0.00  0.00    +0.009 C 
ATOM      9  C   UNL     1     -35.498  21.884   4.049  0.00  0.00    +0.133 C 
ATOM     10  C   UNL     1     -35.202  22.224   5.368  0.00  0.00    +0.037 C 
ATOM     11  C   UNL     1     -35.669  22.483   1.628  0.00  0.00    +0.037 C 
ATOM     12  C   UNL     1     -34.359  26.339   2.514  0.00  0.00    +0.363 A 
ENDROOT
BRANCH   7  14
ATOM     13  O   UNL     1     -31.369  27.689   3.955  0.00  0.00    -0.226 OA
ATOM     14  N   UNL     1     -33.663  28.031   4.082  0.00  0.00    -0.242 N 
ATOM     15  C   UNL     1     -32.343  28.423   4.093  0.00  0.00    +0.406 C 
ATOM     16  H   UNL     1     -34.352  28.724   4.205  0.00  0.00    +0.158 HD
BRANCH  15  17
ATOM     17  O   UNL     1     -32.271  29.774   4.284  0.00  0.00    -0.429 OA
BRANCH  17  18
ATOM     18  C   UNL     1     -32.053  30.204   5.633  0.00  0.00    +0.237 C 
BRANCH  18  19
ATOM     19  C   UNL     1     -30.577  30.282   5.889  0.00  0.00    +0.021 C 
ATOM     20  C   UNL     1     -29.790  31.179   5.168  0.00  0.00    -0.001 C 
ATOM     21  C   UNL     1     -29.992  29.456   6.849  0.00  0.00    -0.001 C 
ATOM     22  C   UNL     1     -28.417  31.251   5.405  0.00  0.00    -0.000 C 
ATOM     23  C   UNL     1     -28.620  29.528   7.088  0.00  0.00    -0.000 C 
ATOM     24  C   UNL     1     -27.832  30.426   6.366  0.00  0.00    -0.000 C 
ENDBRANCH  18  19
ENDBRANCH  17  18
ENDBRANCH  15  17
ENDBRANCH   7  14
BRANCH   6  25
ATOM     25  O   UNL     1     -33.976  26.202   6.253  0.00  0.00    -0.504 OA
ATOM     26  H   UNL     1     -34.384  26.953   6.637  0.00  0.00    +0.292 HD
ENDBRANCH   6  25
BRANCH   9  27
ATOM     27  O   UNL     1     -35.905  20.616   3.762  0.00  0.00    -0.506 OA
ATOM     28  H   UNL     1     -35.277  19.921   3.724  0.00  0.00    +0.292 HD
ENDBRANCH   9  27
TORSDOF 6
ENDMDL
MODEL 5
REMARK VINA RESULT:      -6.7      3.451      4.573
REMARK  Name = 54692968
REMARK  6 active torsions:
REMARK  status: ('A' for Active; 'I' for Inactive)
REMARK    1  A    between atoms: C_6  and  O_25
REMARK    2  A    between atoms: C_7  and  N_14
REMARK    3  A    between atoms: C_9  and  O_27
REMARK    4  A    between atoms: C_15  and  O_17
REMARK    5  A    between atoms: O_17  and  C_18
REMARK    6  A    between atoms: C_18  and  C_19
REMARK                            x       y       z     vdW  Elec       q    Type
REMARK                         _______ _______ _______ _____ _____    ______ ____
ROOT
ATOM      1  O   UNL     1     -35.932  23.948   2.092  0.00  0.00    -0.420 OA
ATOM      2  O   UNL     1     -36.197  25.497   0.440  0.00  0.00    -0.243 OA
ATOM      3  C   UNL     1     -35.672  24.659   4.414  0.00  0.00    +0.070 A 
ATOM      4  C   UNL     1     -35.730  23.647   3.453  0.00  0.00    +0.151 A 
ATOM      5  C   UNL     1     -35.582  22.297   3.775  0.00  0.00    +0.047 C 
ATOM      6  C   UNL     1     -35.847  26.044   3.961  0.00  0.00    +0.156 A 
ATOM      7  C   UNL     1     -36.016  26.318   2.660  0.00  0.00    +0.164 A 
ATOM      8  C   UNL     1     -35.434  24.273   5.740  0.00  0.00    +0.009 C 
ATOM      9  C   UNL     1     -35.358  21.936   5.100  0.00  0.00    +0.133 C 
ATOM     10  C   UNL     1     -35.282  22.923   6.080  0.00  0.00    +0.037 C 
ATOM     11  C   UNL     1     -35.653  21.247   2.715  0.00  0.00    +0.037 C 
ATOM     12  C   UNL     1     -36.055  25.253   1.634  0.00  0.00    +0.363 A 
ENDROOT
BRANCH   7  14
ATOM     13  O   UNL     1     -33.932  28.115   1.844  0.00  0.00    -0.226 OA
ATOM     14  N   UNL     1     -36.170  27.594   2.189  0.00  0.00    -0.242 N 
ATOM     15  C   UNL     1     -35.124  28.407   1.813  0.00  0.00    +0.406 C 
ATOM     16  H   UNL     1     -37.084  27.953   2.115  0.00  0.00    +0.158 HD
BRANCH  15  17
ATOM     17  O   UNL     1     -35.613  29.612   1.391  0.00  0.00    -0.429 OA
BRANCH  17  18
ATOM     18  C   UNL     1     -35.844  30.585   2.416  0.00  0.00    +0.237 C 
BRANCH  18  19
ATOM     19  C   UNL     1     -34.927  31.753   2.199  0.00  0.00    +0.021 C 
ATOM     20  C   UNL     1     -35.365  32.856   1.466  0.00  0.00    -0.001 C 
ATOM     21  C   UNL     1     -33.637  31.734   2.729  0.00  0.00    -0.001 C 
ATOM     22  C   UNL     1     -34.512  33.941   1.263  0.00  0.00    -0.000 C 
ATOM     23  C   UNL     1     -32.785  32.819   2.527  0.00  0.00    -0.000 C 
ATOM     24  C   UNL     1     -33.221  33.923   1.793  0.00  0.00    -0.000 C 
ENDBRANCH  18  19
ENDBRANCH  17  18
ENDBRANCH  15  17
ENDBRANCH   7  14
BRANCH   6  25
ATOM     25  O   UNL     1     -35.808  26.995   4.958  0.00  0.00    -0.504 OA
ATOM     26  H   UNL     1     -35.879  27.904   4.741  0.00  0.00    +0.292 HD
ENDBRANCH   6  25
BRANCH   9  27
ATOM     27  O   UNL     1     -35.205  20.630   5.455  0.00  0.00    -0.506 OA
ATOM     28  H   UNL     1     -35.925  20.159   5.826  0.00  0.00    +0.292 HD
ENDBRANCH   9  27
TORSDOF 6
ENDMDL
MODEL 6
REMARK VINA RESULT:      -6.6      1.999      3.622
REMARK  Name = 54692968
REMARK  6 active torsions:
REMARK  status: ('A' for Active; 'I' for Inactive)
REMARK    1  A    between atoms: C_6  and  O_25
REMARK    2  A    between atoms: C_7  and  N_14
REMARK    3  A    between atoms: C_9  and  O_27
REMARK    4  A    between atoms: C_15  and  O_17
REMARK    5  A    between atoms: O_17  and  C_18
REMARK    6  A    between atoms: C_18  and  C_19
REMARK                            x       y       z     vdW  Elec       q    Type
REMARK                         _______ _______ _______ _____ _____    ______ ____
ROOT
ATOM      1  O   UNL     1     -34.509  24.988   2.341  0.00  0.00    -0.420 OA
ATOM      2  O   UNL     1     -33.756  27.029   1.660  0.00  0.00    -0.243 OA
ATOM      3  C   UNL     1     -34.825  24.522   4.718  0.00  0.00    +0.070 A 
ATOM      4  C   UNL     1     -34.860  24.109   3.385  0.00  0.00    +0.151 A 
ATOM      5  C   UNL     1     -35.226  22.815   3.010  0.00  0.00    +0.047 C 
ATOM      6  C   UNL     1     -34.429  25.909   4.994  0.00  0.00    +0.156 A 
ATOM      7  C   UNL     1     -34.076  26.728   3.993  0.00  0.00    +0.164 A 
ATOM      8  C   UNL     1     -35.156  23.574   5.695  0.00  0.00    +0.009 C 
ATOM      9  C   UNL     1     -35.563  21.893   3.995  0.00  0.00    +0.133 C 
ATOM     10  C   UNL     1     -35.525  22.272   5.335  0.00  0.00    +0.037 C 
ATOM     11  C   UNL     1     -35.252  22.416   1.571  0.00  0.00    +0.037 C 
ATOM     12  C   UNL     1     -34.089  26.289   2.580  0.00  0.00    +0.363 A 
ENDROOT
BRANCH   7  14
ATOM     13  O   UNL     1     -31.709  27.617   5.349  0.00  0.00    -0.226 OA
ATOM     14  N   UNL     1     -33.688  28.024   4.203  0.00  0.00    -0.242 N 
ATOM     15  C   UNL     1     -32.535  28.384   4.864  0.00  0.00    +0.406 C 
ATOM     16  H   UNL     1     -34.269  28.742   3.861  0.00  0.00    +0.158 HD
BRANCH  15  17
ATOM     17  O   UNL     1     -32.440  29.747   4.904  0.00  0.00    -0.429 OA
BRANCH  17  18
ATOM     18  C   UNL     1     -31.508  30.336   3.990  0.00  0.00    +0.237 C 
BRANCH  18  19
ATOM     19  C   UNL     1     -32.126  31.559   3.380  0.00  0.00    +0.021 C 
ATOM     20  C   UNL     1     -33.401  31.491   2.818  0.00  0.00    -0.001 C 
ATOM     21  C   UNL     1     -31.426  32.766   3.375  0.00  0.00    -0.001 C 
ATOM     22  C   UNL     1     -33.975  32.628   2.250  0.00  0.00    -0.000 C 
ATOM     23  C   UNL     1     -32.000  33.903   2.809  0.00  0.00    -0.000 C 
ATOM     24  C   UNL     1     -33.275  33.835   2.245  0.00  0.00    -0.000 C 
ENDBRANCH  18  19
ENDBRANCH  17  18
ENDBRANCH  15  17
ENDBRANCH   7  14
BRANCH   6  25
ATOM     25  O   UNL     1     -34.441  26.267   6.325  0.00  0.00    -0.504 OA
ATOM     26  H   UNL     1     -34.651  25.629   6.979  0.00  0.00    +0.292 HD
ENDBRANCH   6  25
BRANCH   9  27
ATOM     27  O   UNL     1     -35.923  20.620   3.672  0.00  0.00    -0.506 OA
ATOM     28  H   UNL     1     -35.923  20.347   2.776  0.00  0.00    +0.292 HD
ENDBRANCH   9  27
TORSDOF 6
ENDMDL
MODEL 7
REMARK VINA RESULT:      -6.5      1.967      2.542
REMARK  Name = 54692968
REMARK  6 active torsions:
REMARK  status: ('A' for Active; 'I' for Inactive)
REMARK    1  A    between atoms: C_6  and  O_25
REMARK    2  A    between atoms: C_7  and  N_14
REMARK    3  A    between atoms: C_9  and  O_27
REMARK    4  A    between atoms: C_15  and  O_17
REMARK    5  A    between atoms: O_17  and  C_18
REMARK    6  A    between atoms: C_18  and  C_19
REMARK                            x       y       z     vdW  Elec       q    Type
REMARK                         _______ _______ _______ _____ _____    ______ ____
ROOT
ATOM      1  O   UNL     1     -34.975  23.957   3.764  0.00  0.00    -0.420 OA
ATOM      2  O   UNL     1     -33.554  25.509   4.643  0.00  0.00    -0.243 OA
ATOM      3  C   UNL     1     -37.073  24.655   2.727  0.00  0.00    +0.070 A 
ATOM      4  C   UNL     1     -36.191  23.648   3.124  0.00  0.00    +0.151 A 
ATOM      5  C   UNL     1     -36.462  22.293   2.926  0.00  0.00    +0.047 C 
ATOM      6  C   UNL     1     -36.681  26.047   2.982  0.00  0.00    +0.156 A 
ATOM      7  C   UNL     1     -35.531  26.326   3.611  0.00  0.00    +0.164 A 
ATOM      8  C   UNL     1     -38.276  24.259   2.129  0.00  0.00    +0.009 C 
ATOM      9  C   UNL     1     -37.657  21.922   2.319  0.00  0.00    +0.133 C 
ATOM     10  C   UNL     1     -38.563  22.903   1.924  0.00  0.00    +0.037 C 
ATOM     11  C   UNL     1     -35.488  21.248   3.364  0.00  0.00    +0.037 C 
ATOM     12  C   UNL     1     -34.603  25.262   4.055  0.00  0.00    +0.363 A 
ENDROOT
BRANCH   7  14
ATOM     13  O   UNL     1     -34.047  28.067   1.878  0.00  0.00    -0.226 OA
ATOM     14  N   UNL     1     -35.130  27.607   3.882  0.00  0.00    -0.242 N 
ATOM     15  C   UNL     1     -34.417  28.392   3.002  0.00  0.00    +0.406 C 
ATOM     16  H   UNL     1     -35.364  27.990   4.758  0.00  0.00    +0.158 HD
BRANCH  15  17
ATOM     17  O   UNL     1     -34.176  29.610   3.573  0.00  0.00    -0.429 OA
BRANCH  17  18
ATOM     18  C   UNL     1     -32.881  30.170   3.326  0.00  0.00    +0.237 C 
BRANCH  18  19
ATOM     19  C   UNL     1     -31.948  29.749   4.423  0.00  0.00    +0.021 C 
ATOM     20  C   UNL     1     -32.150  30.206   5.725  0.00  0.00    -0.001 C 
ATOM     21  C   UNL     1     -30.877  28.901   4.140  0.00  0.00    -0.001 C 
ATOM     22  C   UNL     1     -31.282  29.815   6.745  0.00  0.00    -0.000 C 
ATOM     23  C   UNL     1     -30.009  28.509   5.159  0.00  0.00    -0.000 C 
ATOM     24  C   UNL     1     -30.211  28.967   6.462  0.00  0.00    -0.000 C 
ENDBRANCH  18  19
ENDBRANCH  17  18
ENDBRANCH  15  17
ENDBRANCH   7  14
BRANCH   6  25
ATOM     25  O   UNL     1     -37.578  26.997   2.543  0.00  0.00    -0.504 OA
ATOM     26  H   UNL     1     -37.862  26.995   1.650  0.00  0.00    +0.292 HD
ENDBRANCH   6  25
BRANCH   9  27
ATOM     27  O   UNL     1     -37.961  20.611   2.110  0.00  0.00    -0.506 OA
ATOM     28  H   UNL     1     -37.279  19.968   2.104  0.00  0.00    +0.292 HD
ENDBRANCH   9  27
TORSDOF 6
ENDMDL
MODEL 8
REMARK VINA RESULT:      -6.5      6.399      8.844
REMARK  Name = 54692968
REMARK  6 active torsions:
REMARK  status: ('A' for Active; 'I' for Inactive)
REMARK    1  A    between atoms: C_6  and  O_25
REMARK    2  A    between atoms: C_7  and  N_14
REMARK    3  A    between atoms: C_9  and  O_27
REMARK    4  A    between atoms: C_15  and  O_17
REMARK    5  A    between atoms: O_17  and  C_18
REMARK    6  A    between atoms: C_18  and  C_19
REMARK                            x       y       z     vdW  Elec       q    Type
REMARK                         _______ _______ _______ _____ _____    ______ ____
ROOT
ATOM      1  O   UNL     1     -41.639  24.257   1.179  0.00  0.00    -0.420 OA
ATOM      2  O   UNL     1     -39.571  23.419   1.650  0.00  0.00    -0.243 OA
ATOM      3  C   UNL     1     -42.504  26.171   2.426  0.00  0.00    +0.070 A 
ATOM      4  C   UNL     1     -42.664  25.185   1.450  0.00  0.00    +0.151 A 
ATOM      5  C   UNL     1     -43.836  25.051   0.704  0.00  0.00    +0.047 C 
ATOM      6  C   UNL     1     -41.226  26.220   3.146  0.00  0.00    +0.156 A 
ATOM      7  C   UNL     1     -40.267  25.317   2.894  0.00  0.00    +0.164 A 
ATOM      8  C   UNL     1     -43.586  27.031   2.655  0.00  0.00    +0.009 C 
ATOM      9  C   UNL     1     -44.894  25.923   0.940  0.00  0.00    +0.133 C 
ATOM     10  C   UNL     1     -44.769  26.909   1.916  0.00  0.00    +0.037 C 
ATOM     11  C   UNL     1     -43.963  23.983  -0.332  0.00  0.00    +0.037 C 
ATOM     12  C   UNL     1     -40.439  24.256   1.877  0.00  0.00    +0.363 A 
ENDROOT
BRANCH   7  14
ATOM     13  O   UNL     1     -37.894  26.742   2.137  0.00  0.00    -0.226 OA
ATOM     14  N   UNL     1     -39.065  25.316   3.548  0.00  0.00    -0.242 N 
ATOM     15  C   UNL     1     -37.960  26.025   3.130  0.00  0.00    +0.406 C 
ATOM     16  H   UNL     1     -38.984  24.775   4.367  0.00  0.00    +0.158 HD
BRANCH  15  17
ATOM     17  O   UNL     1     -36.927  25.811   3.999  0.00  0.00    -0.429 OA
BRANCH  17  18
ATOM     18  C   UNL     1     -35.777  25.155   3.452  0.00  0.00    +0.237 C 
BRANCH  18  19
ATOM     19  C   UNL     1     -35.574  23.849   4.163  0.00  0.00    +0.021 C 
ATOM     20  C   UNL     1     -35.414  23.828   5.549  0.00  0.00    -0.001 C 
ATOM     21  C   UNL     1     -35.542  22.658   3.439  0.00  0.00    -0.001 C 
ATOM     22  C   UNL     1     -35.224  22.614   6.210  0.00  0.00    -0.000 C 
ATOM     23  C   UNL     1     -35.353  21.445   4.100  0.00  0.00    -0.000 C 
ATOM     24  C   UNL     1     -35.193  21.422   5.486  0.00  0.00    -0.000 C 
ENDBRANCH  18  19
ENDBRANCH  17  18
ENDBRANCH  15  17
ENDBRANCH   7  14
BRANCH   6  25
ATOM     25  O   UNL     1     -41.117  27.231   4.076  0.00  0.00    -0.504 OA
ATOM     26  H   UNL     1     -41.526  28.060   3.918  0.00  0.00    +0.292 HD
ENDBRANCH   6  25
BRANCH   9  27
ATOM     27  O   UNL     1     -46.055  25.825   0.235  0.00  0.00    -0.506 OA
ATOM     28  H   UNL     1     -46.429  26.589  -0.159  0.00  0.00    +0.292 HD
ENDBRANCH   9  27
TORSDOF 6
ENDMDL
MODEL 9
REMARK VINA RESULT:      -6.4      5.590     11.356
REMARK  Name = 54692968
REMARK  6 active torsions:
REMARK  status: ('A' for Active; 'I' for Inactive)
REMARK    1  A    between atoms: C_6  and  O_25
REMARK    2  A    between atoms: C_7  and  N_14
REMARK    3  A    between atoms: C_9  and  O_27
REMARK    4  A    between atoms: C_15  and  O_17
REMARK    5  A    between atoms: O_17  and  C_18
REMARK    6  A    between atoms: C_18  and  C_19
REMARK                            x       y       z     vdW  Elec       q    Type
REMARK                         _______ _______ _______ _____ _____    ______ ____
ROOT
ATOM      1  O   UNL     1     -38.048  22.839   2.221  0.00  0.00    -0.420 OA
ATOM      2  O   UNL     1     -38.804  21.225   0.798  0.00  0.00    -0.243 OA
ATOM      3  C   UNL     1     -36.089  22.427   3.621  0.00  0.00    +0.070 A 
ATOM      4  C   UNL     1     -37.133  23.257   3.208  0.00  0.00    +0.151 A 
ATOM      5  C   UNL     1     -37.340  24.528   3.748  0.00  0.00    +0.047 C 
ATOM      6  C   UNL     1     -35.965  21.113   2.979  0.00  0.00    +0.156 A 
ATOM      7  C   UNL     1     -36.856  20.719   2.057  0.00  0.00    +0.164 A 
ATOM      8  C   UNL     1     -35.246  22.908   4.631  0.00  0.00    +0.009 C 
ATOM      9  C   UNL     1     -36.485  24.990   4.742  0.00  0.00    +0.133 C 
ATOM     10  C   UNL     1     -35.441  24.180   5.184  0.00  0.00    +0.037 C 
ATOM     11  C   UNL     1     -38.470  25.383   3.274  0.00  0.00    +0.037 C 
ATOM     12  C   UNL     1     -37.978  21.584   1.632  0.00  0.00    +0.363 A 
ENDROOT
BRANCH   7  14
ATOM     13  O   UNL     1     -35.467  20.093  -0.376  0.00  0.00    -0.226 OA
ATOM     14  N   UNL     1     -36.788  19.498   1.441  0.00  0.00    -0.242 N 
ATOM     15  C   UNL     1     -36.102  19.264   0.270  0.00  0.00    +0.406 C 
ATOM     16  H   UNL     1     -37.259  18.742   1.860  0.00  0.00    +0.158 HD
BRANCH  15  17
ATOM     17  O   UNL     1     -36.231  17.949  -0.078  0.00  0.00    -0.429 OA
BRANCH  17  18
ATOM     18  C   UNL     1     -36.762  17.697  -1.384  0.00  0.00    +0.237 C 
BRANCH  18  19
ATOM     19  C   UNL     1     -38.066  16.968  -1.251  0.00  0.00    +0.021 C 
ATOM     20  C   UNL     1     -38.131  15.781  -0.521  0.00  0.00    -0.001 C 
ATOM     21  C   UNL     1     -39.215  17.477  -1.857  0.00  0.00    -0.001 C 
ATOM     22  C   UNL     1     -39.343  15.102  -0.398  0.00  0.00    -0.000 C 
ATOM     23  C   UNL     1     -40.427  16.799  -1.734  0.00  0.00    -0.000 C 
ATOM     24  C   UNL     1     -40.492  15.612  -1.004  0.00  0.00    -0.000 C 
ENDBRANCH  18  19
ENDBRANCH  17  18
ENDBRANCH  15  17
ENDBRANCH   7  14
BRANCH   6  25
ATOM     25  O   UNL     1     -34.900  20.351   3.407  0.00  0.00    -0.504 OA
ATOM     26  H   UNL     1     -34.928  19.418   3.324  0.00  0.00    +0.292 HD
ENDBRANCH   6  25
BRANCH   9  27
ATOM     27  O   UNL     1     -36.653  26.222   5.297  0.00  0.00    -0.506 OA
ATOM     28  H   UNL     1     -35.928  26.813   5.353  0.00  0.00    +0.292 HD
ENDBRANCH   9  27
TORSDOF 6
ENDMDL
