MODEL 1
REMARK VINA RESULT:      -5.6      0.000      0.000
REMARK  Name = 5873213
REMARK  5 active torsions:
REMARK  status: ('A' for Active; 'I' for Inactive)
REMARK    1  A    between atoms: N_1  and  C_2
REMARK    2  A    between atoms: N_1  and  N_3
REMARK    3  A    between atoms: C_2  and  C_11
REMARK    4  A    between atoms: N_3  and  C_6
REMARK    5  A    between atoms: C_12  and  N_19
REMARK                            x       y       z     vdW  Elec       q    Type
REMARK                         _______ _______ _______ _____ _____    ______ ____
ROOT
ATOM      1  C   UNL     1     -34.412  25.922   5.863  0.00  0.00    +0.142 C 
ENDROOT
BRANCH   1   2
ATOM      2  C   UNL     1     -34.784  24.741   5.101  0.00  0.00    -0.003 C 
ATOM      3  C   UNL     1     -35.496  22.475   3.638  0.00  0.00    +0.143 C 
ATOM      4  C   UNL     1     -35.198  23.586   5.763  0.00  0.00    -0.001 C 
ATOM      5  C   UNL     1     -34.727  24.764   3.707  0.00  0.00    -0.001 C 
ATOM      6  C   UNL     1     -35.553  22.452   5.032  0.00  0.00    +0.024 C 
ATOM      7  C   UNL     1     -35.083  23.631   2.976  0.00  0.00    +0.024 C 
BRANCH   3  10
ATOM      8  O   UNL     1     -36.860  21.369   2.142  0.00  0.00    -0.126 OA
ATOM      9  O   UNL     1     -35.161  20.282   3.009  0.00  0.00    -0.126 OA
ATOM     10  N   UNL     1     -35.856  21.320   2.895  0.00  0.00    +0.058 N 
ENDBRANCH   3  10
ENDBRANCH   1   2
BRANCH   1  11
ATOM     11  N   UNL     1     -33.447  26.720   5.501  0.00  0.00    -0.092 NA
BRANCH  11  12
ATOM     12  N   UNL     1     -32.735  27.185   6.603  0.00  0.00    -0.145 NA
BRANCH  12  15
ATOM     13  N   UNL     1     -30.676  28.403   6.740  0.00  0.00    -0.369 N 
ATOM     14  N   UNL     1     -32.405  29.204   5.479  0.00  0.00    -0.369 N 
ATOM     15  C   UNL     1     -31.965  28.198   6.304  0.00  0.00    +0.207 C 
ATOM     16  H   UNL     1     -30.248  27.749   7.338  0.00  0.00    +0.159 HD
ATOM     17  H   UNL     1     -30.181  29.205   6.453  0.00  0.00    +0.159 HD
ATOM     18  H   UNL     1     -33.315  29.169   5.102  0.00  0.00    +0.159 HD
ATOM     19  H   UNL     1     -31.812  29.960   5.264  0.00  0.00    +0.159 HD
ENDBRANCH  12  15
ENDBRANCH  11  12
ENDBRANCH   1  11
TORSDOF 5
ENDMDL
MODEL 2
REMARK VINA RESULT:      -5.6      0.113      1.502
REMARK  Name = 5873213
REMARK  5 active torsions:
REMARK  status: ('A' for Active; 'I' for Inactive)
REMARK    1  A    between atoms: N_1  and  C_2
REMARK    2  A    between atoms: N_1  and  N_3
REMARK    3  A    between atoms: C_2  and  C_11
REMARK    4  A    between atoms: N_3  and  C_6
REMARK    5  A    between atoms: C_12  and  N_19
REMARK                            x       y       z     vdW  Elec       q    Type
REMARK                         _______ _______ _______ _____ _____    ______ ____
ROOT
ATOM      1  C   UNL     1     -34.322  25.895   5.929  0.00  0.00    +0.142 C 
ENDROOT
BRANCH   1   2
ATOM      2  C   UNL     1     -34.721  24.728   5.159  0.00  0.00    -0.003 C 
ATOM      3  C   UNL     1     -35.489  22.489   3.682  0.00  0.00    +0.143 C 
ATOM      4  C   UNL     1     -34.649  24.753   3.766  0.00  0.00    -0.001 C 
ATOM      5  C   UNL     1     -35.176  23.584   5.813  0.00  0.00    -0.001 C 
ATOM      6  C   UNL     1     -35.033  23.634   3.027  0.00  0.00    +0.024 C 
ATOM      7  C   UNL     1     -35.561  22.465   5.074  0.00  0.00    +0.024 C 
BRANCH   3  10
ATOM      8  O   UNL     1     -36.918  21.417   2.223  0.00  0.00    -0.126 OA
ATOM      9  O   UNL     1     -35.182  20.312   2.989  0.00  0.00    -0.126 OA
ATOM     10  N   UNL     1     -35.882  21.352   2.929  0.00  0.00    +0.058 N 
ENDBRANCH   3  10
ENDBRANCH   1   2
BRANCH   1  11
ATOM     11  N   UNL     1     -33.380  26.708   5.541  0.00  0.00    -0.092 NA
BRANCH  11  12
ATOM     12  N   UNL     1     -32.595  27.121   6.614  0.00  0.00    -0.145 NA
BRANCH  12  15
ATOM     13  N   UNL     1     -32.323  29.308   5.674  0.00  0.00    -0.369 N 
ATOM     14  N   UNL     1     -30.559  28.261   6.681  0.00  0.00    -0.369 N 
ATOM     15  C   UNL     1     -31.885  28.180   6.329  0.00  0.00    +0.207 C 
ATOM     16  H   UNL     1     -33.257  29.370   5.371  0.00  0.00    +0.159 HD
ATOM     17  H   UNL     1     -31.701  30.055   5.508  0.00  0.00    +0.159 HD
ATOM     18  H   UNL     1     -30.130  27.512   7.156  0.00  0.00    +0.159 HD
ATOM     19  H   UNL     1     -30.038  29.066   6.457  0.00  0.00    +0.159 HD
ENDBRANCH  12  15
ENDBRANCH  11  12
ENDBRANCH   1  11
TORSDOF 5
ENDMDL
MODEL 3
REMARK VINA RESULT:      -5.5      1.450      1.898
REMARK  Name = 5873213
REMARK  5 active torsions:
REMARK  status: ('A' for Active; 'I' for Inactive)
REMARK    1  A    between atoms: N_1  and  C_2
REMARK    2  A    between atoms: N_1  and  N_3
REMARK    3  A    between atoms: C_2  and  C_11
REMARK    4  A    between atoms: N_3  and  C_6
REMARK    5  A    between atoms: C_12  and  N_19
REMARK                            x       y       z     vdW  Elec       q    Type
REMARK                         _______ _______ _______ _____ _____    ______ ____
ROOT
ATOM      1  C   UNL     1     -33.768  26.262   6.167  0.00  0.00    +0.142 C 
ENDROOT
BRANCH   1   2
ATOM      2  C   UNL     1     -34.694  25.450   5.395  0.00  0.00    -0.003 C 
ATOM      3  C   UNL     1     -36.473  23.891   3.915  0.00  0.00    +0.143 C 
ATOM      4  C   UNL     1     -36.012  25.872   5.218  0.00  0.00    -0.001 C 
ATOM      5  C   UNL     1     -34.266  24.248   4.832  0.00  0.00    -0.001 C 
ATOM      6  C   UNL     1     -36.902  25.093   4.478  0.00  0.00    +0.024 C 
ATOM      7  C   UNL     1     -35.155  23.468   4.092  0.00  0.00    +0.024 C 
BRANCH   3  10
ATOM      8  O   UNL     1     -36.958  22.050   2.612  0.00  0.00    -0.126 OA
ATOM      9  O   UNL     1     -38.576  23.462   3.073  0.00  0.00    -0.126 OA
ATOM     10  N   UNL     1     -37.379  23.097   3.164  0.00  0.00    +0.058 N 
ENDBRANCH   3  10
ENDBRANCH   1   2
BRANCH   1  11
ATOM     11  N   UNL     1     -33.091  27.247   5.649  0.00  0.00    -0.092 NA
BRANCH  11  12
ATOM     12  N   UNL     1     -31.934  27.504   6.378  0.00  0.00    -0.145 NA
BRANCH  12  15
ATOM     13  N   UNL     1     -30.874  29.380   7.429  0.00  0.00    -0.369 N 
ATOM     14  N   UNL     1     -32.310  29.700   5.680  0.00  0.00    -0.369 N 
ATOM     15  C   UNL     1     -31.704  28.785   6.506  0.00  0.00    +0.207 C 
ATOM     16  H   UNL     1     -30.383  28.827   8.077  0.00  0.00    +0.159 HD
ATOM     17  H   UNL     1     -30.772  30.360   7.440  0.00  0.00    +0.159 HD
ATOM     18  H   UNL     1     -32.928  29.395   4.977  0.00  0.00    +0.159 HD
ATOM     19  H   UNL     1     -32.126  30.661   5.791  0.00  0.00    +0.159 HD
ENDBRANCH  12  15
ENDBRANCH  11  12
ENDBRANCH   1  11
TORSDOF 5
ENDMDL
MODEL 4
REMARK VINA RESULT:      -5.3      4.084      6.114
REMARK  Name = 5873213
REMARK  5 active torsions:
REMARK  status: ('A' for Active; 'I' for Inactive)
REMARK    1  A    between atoms: N_1  and  C_2
REMARK    2  A    between atoms: N_1  and  N_3
REMARK    3  A    between atoms: C_2  and  C_11
REMARK    4  A    between atoms: N_3  and  C_6
REMARK    5  A    between atoms: C_12  and  N_19
REMARK                            x       y       z     vdW  Elec       q    Type
REMARK                         _______ _______ _______ _____ _____    ______ ____
ROOT
ATOM      1  C   UNL     1     -35.685  23.328   4.006  0.00  0.00    +0.142 C 
ENDROOT
BRANCH   1   2
ATOM      2  C   UNL     1     -34.882  24.498   4.320  0.00  0.00    -0.003 C 
ATOM      3  C   UNL     1     -33.343  26.746   4.922  0.00  0.00    +0.143 C 
ATOM      4  C   UNL     1     -34.849  24.993   5.624  0.00  0.00    -0.001 C 
ATOM      5  C   UNL     1     -34.144  25.128   3.318  0.00  0.00    -0.001 C 
ATOM      6  C   UNL     1     -34.080  26.117   5.926  0.00  0.00    +0.024 C 
ATOM      7  C   UNL     1     -33.375  26.252   3.619  0.00  0.00    +0.024 C 
BRANCH   3  10
ATOM      8  O   UNL     1     -32.935  29.014   4.809  0.00  0.00    -0.126 OA
ATOM      9  O   UNL     1     -31.519  27.751   5.914  0.00  0.00    -0.126 OA
ATOM     10  N   UNL     1     -32.562  27.891   5.229  0.00  0.00    +0.058 N 
ENDBRANCH   3  10
ENDBRANCH   1   2
BRANCH   1  11
ATOM     11  N   UNL     1     -36.980  23.303   4.145  0.00  0.00    -0.092 NA
BRANCH  11  12
ATOM     12  N   UNL     1     -37.617  23.912   3.067  0.00  0.00    -0.145 NA
BRANCH  12  15
ATOM     13  N   UNL     1     -37.956  26.232   3.565  0.00  0.00    -0.369 N 
ATOM     14  N   UNL     1     -39.686  24.750   3.750  0.00  0.00    -0.369 N 
ATOM     15  C   UNL     1     -38.359  24.922   3.437  0.00  0.00    +0.207 C 
ATOM     16  H   UNL     1     -37.025  26.482   3.368  0.00  0.00    +0.159 HD
ATOM     17  H   UNL     1     -38.600  26.920   3.853  0.00  0.00    +0.159 HD
ATOM     18  H   UNL     1     -40.092  23.854   3.696  0.00  0.00    +0.159 HD
ATOM     19  H   UNL     1     -40.230  25.522   4.028  0.00  0.00    +0.159 HD
ENDBRANCH  12  15
ENDBRANCH  11  12
ENDBRANCH   1  11
TORSDOF 5
ENDMDL
MODEL 5
REMARK VINA RESULT:      -5.3      3.965      6.190
REMARK  Name = 5873213
REMARK  5 active torsions:
REMARK  status: ('A' for Active; 'I' for Inactive)
REMARK    1  A    between atoms: N_1  and  C_2
REMARK    2  A    between atoms: N_1  and  N_3
REMARK    3  A    between atoms: C_2  and  C_11
REMARK    4  A    between atoms: N_3  and  C_6
REMARK    5  A    between atoms: C_12  and  N_19
REMARK                            x       y       z     vdW  Elec       q    Type
REMARK                         _______ _______ _______ _____ _____    ______ ____
ROOT
ATOM      1  C   UNL     1     -35.934  23.105   3.688  0.00  0.00    +0.142 C 
ENDROOT
BRANCH   1   2
ATOM      2  C   UNL     1     -35.138  24.245   4.111  0.00  0.00    -0.003 C 
ATOM      3  C   UNL     1     -33.609  26.433   4.924  0.00  0.00    +0.143 C 
ATOM      4  C   UNL     1     -34.290  24.879   3.203  0.00  0.00    -0.001 C 
ATOM      5  C   UNL     1     -35.222  24.706   5.425  0.00  0.00    -0.001 C 
ATOM      6  C   UNL     1     -33.524  25.973   3.609  0.00  0.00    +0.024 C 
ATOM      7  C   UNL     1     -34.457  25.799   5.831  0.00  0.00    +0.024 C 
BRANCH   3  10
ATOM      8  O   UNL     1     -32.106  27.435   6.358  0.00  0.00    -0.126 OA
ATOM      9  O   UNL     1     -32.881  28.606   4.669  0.00  0.00    -0.126 OA
ATOM     10  N   UNL     1     -32.829  27.545   5.337  0.00  0.00    +0.058 N 
ENDBRANCH   3  10
ENDBRANCH   1   2
BRANCH   1  11
ATOM     11  N   UNL     1     -37.237  23.108   3.705  0.00  0.00    -0.092 NA
BRANCH  11  12
ATOM     12  N   UNL     1     -37.752  24.000   2.769  0.00  0.00    -0.145 NA
BRANCH  12  15
ATOM     13  N   UNL     1     -37.976  26.266   3.516  0.00  0.00    -0.369 N 
ATOM     14  N   UNL     1     -39.690  24.783   3.810  0.00  0.00    -0.369 N 
ATOM     15  C   UNL     1     -38.417  24.976   3.329  0.00  0.00    +0.207 C 
ATOM     16  H   UNL     1     -37.078  26.528   3.213  0.00  0.00    +0.159 HD
ATOM     17  H   UNL     1     -38.561  26.928   3.953  0.00  0.00    +0.159 HD
ATOM     18  H   UNL     1     -40.115  23.898   3.734  0.00  0.00    +0.159 HD
ATOM     19  H   UNL     1     -40.175  25.529   4.230  0.00  0.00    +0.159 HD
ENDBRANCH  12  15
ENDBRANCH  11  12
ENDBRANCH   1  11
TORSDOF 5
ENDMDL
MODEL 6
REMARK VINA RESULT:      -5.2      4.075      6.534
REMARK  Name = 5873213
REMARK  5 active torsions:
REMARK  status: ('A' for Active; 'I' for Inactive)
REMARK    1  A    between atoms: N_1  and  C_2
REMARK    2  A    between atoms: N_1  and  N_3
REMARK    3  A    between atoms: C_2  and  C_11
REMARK    4  A    between atoms: N_3  and  C_6
REMARK    5  A    between atoms: C_12  and  N_19
REMARK                            x       y       z     vdW  Elec       q    Type
REMARK                         _______ _______ _______ _____ _____    ______ ____
ROOT
ATOM      1  C   UNL     1     -35.887  25.426   4.042  0.00  0.00    +0.142 C 
ENDROOT
BRANCH   1   2
ATOM      2  C   UNL     1     -34.762  26.152   4.607  0.00  0.00    -0.003 C 
ATOM      3  C   UNL     1     -32.603  27.547   5.693  0.00  0.00    +0.143 C 
ATOM      4  C   UNL     1     -34.399  25.950   5.939  0.00  0.00    -0.001 C 
ATOM      5  C   UNL     1     -34.045  27.050   3.818  0.00  0.00    -0.001 C 
ATOM      6  C   UNL     1     -33.321  26.648   6.482  0.00  0.00    +0.024 C 
ATOM      7  C   UNL     1     -32.966  27.749   4.361  0.00  0.00    +0.024 C 
BRANCH   3  10
ATOM      8  O   UNL     1     -30.339  27.876   5.987  0.00  0.00    -0.126 OA
ATOM      9  O   UNL     1     -31.734  29.252   6.979  0.00  0.00    -0.126 OA
ATOM     10  N   UNL     1     -31.507  28.258   6.246  0.00  0.00    +0.058 N 
ENDBRANCH   3  10
ENDBRANCH   1   2
BRANCH   1  11
ATOM     11  N   UNL     1     -36.610  24.592   4.736  0.00  0.00    -0.092 NA
BRANCH  11  12
ATOM     12  N   UNL     1     -36.815  23.402   4.043  0.00  0.00    -0.145 NA
BRANCH  12  15
ATOM     13  N   UNL     1     -35.525  21.391   3.858  0.00  0.00    -0.369 N 
ATOM     14  N   UNL     1     -35.965  22.290   5.912  0.00  0.00    -0.369 N 
ATOM     15  C   UNL     1     -36.135  22.409   4.554  0.00  0.00    +0.207 C 
ATOM     16  H   UNL     1     -35.576  21.366   2.875  0.00  0.00    +0.159 HD
ATOM     17  H   UNL     1     -35.035  20.687   4.343  0.00  0.00    +0.159 HD
ATOM     18  H   UNL     1     -36.358  22.961   6.517  0.00  0.00    +0.159 HD
ATOM     19  H   UNL     1     -35.452  21.535   6.279  0.00  0.00    +0.159 HD
ENDBRANCH  12  15
ENDBRANCH  11  12
ENDBRANCH   1  11
TORSDOF 5
ENDMDL
MODEL 7
REMARK VINA RESULT:      -5.2      3.476      6.823
REMARK  Name = 5873213
REMARK  5 active torsions:
REMARK  status: ('A' for Active; 'I' for Inactive)
REMARK    1  A    between atoms: N_1  and  C_2
REMARK    2  A    between atoms: N_1  and  N_3
REMARK    3  A    between atoms: C_2  and  C_11
REMARK    4  A    between atoms: N_3  and  C_6
REMARK    5  A    between atoms: C_12  and  N_19
REMARK                            x       y       z     vdW  Elec       q    Type
REMARK                         _______ _______ _______ _____ _____    ______ ____
ROOT
ATOM      1  C   UNL     1     -35.777  22.950   4.296  0.00  0.00    +0.142 C 
ENDROOT
BRANCH   1   2
ATOM      2  C   UNL     1     -35.010  24.178   4.432  0.00  0.00    -0.003 C 
ATOM      3  C   UNL     1     -33.539  26.534   4.694  0.00  0.00    +0.143 C 
ATOM      4  C   UNL     1     -34.976  24.847   5.656  0.00  0.00    -0.001 C 
ATOM      5  C   UNL     1     -34.307  24.687   3.340  0.00  0.00    -0.001 C 
ATOM      6  C   UNL     1     -34.242  26.025   5.787  0.00  0.00    +0.024 C 
ATOM      7  C   UNL     1     -33.573  25.865   3.471  0.00  0.00    +0.024 C 
BRANCH   3  10
ATOM      8  O   UNL     1     -33.249  28.793   4.329  0.00  0.00    -0.126 OA
ATOM      9  O   UNL     1     -31.699  27.706   5.442  0.00  0.00    -0.126 OA
ATOM     10  N   UNL     1     -32.793  27.735   4.828  0.00  0.00    +0.058 N 
ENDBRANCH   3  10
ENDBRANCH   1   2
BRANCH   1  11
ATOM     11  N   UNL     1     -36.915  22.897   3.664  0.00  0.00    -0.092 NA
BRANCH  11  12
ATOM     12  N   UNL     1     -36.769  22.314   2.408  0.00  0.00    -0.145 NA
BRANCH  12  15
ATOM     13  N   UNL     1     -38.817  21.099   2.133  0.00  0.00    -0.369 N 
ATOM     14  N   UNL     1     -36.833  19.982   2.327  0.00  0.00    -0.369 N 
ATOM     15  C   UNL     1     -37.455  21.207   2.293  0.00  0.00    +0.207 C 
ATOM     16  H   UNL     1     -39.374  21.910   2.093  0.00  0.00    +0.159 HD
ATOM     17  H   UNL     1     -39.236  20.211   2.057  0.00  0.00    +0.159 HD
ATOM     18  H   UNL     1     -35.856  19.929   2.439  0.00  0.00    +0.159 HD
ATOM     19  H   UNL     1     -37.365  19.158   2.240  0.00  0.00    +0.159 HD
ENDBRANCH  12  15
ENDBRANCH  11  12
ENDBRANCH   1  11
TORSDOF 5
ENDMDL
MODEL 8
REMARK VINA RESULT:      -5.1      3.489      7.009
REMARK  Name = 5873213
REMARK  5 active torsions:
REMARK  status: ('A' for Active; 'I' for Inactive)
REMARK    1  A    between atoms: N_1  and  C_2
REMARK    2  A    between atoms: N_1  and  N_3
REMARK    3  A    between atoms: C_2  and  C_11
REMARK    4  A    between atoms: N_3  and  C_6
REMARK    5  A    between atoms: C_12  and  N_19
REMARK                            x       y       z     vdW  Elec       q    Type
REMARK                         _______ _______ _______ _____ _____    ______ ____
ROOT
ATOM      1  C   UNL     1     -36.174  22.986   3.957  0.00  0.00    +0.142 C 
ENDROOT
BRANCH   1   2
ATOM      2  C   UNL     1     -35.335  24.132   4.268  0.00  0.00    -0.003 C 
ATOM      3  C   UNL     1     -33.723  26.329   4.865  0.00  0.00    +0.143 C 
ATOM      4  C   UNL     1     -34.491  24.663   3.293  0.00  0.00    -0.001 C 
ATOM      5  C   UNL     1     -35.373  24.699   5.541  0.00  0.00    -0.001 C 
ATOM      6  C   UNL     1     -33.684  25.762   3.591  0.00  0.00    +0.024 C 
ATOM      7  C   UNL     1     -34.567  25.798   5.840  0.00  0.00    +0.024 C 
BRANCH   3  10
ATOM      8  O   UNL     1     -32.075  27.356   6.110  0.00  0.00    -0.126 OA
ATOM      9  O   UNL     1     -33.020  28.493   4.487  0.00  0.00    -0.126 OA
ATOM     10  N   UNL     1     -32.900  27.446   5.169  0.00  0.00    +0.058 N 
ENDBRANCH   3  10
ENDBRANCH   1   2
BRANCH   1  11
ATOM     11  N   UNL     1     -37.338  23.099   3.382  0.00  0.00    -0.092 NA
BRANCH  11  12
ATOM     12  N   UNL     1     -37.334  22.520   2.116  0.00  0.00    -0.145 NA
BRANCH  12  15
ATOM     13  N   UNL     1     -39.251  21.081   2.133  0.00  0.00    -0.369 N 
ATOM     14  N   UNL     1     -37.146  20.193   2.076  0.00  0.00    -0.369 N 
ATOM     15  C   UNL     1     -37.900  21.342   2.109  0.00  0.00    +0.207 C 
ATOM     16  H   UNL     1     -39.895  21.825   2.157  0.00  0.00    +0.159 HD
ATOM     17  H   UNL     1     -39.574  20.150   2.126  0.00  0.00    +0.159 HD
ATOM     18  H   UNL     1     -36.163  20.251   2.057  0.00  0.00    +0.159 HD
ATOM     19  H   UNL     1     -37.589  19.314   2.072  0.00  0.00    +0.159 HD
ENDBRANCH  12  15
ENDBRANCH  11  12
ENDBRANCH   1  11
TORSDOF 5
ENDMDL
MODEL 9
REMARK VINA RESULT:      -5.0      1.765      2.431
REMARK  Name = 5873213
REMARK  5 active torsions:
REMARK  status: ('A' for Active; 'I' for Inactive)
REMARK    1  A    between atoms: N_1  and  C_2
REMARK    2  A    between atoms: N_1  and  N_3
REMARK    3  A    between atoms: C_2  and  C_11
REMARK    4  A    between atoms: N_3  and  C_6
REMARK    5  A    between atoms: C_12  and  N_19
REMARK                            x       y       z     vdW  Elec       q    Type
REMARK                         _______ _______ _______ _____ _____    ______ ____
ROOT
ATOM      1  C   UNL     1     -32.854  27.681   4.007  0.00  0.00    +0.142 C 
ENDROOT
BRANCH   1   2
ATOM      2  C   UNL     1     -33.655  26.492   4.251  0.00  0.00    -0.003 C 
ATOM      3  C   UNL     1     -35.189  24.209   4.719  0.00  0.00    +0.143 C 
ATOM      4  C   UNL     1     -34.146  26.232   5.530  0.00  0.00    -0.001 C 
ATOM      5  C   UNL     1     -33.931  25.611   3.206  0.00  0.00    -0.001 C 
ATOM      6  C   UNL     1     -34.913  25.091   5.765  0.00  0.00    +0.024 C 
ATOM      7  C   UNL     1     -34.698  24.469   3.440  0.00  0.00    +0.024 C 
BRANCH   3  10
ATOM      8  O   UNL     1     -35.924  22.507   6.091  0.00  0.00    -0.126 OA
ATOM      9  O   UNL     1     -36.681  22.591   4.031  0.00  0.00    -0.126 OA
ATOM     10  N   UNL     1     -35.968  23.047   4.958  0.00  0.00    +0.058 N 
ENDBRANCH   3  10
ENDBRANCH   1   2
BRANCH   1  11
ATOM     11  N   UNL     1     -32.663  28.600   4.910  0.00  0.00    -0.092 NA
BRANCH  11  12
ATOM     12  N   UNL     1     -31.307  28.836   5.114  0.00  0.00    -0.145 NA
BRANCH  12  15
ATOM     13  N   UNL     1     -29.730  28.070   6.748  0.00  0.00    -0.369 N 
ATOM     14  N   UNL     1     -31.784  28.832   7.399  0.00  0.00    -0.369 N 
ATOM     15  C   UNL     1     -30.940  28.586   6.343  0.00  0.00    +0.207 C 
ATOM     16  H   UNL     1     -29.040  27.852   6.082  0.00  0.00    +0.159 HD
ATOM     17  H   UNL     1     -29.555  27.919   7.706  0.00  0.00    +0.159 HD
ATOM     18  H   UNL     1     -32.681  29.203   7.235  0.00  0.00    +0.159 HD
ATOM     19  H   UNL     1     -31.492  28.637   8.318  0.00  0.00    +0.159 HD
ENDBRANCH  12  15
ENDBRANCH  11  12
ENDBRANCH   1  11
TORSDOF 5
ENDMDL
