MODEL 1
REMARK VINA RESULT:      -6.4      0.000      0.000
REMARK  Name = 57348742
REMARK  9 active torsions:
REMARK  status: ('A' for Active; 'I' for Inactive)
REMARK    1  A    between atoms: C_1  and  C_4
REMARK    2  A    between atoms: C_1  and  N_11
REMARK    3  A    between atoms: C_1  and  C_23
REMARK    4  A    between atoms: N_3  and  C_6
REMARK    5  A    between atoms: C_6  and  C_8
REMARK    6  A    between atoms: C_8  and  O_9
REMARK    7  A    between atoms: N_11  and  S_13
REMARK    8  A    between atoms: S_13  and  C_16
REMARK    9  A    between atoms: C_23  and  O_25
REMARK                            x       y       z     vdW  Elec       q    Type
REMARK                         _______ _______ _______ _____ _____    ______ ____
ROOT
ATOM      1  C   UNL     1     -36.014  22.486   3.758  0.00  0.00    +0.178 C 
ENDROOT
BRANCH   1   4
ATOM      2  O   UNL     1     -37.471  24.354   4.263  0.00  0.00    -0.274 OA
ATOM      3  N   UNL     1     -35.363  24.782   3.395  0.00  0.00    -0.294 N 
ATOM      4  C   UNL     1     -36.388  23.958   3.840  0.00  0.00    +0.241 C 
ATOM      5  H   UNL     1     -34.529  24.368   3.074  0.00  0.00    +0.150 HD
BRANCH   3   6
ATOM      6  C   UNL     1     -35.469  26.222   3.387  0.00  0.00    +0.201 C 
BRANCH   6   8
ATOM      7  O   UNL     1     -34.051  28.098   3.868  0.00  0.00    -0.248 OA
ATOM      8  C   UNL     1     -34.298  26.910   4.049  0.00  0.00    +0.337 C 
BRANCH   8   9
ATOM      9  O   UNL     1     -33.581  26.067   4.842  0.00  0.00    -0.443 OA
ATOM     10  C   UNL     1     -33.653  26.325   6.247  0.00  0.00    +0.256 C 
ENDBRANCH   8   9
ENDBRANCH   6   8
ENDBRANCH   3   6
ENDBRANCH   1   4
BRANCH   1  11
ATOM     11  N   UNL     1     -35.368  22.273   2.444  0.00  0.00    -0.170 NA
ATOM     12  H   UNL     1     -35.597  23.083   1.867  0.00  0.00    +0.149 HD
BRANCH  11  13
ATOM     13  S   UNL     1     -35.746  20.895   1.526  0.00  0.00    +0.061 S 
ATOM     14  O   UNL     1     -36.413  21.298   0.302  0.00  0.00    -0.153 OA
ATOM     15  O   UNL     1     -36.353  19.904   2.394  0.00  0.00    -0.153 OA
BRANCH  13  16
ATOM     16  C   UNL     1     -34.141  20.291   1.097  0.00  0.00    +0.122 C 
ATOM     17  C   UNL     1     -33.305  21.051   0.280  0.00  0.00    +0.020 C 
ATOM     18  C   UNL     1     -33.712  19.052   1.574  0.00  0.00    +0.020 C 
ATOM     19  C   UNL     1     -31.610  19.335   0.416  0.00  0.00    -0.022 C 
ATOM     20  C   UNL     1     -32.039  20.574  -0.061  0.00  0.00    -0.003 C 
ATOM     21  C   UNL     1     -32.446  18.574   1.233  0.00  0.00    -0.003 C 
ATOM     22  C   UNL     1     -30.257  18.825   0.050  0.00  0.00    +0.031 C 
ENDBRANCH  13  16
ENDBRANCH  11  13
ENDBRANCH   1  11
BRANCH   1  23
ATOM     23  C   UNL     1     -35.087  22.078   4.908  0.00  0.00    +0.135 C 
ATOM     24  C   UNL     1     -35.457  22.742   6.228  0.00  0.00    +0.034 C 
BRANCH  23  25
ATOM     25  O   UNL     1     -35.125  20.660   5.074  0.00  0.00    -0.383 OA
ATOM     26  H   UNL     1     -35.435  20.449   5.968  0.00  0.00    +0.210 HD
ENDBRANCH  23  25
ENDBRANCH   1  23
TORSDOF 9
ENDMDL
MODEL 2
REMARK VINA RESULT:      -6.4      0.668      1.352
REMARK  Name = 57348742
REMARK  9 active torsions:
REMARK  status: ('A' for Active; 'I' for Inactive)
REMARK    1  A    between atoms: C_1  and  C_4
REMARK    2  A    between atoms: C_1  and  N_11
REMARK    3  A    between atoms: C_1  and  C_23
REMARK    4  A    between atoms: N_3  and  C_6
REMARK    5  A    between atoms: C_6  and  C_8
REMARK    6  A    between atoms: C_8  and  O_9
REMARK    7  A    between atoms: N_11  and  S_13
REMARK    8  A    between atoms: S_13  and  C_16
REMARK    9  A    between atoms: C_23  and  O_25
REMARK                            x       y       z     vdW  Elec       q    Type
REMARK                         _______ _______ _______ _____ _____    ______ ____
ROOT
ATOM      1  C   UNL     1     -35.951  22.543   3.924  0.00  0.00    +0.178 C 
ENDROOT
BRANCH   1   4
ATOM      2  O   UNL     1     -37.314  24.474   4.451  0.00  0.00    -0.274 OA
ATOM      3  N   UNL     1     -35.146  24.808   3.698  0.00  0.00    -0.294 N 
ATOM      4  C   UNL     1     -36.238  24.030   4.058  0.00  0.00    +0.241 C 
ATOM      5  H   UNL     1     -34.325  24.357   3.394  0.00  0.00    +0.150 HD
BRANCH   3   6
ATOM      6  C   UNL     1     -35.165  26.251   3.752  0.00  0.00    +0.201 C 
BRANCH   6   8
ATOM      7  O   UNL     1     -34.222  26.377   5.955  0.00  0.00    -0.248 OA
ATOM      8  C   UNL     1     -34.250  26.819   4.812  0.00  0.00    +0.337 C 
BRANCH   8   9
ATOM      9  O   UNL     1     -33.491  27.849   4.344  0.00  0.00    -0.443 OA
ATOM     10  C   UNL     1     -32.276  28.098   5.058  0.00  0.00    +0.256 C 
ENDBRANCH   8   9
ENDBRANCH   6   8
ENDBRANCH   3   6
ENDBRANCH   1   4
BRANCH   1  11
ATOM     11  N   UNL     1     -35.303  22.341   2.609  0.00  0.00    -0.170 NA
ATOM     12  H   UNL     1     -35.481  23.182   2.060  0.00  0.00    +0.149 HD
BRANCH  11  13
ATOM     13  S   UNL     1     -35.746  21.019   1.640  0.00  0.00    +0.061 S 
ATOM     14  O   UNL     1     -36.430  21.498   0.453  0.00  0.00    -0.153 OA
ATOM     15  O   UNL     1     -36.361  20.007   2.477  0.00  0.00    -0.153 OA
BRANCH  13  16
ATOM     16  C   UNL     1     -34.171  20.389   1.142  0.00  0.00    +0.122 C 
ATOM     17  C   UNL     1     -33.747  19.138   1.590  0.00  0.00    +0.020 C 
ATOM     18  C   UNL     1     -33.350  21.145   0.304  0.00  0.00    +0.020 C 
ATOM     19  C   UNL     1     -31.682  19.397   0.362  0.00  0.00    -0.022 C 
ATOM     20  C   UNL     1     -32.503  18.641   1.200  0.00  0.00    -0.003 C 
ATOM     21  C   UNL     1     -32.106  20.648  -0.086  0.00  0.00    -0.003 C 
ATOM     22  C   UNL     1     -30.352  18.866  -0.054  0.00  0.00    +0.031 C 
ENDBRANCH  13  16
ENDBRANCH  11  13
ENDBRANCH   1  11
BRANCH   1  23
ATOM     23  C   UNL     1     -35.062  22.038   5.067  0.00  0.00    +0.135 C 
ATOM     24  C   UNL     1     -35.474  22.595   6.425  0.00  0.00    +0.034 C 
BRANCH  23  25
ATOM     25  O   UNL     1     -35.108  20.612   5.115  0.00  0.00    -0.383 OA
ATOM     26  H   UNL     1     -35.033  20.256   4.216  0.00  0.00    +0.210 HD
ENDBRANCH  23  25
ENDBRANCH   1  23
TORSDOF 9
ENDMDL
MODEL 3
REMARK VINA RESULT:      -6.2      3.275      6.495
REMARK  Name = 57348742
REMARK  9 active torsions:
REMARK  status: ('A' for Active; 'I' for Inactive)
REMARK    1  A    between atoms: C_1  and  C_4
REMARK    2  A    between atoms: C_1  and  N_11
REMARK    3  A    between atoms: C_1  and  C_23
REMARK    4  A    between atoms: N_3  and  C_6
REMARK    5  A    between atoms: C_6  and  C_8
REMARK    6  A    between atoms: C_8  and  O_9
REMARK    7  A    between atoms: N_11  and  S_13
REMARK    8  A    between atoms: S_13  and  C_16
REMARK    9  A    between atoms: C_23  and  O_25
REMARK                            x       y       z     vdW  Elec       q    Type
REMARK                         _______ _______ _______ _____ _____    ______ ____
ROOT
ATOM      1  C   UNL     1     -35.307  22.594   4.108  0.00  0.00    +0.178 C 
ENDROOT
BRANCH   1   4
ATOM      2  O   UNL     1     -35.338  20.751   2.537  0.00  0.00    -0.274 OA
ATOM      3  N   UNL     1     -37.267  22.006   2.827  0.00  0.00    -0.294 N 
ATOM      4  C   UNL     1     -35.941  21.677   3.074  0.00  0.00    +0.241 C 
ATOM      5  H   UNL     1     -37.662  22.769   3.309  0.00  0.00    +0.150 HD
BRANCH   3   6
ATOM      6  C   UNL     1     -38.091  21.275   1.894  0.00  0.00    +0.201 C 
BRANCH   6   8
ATOM      7  O   UNL     1     -40.435  21.026   1.444  0.00  0.00    -0.248 OA
ATOM      8  C   UNL     1     -39.534  21.725   1.892  0.00  0.00    +0.337 C 
BRANCH   8   9
ATOM      9  O   UNL     1     -39.691  22.965   2.434  0.00  0.00    -0.443 OA
ATOM     10  C   UNL     1     -40.224  23.962   1.558  0.00  0.00    +0.256 C 
ENDBRANCH   8   9
ENDBRANCH   6   8
ENDBRANCH   3   6
ENDBRANCH   1   4
BRANCH   1  11
ATOM     11  N   UNL     1     -36.287  23.664   4.401  0.00  0.00    -0.170 NA
ATOM     12  H   UNL     1     -37.214  23.258   4.271  0.00  0.00    +0.149 HD
BRANCH  11  13
ATOM     13  S   UNL     1     -36.255  25.111   3.514  0.00  0.00    +0.061 S 
ATOM     14  O   UNL     1     -37.489  25.841   3.736  0.00  0.00    -0.153 OA
ATOM     15  O   UNL     1     -35.810  24.824   2.164  0.00  0.00    -0.153 OA
BRANCH  13  16
ATOM     16  C   UNL     1     -34.948  25.997   4.309  0.00  0.00    +0.122 C 
ATOM     17  C   UNL     1     -34.168  26.894   3.580  0.00  0.00    +0.020 C 
ATOM     18  C   UNL     1     -34.694  25.795   5.667  0.00  0.00    +0.020 C 
ATOM     19  C   UNL     1     -32.882  27.391   5.564  0.00  0.00    -0.022 C 
ATOM     20  C   UNL     1     -33.135  27.591   4.207  0.00  0.00    -0.003 C 
ATOM     21  C   UNL     1     -33.661  26.493   6.294  0.00  0.00    -0.003 C 
ATOM     22  C   UNL     1     -31.777  28.135   6.234  0.00  0.00    +0.031 C 
ENDBRANCH  13  16
ENDBRANCH  11  13
ENDBRANCH   1  11
BRANCH   1  23
ATOM     23  C   UNL     1     -34.923  21.827   5.378  0.00  0.00    +0.135 C 
ATOM     24  C   UNL     1     -35.449  22.487   6.647  0.00  0.00    +0.034 C 
BRANCH  23  25
ATOM     25  O   UNL     1     -35.428  20.493   5.304  0.00  0.00    -0.383 OA
ATOM     26  H   UNL     1     -34.691  19.865   5.362  0.00  0.00    +0.210 HD
ENDBRANCH  23  25
ENDBRANCH   1  23
TORSDOF 9
ENDMDL
MODEL 4
REMARK VINA RESULT:      -6.2      2.754      4.152
REMARK  Name = 57348742
REMARK  9 active torsions:
REMARK  status: ('A' for Active; 'I' for Inactive)
REMARK    1  A    between atoms: C_1  and  C_4
REMARK    2  A    between atoms: C_1  and  N_11
REMARK    3  A    between atoms: C_1  and  C_23
REMARK    4  A    between atoms: N_3  and  C_6
REMARK    5  A    between atoms: C_6  and  C_8
REMARK    6  A    between atoms: C_8  and  O_9
REMARK    7  A    between atoms: N_11  and  S_13
REMARK    8  A    between atoms: S_13  and  C_16
REMARK    9  A    between atoms: C_23  and  O_25
REMARK                            x       y       z     vdW  Elec       q    Type
REMARK                         _______ _______ _______ _____ _____    ______ ____
ROOT
ATOM      1  C   UNL     1     -38.636  24.725   2.510  0.00  0.00    +0.178 C 
ENDROOT
BRANCH   1   4
ATOM      2  O   UNL     1     -36.492  25.850   2.575  0.00  0.00    -0.274 OA
ATOM      3  N   UNL     1     -37.273  24.819   4.501  0.00  0.00    -0.294 N 
ATOM      4  C   UNL     1     -37.349  25.199   3.167  0.00  0.00    +0.241 C 
ATOM      5  H   UNL     1     -38.014  24.296   4.886  0.00  0.00    +0.150 HD
BRANCH   3   6
ATOM      6  C   UNL     1     -36.154  25.161   5.346  0.00  0.00    +0.201 C 
BRANCH   6   8
ATOM      7  O   UNL     1     -34.166  24.060   4.572  0.00  0.00    -0.248 OA
ATOM      8  C   UNL     1     -35.086  24.092   5.383  0.00  0.00    +0.337 C 
BRANCH   8   9
ATOM      9  O   UNL     1     -35.276  23.203   6.397  0.00  0.00    -0.443 OA
ATOM     10  C   UNL     1     -35.187  21.821   6.036  0.00  0.00    +0.256 C 
ENDBRANCH   8   9
ENDBRANCH   6   8
ENDBRANCH   3   6
ENDBRANCH   1   4
BRANCH   1  11
ATOM     11  N   UNL     1     -38.811  23.301   2.870  0.00  0.00    -0.170 NA
ATOM     12  H   UNL     1     -37.966  23.016   3.367  0.00  0.00    +0.149 HD
BRANCH  11  13
ATOM     13  S   UNL     1     -39.079  22.145   1.655  0.00  0.00    +0.061 S 
ATOM     14  O   UNL     1     -39.261  22.816   0.382  0.00  0.00    -0.153 OA
ATOM     15  O   UNL     1     -40.066  21.191   2.124  0.00  0.00    -0.153 OA
BRANCH  13  16
ATOM     16  C   UNL     1     -37.528  21.299   1.608  0.00  0.00    +0.122 C 
ATOM     17  C   UNL     1     -37.315  20.283   0.677  0.00  0.00    +0.020 C 
ATOM     18  C   UNL     1     -36.517  21.646   2.506  0.00  0.00    +0.020 C 
ATOM     19  C   UNL     1     -35.080  19.960   1.539  0.00  0.00    -0.022 C 
ATOM     20  C   UNL     1     -36.091  19.614   0.642  0.00  0.00    -0.003 C 
ATOM     21  C   UNL     1     -35.294  20.976   2.471  0.00  0.00    -0.003 C 
ATOM     22  C   UNL     1     -33.773  19.244   1.501  0.00  0.00    +0.031 C 
ENDBRANCH  13  16
ENDBRANCH  11  13
ENDBRANCH   1  11
BRANCH   1  23
ATOM     23  C   UNL     1     -39.837  25.565   2.958  0.00  0.00    +0.135 C 
ATOM     24  C   UNL     1     -41.002  25.498   1.977  0.00  0.00    +0.034 C 
BRANCH  23  25
ATOM     25  O   UNL     1     -40.282  25.119   4.239  0.00  0.00    -0.383 OA
ATOM     26  H   UNL     1     -39.612  25.336   4.906  0.00  0.00    +0.210 HD
ENDBRANCH  23  25
ENDBRANCH   1  23
TORSDOF 9
ENDMDL
MODEL 5
REMARK VINA RESULT:      -6.2      4.768      6.627
REMARK  Name = 57348742
REMARK  9 active torsions:
REMARK  status: ('A' for Active; 'I' for Inactive)
REMARK    1  A    between atoms: C_1  and  C_4
REMARK    2  A    between atoms: C_1  and  N_11
REMARK    3  A    between atoms: C_1  and  C_23
REMARK    4  A    between atoms: N_3  and  C_6
REMARK    5  A    between atoms: C_6  and  C_8
REMARK    6  A    between atoms: C_8  and  O_9
REMARK    7  A    between atoms: N_11  and  S_13
REMARK    8  A    between atoms: S_13  and  C_16
REMARK    9  A    between atoms: C_23  and  O_25
REMARK                            x       y       z     vdW  Elec       q    Type
REMARK                         _______ _______ _______ _____ _____    ______ ____
ROOT
ATOM      1  C   UNL     1     -34.479  29.077   2.509  0.00  0.00    +0.178 C 
ENDROOT
BRANCH   1   4
ATOM      2  O   UNL     1     -32.086  28.707   2.520  0.00  0.00    -0.274 OA
ATOM      3  N   UNL     1     -33.125  29.368   4.486  0.00  0.00    -0.294 N 
ATOM      4  C   UNL     1     -33.098  29.019   3.142  0.00  0.00    +0.241 C 
ATOM      5  H   UNL     1     -33.989  29.603   4.896  0.00  0.00    +0.150 HD
BRANCH   3   6
ATOM      6  C   UNL     1     -31.937  29.402   5.306  0.00  0.00    +0.201 C 
BRANCH   6   8
ATOM      7  O   UNL     1     -32.724  27.605   6.687  0.00  0.00    -0.248 OA
ATOM      8  C   UNL     1     -31.769  28.171   6.165  0.00  0.00    +0.337 C 
BRANCH   8   9
ATOM      9  O   UNL     1     -30.467  27.789   6.277  0.00  0.00    -0.443 OA
ATOM     10  C   UNL     1     -29.551  28.437   5.389  0.00  0.00    +0.256 C 
ENDBRANCH   8   9
ENDBRANCH   6   8
ENDBRANCH   3   6
ENDBRANCH   1   4
BRANCH   1  11
ATOM     11  N   UNL     1     -35.328  28.096   3.222  0.00  0.00    -0.170 NA
ATOM     12  H   UNL     1     -34.757  27.702   3.971  0.00  0.00    +0.149 HD
BRANCH  11  13
ATOM     13  S   UNL     1     -36.004  26.787   2.378  0.00  0.00    +0.061 S 
ATOM     14  O   UNL     1     -35.196  26.498   1.208  0.00  0.00    -0.153 OA
ATOM     15  O   UNL     1     -37.432  27.001   2.244  0.00  0.00    -0.153 OA
BRANCH  13  16
ATOM     16  C   UNL     1     -35.787  25.462   3.528  0.00  0.00    +0.122 C 
ATOM     17  C   UNL     1     -35.085  25.676   4.715  0.00  0.00    +0.020 C 
ATOM     18  C   UNL     1     -36.315  24.201   3.248  0.00  0.00    +0.020 C 
ATOM     19  C   UNL     1     -35.440  23.369   5.341  0.00  0.00    -0.022 C 
ATOM     20  C   UNL     1     -34.911  24.630   5.621  0.00  0.00    -0.003 C 
ATOM     21  C   UNL     1     -36.141  23.155   4.154  0.00  0.00    -0.003 C 
ATOM     22  C   UNL     1     -35.253  22.251   6.310  0.00  0.00    +0.031 C 
ENDBRANCH  13  16
ENDBRANCH  11  13
ENDBRANCH   1  11
BRANCH   1  23
ATOM     23  C   UNL     1     -35.073  30.488   2.586  0.00  0.00    +0.135 C 
ATOM     24  C   UNL     1     -36.232  30.693   1.617  0.00  0.00    +0.034 C 
BRANCH  23  25
ATOM     25  O   UNL     1     -35.526  30.745   3.915  0.00  0.00    -0.383 OA
ATOM     26  H   UNL     1     -35.353  31.673   4.140  0.00  0.00    +0.210 HD
ENDBRANCH  23  25
ENDBRANCH   1  23
TORSDOF 9
ENDMDL
MODEL 6
REMARK VINA RESULT:      -6.0      3.522      6.564
REMARK  Name = 57348742
REMARK  9 active torsions:
REMARK  status: ('A' for Active; 'I' for Inactive)
REMARK    1  A    between atoms: C_1  and  C_4
REMARK    2  A    between atoms: C_1  and  N_11
REMARK    3  A    between atoms: C_1  and  C_23
REMARK    4  A    between atoms: N_3  and  C_6
REMARK    5  A    between atoms: C_6  and  C_8
REMARK    6  A    between atoms: C_8  and  O_9
REMARK    7  A    between atoms: N_11  and  S_13
REMARK    8  A    between atoms: S_13  and  C_16
REMARK    9  A    between atoms: C_23  and  O_25
REMARK                            x       y       z     vdW  Elec       q    Type
REMARK                         _______ _______ _______ _____ _____    ______ ____
ROOT
ATOM      1  C   UNL     1     -35.193  22.999   3.977  0.00  0.00    +0.178 C 
ENDROOT
BRANCH   1   4
ATOM      2  O   UNL     1     -35.788  22.017   1.845  0.00  0.00    -0.274 OA
ATOM      3  N   UNL     1     -37.481  22.758   3.247  0.00  0.00    -0.294 N 
ATOM      4  C   UNL     1     -36.156  22.536   2.897  0.00  0.00    +0.241 C 
ATOM      5  H   UNL     1     -37.676  23.181   4.115  0.00  0.00    +0.150 HD
BRANCH   3   6
ATOM      6  C   UNL     1     -38.586  22.391   2.392  0.00  0.00    +0.201 C 
BRANCH   6   8
ATOM      7  O   UNL     1     -40.634  23.353   1.595  0.00  0.00    -0.248 OA
ATOM      8  C   UNL     1     -39.698  23.414   2.384  0.00  0.00    +0.337 C 
BRANCH   8   9
ATOM      9  O   UNL     1     -39.527  24.374   3.334  0.00  0.00    -0.443 OA
ATOM     10  C   UNL     1     -40.311  25.559   3.168  0.00  0.00    +0.256 C 
ENDBRANCH   8   9
ENDBRANCH   6   8
ENDBRANCH   3   6
ENDBRANCH   1   4
BRANCH   1  11
ATOM     11  N   UNL     1     -35.767  24.225   4.577  0.00  0.00    -0.170 NA
ATOM     12  H   UNL     1     -36.582  24.473   4.016  0.00  0.00    +0.149 HD
BRANCH  11  13
ATOM     13  S   UNL     1     -34.819  25.627   4.713  0.00  0.00    +0.061 S 
ATOM     14  O   UNL     1     -33.438  25.308   4.405  0.00  0.00    -0.153 OA
ATOM     15  O   UNL     1     -35.152  26.300   5.953  0.00  0.00    -0.153 OA
BRANCH  13  16
ATOM     16  C   UNL     1     -35.453  26.624   3.399  0.00  0.00    +0.122 C 
ATOM     17  C   UNL     1     -34.786  27.790   3.023  0.00  0.00    +0.020 C 
ATOM     18  C   UNL     1     -36.625  26.248   2.740  0.00  0.00    +0.020 C 
ATOM     19  C   UNL     1     -36.458  28.202   1.328  0.00  0.00    -0.022 C 
ATOM     20  C   UNL     1     -35.287  28.579   1.987  0.00  0.00    -0.003 C 
ATOM     21  C   UNL     1     -37.126  27.037   1.705  0.00  0.00    -0.003 C 
ATOM     22  C   UNL     1     -36.994  29.046   0.222  0.00  0.00    +0.031 C 
ENDBRANCH  13  16
ENDBRANCH  11  13
ENDBRANCH   1  11
BRANCH   1  23
ATOM     23  C   UNL     1     -34.972  21.913   5.036  0.00  0.00    +0.135 C 
ATOM     24  C   UNL     1     -35.529  22.299   6.402  0.00  0.00    +0.034 C 
BRANCH  23  25
ATOM     25  O   UNL     1     -35.587  20.696   4.610  0.00  0.00    -0.383 OA
ATOM     26  H   UNL     1     -36.265  20.894   3.945  0.00  0.00    +0.210 HD
ENDBRANCH  23  25
ENDBRANCH   1  23
TORSDOF 9
ENDMDL
MODEL 7
REMARK VINA RESULT:      -6.0      4.779      7.018
REMARK  Name = 57348742
REMARK  9 active torsions:
REMARK  status: ('A' for Active; 'I' for Inactive)
REMARK    1  A    between atoms: C_1  and  C_4
REMARK    2  A    between atoms: C_1  and  N_11
REMARK    3  A    between atoms: C_1  and  C_23
REMARK    4  A    between atoms: N_3  and  C_6
REMARK    5  A    between atoms: C_6  and  C_8
REMARK    6  A    between atoms: C_8  and  O_9
REMARK    7  A    between atoms: N_11  and  S_13
REMARK    8  A    between atoms: S_13  and  C_16
REMARK    9  A    between atoms: C_23  and  O_25
REMARK                            x       y       z     vdW  Elec       q    Type
REMARK                         _______ _______ _______ _____ _____    ______ ____
ROOT
ATOM      1  C   UNL     1     -39.446  25.831   1.925  0.00  0.00    +0.178 C 
ENDROOT
BRANCH   1   4
ATOM      2  O   UNL     1     -40.529  27.699   0.829  0.00  0.00    -0.274 OA
ATOM      3  N   UNL     1     -41.530  26.768   2.704  0.00  0.00    -0.294 N 
ATOM      4  C   UNL     1     -40.537  26.873   1.739  0.00  0.00    +0.241 C 
ATOM      5  H   UNL     1     -41.446  26.071   3.395  0.00  0.00    +0.150 HD
BRANCH   3   6
ATOM      6  C   UNL     1     -42.683  27.638   2.734  0.00  0.00    +0.201 C 
BRANCH   6   8
ATOM      7  O   UNL     1     -42.027  28.921   4.653  0.00  0.00    -0.248 OA
ATOM      8  C   UNL     1     -42.906  28.285   4.081  0.00  0.00    +0.337 C 
BRANCH   8   9
ATOM      9  O   UNL     1     -44.165  28.076   4.555  0.00  0.00    -0.443 OA
ATOM     10  C   UNL     1     -45.046  27.362   3.683  0.00  0.00    +0.256 C 
ENDBRANCH   8   9
ENDBRANCH   6   8
ENDBRANCH   3   6
ENDBRANCH   1   4
BRANCH   1  11
ATOM     11  N   UNL     1     -38.327  26.492   2.634  0.00  0.00    -0.170 NA
ATOM     12  H   UNL     1     -38.482  27.498   2.556  0.00  0.00    +0.149 HD
BRANCH  11  13
ATOM     13  S   UNL     1     -36.726  26.202   2.148  0.00  0.00    +0.061 S 
ATOM     14  O   UNL     1     -35.928  27.392   2.381  0.00  0.00    -0.153 OA
ATOM     15  O   UNL     1     -36.738  25.577   0.839  0.00  0.00    -0.153 OA
BRANCH  13  16
ATOM     16  C   UNL     1     -36.212  24.968   3.304  0.00  0.00    +0.122 C 
ATOM     17  C   UNL     1     -36.152  25.268   4.665  0.00  0.00    +0.020 C 
ATOM     18  C   UNL     1     -35.862  23.694   2.855  0.00  0.00    +0.020 C 
ATOM     19  C   UNL     1     -35.395  23.021   5.129  0.00  0.00    -0.022 C 
ATOM     20  C   UNL     1     -35.744  24.295   5.577  0.00  0.00    -0.003 C 
ATOM     21  C   UNL     1     -35.454  22.721   3.767  0.00  0.00    -0.003 C 
ATOM     22  C   UNL     1     -34.958  21.981   6.104  0.00  0.00    +0.031 C 
ENDBRANCH  13  16
ENDBRANCH  11  13
ENDBRANCH   1  11
BRANCH   1  23
ATOM     23  C   UNL     1     -39.958  24.615   2.706  0.00  0.00    +0.135 C 
ATOM     24  C   UNL     1     -39.405  23.298   2.174  0.00  0.00    +0.034 C 
BRANCH  23  25
ATOM     25  O   UNL     1     -39.605  24.746   4.083  0.00  0.00    -0.383 OA
ATOM     26  H   UNL     1     -40.037  25.531   4.453  0.00  0.00    +0.210 HD
ENDBRANCH  23  25
ENDBRANCH   1  23
TORSDOF 9
ENDMDL
MODEL 8
REMARK VINA RESULT:      -6.0      3.680      5.871
REMARK  Name = 57348742
REMARK  9 active torsions:
REMARK  status: ('A' for Active; 'I' for Inactive)
REMARK    1  A    between atoms: C_1  and  C_4
REMARK    2  A    between atoms: C_1  and  N_11
REMARK    3  A    between atoms: C_1  and  C_23
REMARK    4  A    between atoms: N_3  and  C_6
REMARK    5  A    between atoms: C_6  and  C_8
REMARK    6  A    between atoms: C_8  and  O_9
REMARK    7  A    between atoms: N_11  and  S_13
REMARK    8  A    between atoms: S_13  and  C_16
REMARK    9  A    between atoms: C_23  and  O_25
REMARK                            x       y       z     vdW  Elec       q    Type
REMARK                         _______ _______ _______ _____ _____    ______ ____
ROOT
ATOM      1  C   UNL     1     -38.374  22.473   1.724  0.00  0.00    +0.178 C 
ENDROOT
BRANCH   1   4
ATOM      2  O   UNL     1     -38.471  24.084   3.529  0.00  0.00    -0.274 OA
ATOM      3  N   UNL     1     -40.067  24.189   1.849  0.00  0.00    -0.294 N 
ATOM      4  C   UNL     1     -38.953  23.656   2.483  0.00  0.00    +0.241 C 
ATOM      5  H   UNL     1     -40.378  23.774   1.012  0.00  0.00    +0.150 HD
BRANCH   3   6
ATOM      6  C   UNL     1     -40.788  25.328   2.367  0.00  0.00    +0.201 C 
BRANCH   6   8
ATOM      7  O   UNL     1     -39.186  26.845   1.423  0.00  0.00    -0.248 OA
ATOM      8  C   UNL     1     -40.347  26.639   1.758  0.00  0.00    +0.337 C 
BRANCH   8   9
ATOM      9  O   UNL     1     -41.374  27.526   1.637  0.00  0.00    -0.443 OA
ATOM     10  C   UNL     1     -42.493  27.303   2.501  0.00  0.00    +0.256 C 
ENDBRANCH   8   9
ENDBRANCH   6   8
ENDBRANCH   3   6
ENDBRANCH   1   4
BRANCH   1  11
ATOM     11  N   UNL     1     -37.579  21.682   2.690  0.00  0.00    -0.170 NA
ATOM     12  H   UNL     1     -37.754  22.081   3.613  0.00  0.00    +0.149 HD
BRANCH  11  13
ATOM     13  S   UNL     1     -35.893  21.574   2.514  0.00  0.00    +0.061 S 
ATOM     14  O   UNL     1     -35.531  21.869   1.140  0.00  0.00    -0.153 OA
ATOM     15  O   UNL     1     -35.433  20.350   3.142  0.00  0.00    -0.153 OA
BRANCH  13  16
ATOM     16  C   UNL     1     -35.335  22.913   3.524  0.00  0.00    +0.122 C 
ATOM     17  C   UNL     1     -35.442  22.832   4.912  0.00  0.00    +0.020 C 
ATOM     18  C   UNL     1     -34.791  24.054   2.931  0.00  0.00    +0.020 C 
ATOM     19  C   UNL     1     -34.460  25.030   5.117  0.00  0.00    -0.022 C 
ATOM     20  C   UNL     1     -35.004  23.889   5.709  0.00  0.00    -0.003 C 
ATOM     21  C   UNL     1     -34.354  25.111   3.729  0.00  0.00    -0.003 C 
ATOM     22  C   UNL     1     -33.993  26.160   5.970  0.00  0.00    +0.031 C 
ENDBRANCH  13  16
ENDBRANCH  11  13
ENDBRANCH   1  11
BRANCH   1  23
ATOM     23  C   UNL     1     -39.477  21.623   1.083  0.00  0.00    +0.135 C 
ATOM     24  C   UNL     1     -38.927  20.555   0.145  0.00  0.00    +0.034 C 
BRANCH  23  25
ATOM     25  O   UNL     1     -40.251  20.993   2.103  0.00  0.00    -0.383 OA
ATOM     26  H   UNL     1     -40.659  20.188   1.747  0.00  0.00    +0.210 HD
ENDBRANCH  23  25
ENDBRANCH   1  23
TORSDOF 9
ENDMDL
MODEL 9
REMARK VINA RESULT:      -5.9      1.862      2.933
REMARK  Name = 57348742
REMARK  9 active torsions:
REMARK  status: ('A' for Active; 'I' for Inactive)
REMARK    1  A    between atoms: C_1  and  C_4
REMARK    2  A    between atoms: C_1  and  N_11
REMARK    3  A    between atoms: C_1  and  C_23
REMARK    4  A    between atoms: N_3  and  C_6
REMARK    5  A    between atoms: C_6  and  C_8
REMARK    6  A    between atoms: C_8  and  O_9
REMARK    7  A    between atoms: N_11  and  S_13
REMARK    8  A    between atoms: S_13  and  C_16
REMARK    9  A    between atoms: C_23  and  O_25
REMARK                            x       y       z     vdW  Elec       q    Type
REMARK                         _______ _______ _______ _____ _____    ______ ____
ROOT
ATOM      1  C   UNL     1     -35.940  22.489   3.781  0.00  0.00    +0.178 C 
ENDROOT
BRANCH   1   4
ATOM      2  O   UNL     1     -35.430  24.851   3.942  0.00  0.00    -0.274 OA
ATOM      3  N   UNL     1     -37.645  24.197   3.720  0.00  0.00    -0.294 N 
ATOM      4  C   UNL     1     -36.279  23.970   3.830  0.00  0.00    +0.241 C 
ATOM      5  H   UNL     1     -38.247  23.423   3.634  0.00  0.00    +0.150 HD
BRANCH   3   6
ATOM      6  C   UNL     1     -38.218  25.523   3.725  0.00  0.00    +0.201 C 
BRANCH   6   8
ATOM      7  O   UNL     1     -37.739  27.023   1.914  0.00  0.00    -0.248 OA
ATOM      8  C   UNL     1     -38.415  26.093   2.340  0.00  0.00    +0.337 C 
BRANCH   8   9
ATOM      9  O   UNL     1     -39.405  25.458   1.654  0.00  0.00    -0.443 OA
ATOM     10  C   UNL     1     -40.284  26.305   0.906  0.00  0.00    +0.256 C 
ENDBRANCH   8   9
ENDBRANCH   6   8
ENDBRANCH   3   6
ENDBRANCH   1   4
BRANCH   1  11
ATOM     11  N   UNL     1     -35.231  22.246   2.505  0.00  0.00    -0.170 NA
ATOM     12  H   UNL     1     -35.365  23.078   1.930  0.00  0.00    +0.149 HD
BRANCH  11  13
ATOM     13  S   UNL     1     -35.652  20.911   1.543  0.00  0.00    +0.061 S 
ATOM     14  O   UNL     1     -36.299  21.375   0.330  0.00  0.00    -0.153 OA
ATOM     15  O   UNL     1     -36.295  19.915   2.377  0.00  0.00    -0.153 OA
BRANCH  13  16
ATOM     16  C   UNL     1     -34.066  20.268   1.100  0.00  0.00    +0.122 C 
ATOM     17  C   UNL     1     -33.654  19.029   1.590  0.00  0.00    +0.020 C 
ATOM     18  C   UNL     1     -33.224  21.002   0.263  0.00  0.00    +0.020 C 
ATOM     19  C   UNL     1     -31.560  19.255   0.406  0.00  0.00    -0.022 C 
ATOM     20  C   UNL     1     -32.402  18.521   1.244  0.00  0.00    -0.003 C 
ATOM     21  C   UNL     1     -31.972  20.494  -0.083  0.00  0.00    -0.003 C 
ATOM     22  C   UNL     1     -30.221  18.713   0.037  0.00  0.00    +0.031 C 
ENDBRANCH  13  16
ENDBRANCH  11  13
ENDBRANCH   1  11
BRANCH   1  23
ATOM     23  C   UNL     1     -35.083  22.070   4.982  0.00  0.00    +0.135 C 
ATOM     24  C   UNL     1     -35.567  22.682   6.292  0.00  0.00    +0.034 C 
BRANCH  23  25
ATOM     25  O   UNL     1     -35.091  20.648   5.103  0.00  0.00    -0.383 OA
ATOM     26  H   UNL     1     -34.773  20.397   5.984  0.00  0.00    +0.210 HD
ENDBRANCH  23  25
ENDBRANCH   1  23
TORSDOF 9
ENDMDL
