MODEL 1
REMARK VINA RESULT:      -7.3      0.000      0.000
REMARK  Name = 5459362
REMARK  4 active torsions:
REMARK  status: ('A' for Active; 'I' for Inactive)
REMARK    1  A    between atoms: C_4  and  C_14
REMARK    2  A    between atoms: C_7  and  C_19
REMARK    3  A    between atoms: C_20  and  C_24
REMARK    4  A    between atoms: C_23  and  C_31
REMARK                            x       y       z     vdW  Elec       q    Type
REMARK                         _______ _______ _______ _____ _____    ______ ____
ROOT
ATOM      1  N   UNL     1     -39.031  24.614   3.613  0.00  0.00    -0.314 N 
ATOM      2  N   UNL     1     -39.611  23.868   1.601  0.00  0.00    -0.314 N 
ATOM      3  C   UNL     1     -40.169  25.303   3.282  0.00  0.00    +0.059 C 
ATOM      4  C   UNL     1     -42.040  26.771   3.303  0.00  0.00    +0.033 C 
ATOM      5  C   UNL     1     -40.511  24.820   2.022  0.00  0.00    +0.059 C 
ATOM      6  C   UNL     1     -40.907  26.277   3.956  0.00  0.00    +0.018 C 
ATOM      7  C   UNL     1     -38.738  23.770   2.578  0.00  0.00    +0.174 C 
ATOM      8  C   UNL     1     -42.409  26.306   2.038  0.00  0.00    +0.004 C 
ATOM      9  C   UNL     1     -41.654  25.328   1.381  0.00  0.00    +0.016 C 
ATOM     10  H   UNL     1     -38.516  24.709   4.447  0.00  0.00    +0.149 HD
ATOM     11  H   UNL     1     -39.619  23.369   0.753  0.00  0.00    +0.149 HD
ENDROOT
BRANCH   4  14
ATOM     12  N   UNL     1     -44.212  27.715   4.009  0.00  0.00    -0.296 N 
ATOM     13  N   UNL     1     -42.317  28.841   4.532  0.00  0.00    -0.228 NA
ATOM     14  C   UNL     1     -42.849  27.790   3.956  0.00  0.00    +0.132 C 
ATOM     15  C   UNL     1     -44.751  28.839   4.715  0.00  0.00    +0.084 C 
ATOM     16  C   UNL     1     -43.477  29.614   5.062  0.00  0.00    +0.116 C 
ATOM     17  H   UNL     1     -44.749  26.988   3.618  0.00  0.00    +0.154 HD
ENDBRANCH   4  14
BRANCH   7  19
ATOM     18  S   UNL     1     -37.461  21.667   1.404  0.00  0.00    -0.088 S 
ATOM     19  C   UNL     1     -37.621  22.902   2.583  0.00  0.00    +0.044 C 
ATOM     20  C   UNL     1     -35.978  21.137   2.075  0.00  0.00    +0.029 C 
ATOM     21  C   UNL     1     -36.561  22.903   3.468  0.00  0.00    +0.006 C 
ATOM     22  C   UNL     1     -35.612  21.883   3.173  0.00  0.00    +0.007 C 
BRANCH  20  24
ATOM     23  C   UNL     1     -33.967  17.875   0.276  0.00  0.00    +0.032 C 
ATOM     24  C   UNL     1     -35.292  20.024   1.461  0.00  0.00    +0.006 C 
ATOM     25  C   UNL     1     -33.347  18.602   1.292  0.00  0.00    +0.003 C 
ATOM     26  C   UNL     1     -35.251  18.223  -0.146  0.00  0.00    +0.003 C 
ATOM     27  C   UNL     1     -34.010  19.677   1.885  0.00  0.00    +0.001 C 
ATOM     28  C   UNL     1     -35.913  19.298   0.446  0.00  0.00    +0.001 C 
BRANCH  23  31
ATOM     29  N   UNL     1     -32.271  16.080   0.289  0.00  0.00    -0.296 N 
ATOM     30  N   UNL     1     -33.581  16.324  -1.543  0.00  0.00    -0.228 NA
ATOM     31  C   UNL     1     -33.278  16.754  -0.342  0.00  0.00    +0.132 C 
ATOM     32  C   UNL     1     -31.777  15.021  -0.540  0.00  0.00    +0.084 C 
ATOM     33  C   UNL     1     -32.650  15.185  -1.788  0.00  0.00    +0.116 C 
ATOM     34  H   UNL     1     -31.933  16.291   1.189  0.00  0.00    +0.154 HD
ENDBRANCH  23  31
ENDBRANCH  20  24
ENDBRANCH   7  19
TORSDOF 4
ENDMDL
MODEL 2
REMARK VINA RESULT:      -7.3      4.589      6.082
REMARK  Name = 5459362
REMARK  4 active torsions:
REMARK  status: ('A' for Active; 'I' for Inactive)
REMARK    1  A    between atoms: C_4  and  C_14
REMARK    2  A    between atoms: C_7  and  C_19
REMARK    3  A    between atoms: C_20  and  C_24
REMARK    4  A    between atoms: C_23  and  C_31
REMARK                            x       y       z     vdW  Elec       q    Type
REMARK                         _______ _______ _______ _____ _____    ______ ____
ROOT
ATOM      1  N   UNL     1     -34.973  23.308   2.474  0.00  0.00    -0.314 N 
ATOM      2  N   UNL     1     -36.861  23.079   3.623  0.00  0.00    -0.314 N 
ATOM      3  C   UNL     1     -34.920  24.263   3.456  0.00  0.00    +0.059 C 
ATOM      4  C   UNL     1     -34.247  26.050   4.873  0.00  0.00    +0.033 C 
ATOM      5  C   UNL     1     -36.110  24.100   4.160  0.00  0.00    +0.059 C 
ATOM      6  C   UNL     1     -33.963  25.224   3.781  0.00  0.00    +0.018 C 
ATOM      7  C   UNL     1     -36.151  22.627   2.615  0.00  0.00    +0.174 C 
ATOM      8  C   UNL     1     -35.432  25.912   5.599  0.00  0.00    +0.004 C 
ATOM      9  C   UNL     1     -36.378  24.938   5.255  0.00  0.00    +0.016 C 
ATOM     10  H   UNL     1     -34.285  23.141   1.789  0.00  0.00    +0.149 HD
ATOM     11  H   UNL     1     -37.740  22.758   3.928  0.00  0.00    +0.149 HD
ENDROOT
BRANCH   4  14
ATOM     12  N   UNL     1     -32.982  28.131   4.451  0.00  0.00    -0.296 N 
ATOM     13  N   UNL     1     -32.654  27.038   6.409  0.00  0.00    -0.228 NA
ATOM     14  C   UNL     1     -33.286  27.073   5.259  0.00  0.00    +0.132 C 
ATOM     15  C   UNL     1     -32.018  28.984   5.079  0.00  0.00    +0.084 C 
ATOM     16  C   UNL     1     -31.780  28.247   6.400  0.00  0.00    +0.116 C 
ATOM     17  H   UNL     1     -33.373  28.287   3.561  0.00  0.00    +0.154 HD
ENDBRANCH   4  14
BRANCH   7  19
ATOM     18  S   UNL     1     -35.643  20.100   1.729  0.00  0.00    -0.088 S 
ATOM     19  C   UNL     1     -36.534  21.565   1.764  0.00  0.00    +0.044 C 
ATOM     20  C   UNL     1     -36.685  19.426   0.548  0.00  0.00    +0.029 C 
ATOM     21  C   UNL     1     -37.603  21.534   0.890  0.00  0.00    +0.006 C 
ATOM     22  C   UNL     1     -37.689  20.297   0.188  0.00  0.00    +0.007 C 
BRANCH  20  24
ATOM     23  C   UNL     1     -35.928  15.504  -0.851  0.00  0.00    +0.032 C 
ATOM     24  C   UNL     1     -36.426  18.088   0.071  0.00  0.00    +0.006 C 
ATOM     25  C   UNL     1     -34.867  16.380  -0.621  0.00  0.00    +0.003 C 
ATOM     26  C   UNL     1     -37.239  15.921  -0.617  0.00  0.00    +0.003 C 
ATOM     27  C   UNL     1     -35.116  17.672  -0.160  0.00  0.00    +0.001 C 
ATOM     28  C   UNL     1     -37.488  17.214  -0.157  0.00  0.00    +0.001 C 
BRANCH  23  31
ATOM     29  N   UNL     1     -34.436  13.576  -1.244  0.00  0.00    -0.296 N 
ATOM     30  N   UNL     1     -36.605  13.417  -1.876  0.00  0.00    -0.228 NA
ATOM     31  C   UNL     1     -35.669  14.156  -1.330  0.00  0.00    +0.132 C 
ATOM     32  C   UNL     1     -34.465  12.248  -1.782  0.00  0.00    +0.084 C 
ATOM     33  C   UNL     1     -35.927  12.135  -2.223  0.00  0.00    +0.116 C 
ATOM     34  H   UNL     1     -33.637  14.009  -0.864  0.00  0.00    +0.154 HD
ENDBRANCH  23  31
ENDBRANCH  20  24
ENDBRANCH   7  19
TORSDOF 4
ENDMDL
MODEL 3
REMARK VINA RESULT:      -7.2      6.651      8.408
REMARK  Name = 5459362
REMARK  4 active torsions:
REMARK  status: ('A' for Active; 'I' for Inactive)
REMARK    1  A    between atoms: C_4  and  C_14
REMARK    2  A    between atoms: C_7  and  C_19
REMARK    3  A    between atoms: C_20  and  C_24
REMARK    4  A    between atoms: C_23  and  C_31
REMARK                            x       y       z     vdW  Elec       q    Type
REMARK                         _______ _______ _______ _____ _____    ______ ____
ROOT
ATOM      1  N   UNL     1     -33.280  27.344   4.010  0.00  0.00    -0.314 N 
ATOM      2  N   UNL     1     -33.115  26.942   6.189  0.00  0.00    -0.314 N 
ATOM      3  C   UNL     1     -32.550  28.387   4.519  0.00  0.00    +0.059 C 
ATOM      4  C   UNL     1     -31.286  30.386   4.769  0.00  0.00    +0.033 C 
ATOM      5  C   UNL     1     -32.461  28.113   5.882  0.00  0.00    +0.059 C 
ATOM      6  C   UNL     1     -31.976  29.511   3.925  0.00  0.00    +0.018 C 
ATOM      7  C   UNL     1     -33.594  26.508   5.046  0.00  0.00    +0.174 C 
ATOM      8  C   UNL     1     -31.179  30.139   6.140  0.00  0.00    +0.004 C 
ATOM      9  C   UNL     1     -31.763  29.004   6.714  0.00  0.00    +0.016 C 
ATOM     10  H   UNL     1     -33.532  27.219   3.067  0.00  0.00    +0.149 HD
ATOM     11  H   UNL     1     -33.205  26.522   7.075  0.00  0.00    +0.149 HD
ENDROOT
BRANCH   4  14
ATOM     12  N   UNL     1     -31.366  32.478   3.457  0.00  0.00    -0.296 N 
ATOM     13  N   UNL     1     -29.396  31.853   4.385  0.00  0.00    -0.228 NA
ATOM     14  C   UNL     1     -30.666  31.577   4.206  0.00  0.00    +0.132 C 
ATOM     15  C   UNL     1     -30.516  33.553   3.039  0.00  0.00    +0.084 C 
ATOM     16  C   UNL     1     -29.177  33.134   3.652  0.00  0.00    +0.116 C 
ATOM     17  H   UNL     1     -32.322  32.401   3.235  0.00  0.00    +0.154 HD
ENDBRANCH   4  14
BRANCH   7  19
ATOM     18  S   UNL     1     -34.532  24.609   3.330  0.00  0.00    -0.088 S 
ATOM     19  C   UNL     1     -34.345  25.322   4.879  0.00  0.00    +0.044 C 
ATOM     20  C   UNL     1     -35.487  23.338   3.966  0.00  0.00    +0.029 C 
ATOM     21  C   UNL     1     -35.002  24.600   5.856  0.00  0.00    +0.006 C 
ATOM     22  C   UNL     1     -35.662  23.454   5.327  0.00  0.00    +0.007 C 
BRANCH  20  24
ATOM     23  C   UNL     1     -36.960  20.371   1.331  0.00  0.00    +0.032 C 
ATOM     24  C   UNL     1     -35.990  22.326   3.067  0.00  0.00    +0.006 C 
ATOM     25  C   UNL     1     -35.676  20.256   1.864  0.00  0.00    +0.003 C 
ATOM     26  C   UNL     1     -37.759  21.464   1.668  0.00  0.00    +0.003 C 
ATOM     27  C   UNL     1     -35.191  21.234   2.732  0.00  0.00    +0.001 C 
ATOM     28  C   UNL     1     -37.273  22.442   2.536  0.00  0.00    +0.001 C 
BRANCH  23  31
ATOM     29  N   UNL     1     -37.094  18.041   0.521  0.00  0.00    -0.296 N 
ATOM     30  N   UNL     1     -38.314  19.631  -0.536  0.00  0.00    -0.228 NA
ATOM     31  C   UNL     1     -37.467  19.352   0.426  0.00  0.00    +0.132 C 
ATOM     32  C   UNL     1     -37.747  17.258  -0.484  0.00  0.00    +0.084 C 
ATOM     33  C   UNL     1     -38.567  18.326  -1.213  0.00  0.00    +0.116 C 
ATOM     34  H   UNL     1     -36.464  17.685   1.188  0.00  0.00    +0.154 HD
ENDBRANCH  23  31
ENDBRANCH  20  24
ENDBRANCH   7  19
TORSDOF 4
ENDMDL
MODEL 4
REMARK VINA RESULT:      -6.8      5.436      6.901
REMARK  Name = 5459362
REMARK  4 active torsions:
REMARK  status: ('A' for Active; 'I' for Inactive)
REMARK    1  A    between atoms: C_4  and  C_14
REMARK    2  A    between atoms: C_7  and  C_19
REMARK    3  A    between atoms: C_20  and  C_24
REMARK    4  A    between atoms: C_23  and  C_31
REMARK                            x       y       z     vdW  Elec       q    Type
REMARK                         _______ _______ _______ _____ _____    ______ ____
ROOT
ATOM      1  N   UNL     1     -34.916  23.751   1.992  0.00  0.00    -0.314 N 
ATOM      2  N   UNL     1     -36.325  22.832   3.444  0.00  0.00    -0.314 N 
ATOM      3  C   UNL     1     -34.741  24.446   3.160  0.00  0.00    +0.059 C 
ATOM      4  C   UNL     1     -33.994  25.979   4.818  0.00  0.00    +0.033 C 
ATOM      5  C   UNL     1     -35.631  23.854   4.051  0.00  0.00    +0.059 C 
ATOM      6  C   UNL     1     -33.906  25.509   3.504  0.00  0.00    +0.018 C 
ATOM      7  C   UNL     1     -35.871  22.798   2.211  0.00  0.00    +0.174 C 
ATOM      8  C   UNL     1     -34.878  25.405   5.736  0.00  0.00    +0.004 C 
ATOM      9  C   UNL     1     -35.707  24.339   5.368  0.00  0.00    +0.016 C 
ATOM     10  H   UNL     1     -34.439  23.909   1.145  0.00  0.00    +0.149 HD
ATOM     11  H   UNL     1     -37.011  22.252   3.846  0.00  0.00    +0.149 HD
ENDROOT
BRANCH   4  14
ATOM     12  N   UNL     1     -32.929  28.177   4.444  0.00  0.00    -0.296 N 
ATOM     13  N   UNL     1     -32.544  27.102   6.401  0.00  0.00    -0.228 NA
ATOM     14  C   UNL     1     -33.148  27.087   5.237  0.00  0.00    +0.132 C 
ATOM     15  C   UNL     1     -32.068  29.114   5.103  0.00  0.00    +0.084 C 
ATOM     16  C   UNL     1     -31.792  28.391   6.424  0.00  0.00    +0.116 C 
ATOM     17  H   UNL     1     -33.311  28.303   3.545  0.00  0.00    +0.154 HD
ENDBRANCH   4  14
BRANCH   7  19
ATOM     18  S   UNL     1     -36.853  20.323   1.629  0.00  0.00    -0.088 S 
ATOM     19  C   UNL     1     -36.302  21.893   1.214  0.00  0.00    +0.044 C 
ATOM     20  C   UNL     1     -37.150  19.930  -0.012  0.00  0.00    +0.029 C 
ATOM     21  C   UNL     1     -36.346  22.106  -0.150  0.00  0.00    +0.006 C 
ATOM     22  C   UNL     1     -36.837  20.971  -0.857  0.00  0.00    +0.007 C 
BRANCH  20  24
ATOM     23  C   UNL     1     -38.675  16.096  -0.954  0.00  0.00    +0.032 C 
ATOM     24  C   UNL     1     -37.671  18.622  -0.333  0.00  0.00    +0.006 C 
ATOM     25  C   UNL     1     -39.348  17.240  -1.385  0.00  0.00    +0.003 C 
ATOM     26  C   UNL     1     -37.499  16.217  -0.213  0.00  0.00    +0.003 C 
ATOM     27  C   UNL     1     -38.845  18.503  -1.075  0.00  0.00    +0.001 C 
ATOM     28  C   UNL     1     -36.997  17.480   0.098  0.00  0.00    +0.001 C 
BRANCH  23  31
ATOM     29  N   UNL     1     -40.535  14.539  -1.422  0.00  0.00    -0.296 N 
ATOM     30  N   UNL     1     -38.416  13.740  -1.450  0.00  0.00    -0.228 NA
ATOM     31  C   UNL     1     -39.198  14.778  -1.278  0.00  0.00    +0.132 C 
ATOM     32  C   UNL     1     -40.769  13.164  -1.747  0.00  0.00    +0.084 C 
ATOM     33  C   UNL     1     -39.341  12.611  -1.757  0.00  0.00    +0.116 C 
ATOM     34  H   UNL     1     -41.241  15.218  -1.319  0.00  0.00    +0.154 HD
ENDBRANCH  23  31
ENDBRANCH  20  24
ENDBRANCH   7  19
TORSDOF 4
ENDMDL
MODEL 5
REMARK VINA RESULT:      -6.8      4.913     11.277
REMARK  Name = 5459362
REMARK  4 active torsions:
REMARK  status: ('A' for Active; 'I' for Inactive)
REMARK    1  A    between atoms: C_4  and  C_14
REMARK    2  A    between atoms: C_7  and  C_19
REMARK    3  A    between atoms: C_20  and  C_24
REMARK    4  A    between atoms: C_23  and  C_31
REMARK                            x       y       z     vdW  Elec       q    Type
REMARK                         _______ _______ _______ _____ _____    ______ ____
ROOT
ATOM      1  N   UNL     1     -35.616  19.205   0.739  0.00  0.00    -0.314 N 
ATOM      2  N   UNL     1     -37.806  19.403   0.420  0.00  0.00    -0.314 N 
ATOM      3  C   UNL     1     -35.977  18.110  -0.002  0.00  0.00    +0.059 C 
ATOM      4  C   UNL     1     -35.956  16.078  -1.238  0.00  0.00    +0.033 C 
ATOM      5  C   UNL     1     -37.349  18.256  -0.188  0.00  0.00    +0.059 C 
ATOM      6  C   UNL     1     -35.245  17.037  -0.511  0.00  0.00    +0.018 C 
ATOM      7  C   UNL     1     -36.742  19.947   0.965  0.00  0.00    +0.174 C 
ATOM      8  C   UNL     1     -37.333  16.197  -1.442  0.00  0.00    +0.004 C 
ATOM      9  C   UNL     1     -38.048  17.283  -0.922  0.00  0.00    +0.016 C 
ATOM     10  H   UNL     1     -34.708  19.421   1.052  0.00  0.00    +0.149 HD
ATOM     11  H   UNL     1     -38.730  19.742   0.441  0.00  0.00    +0.149 HD
ENDROOT
BRANCH   4  14
ATOM     12  N   UNL     1     -34.443  14.135  -1.032  0.00  0.00    -0.296 N 
ATOM     13  N   UNL     1     -35.336  14.606  -3.060  0.00  0.00    -0.228 NA
ATOM     14  C   UNL     1     -35.246  14.935  -1.793  0.00  0.00    +0.132 C 
ATOM     15  C   UNL     1     -33.878  13.086  -1.827  0.00  0.00    +0.084 C 
ATOM     16  C   UNL     1     -34.467  13.403  -3.204  0.00  0.00    +0.116 C 
ATOM     17  H   UNL     1     -34.276  14.261  -0.069  0.00  0.00    +0.154 HD
ENDBRANCH   4  14
BRANCH   7  19
ATOM     18  S   UNL     1     -35.263  21.946   2.080  0.00  0.00    -0.088 S 
ATOM     19  C   UNL     1     -36.736  21.154   1.702  0.00  0.00    +0.044 C 
ATOM     20  C   UNL     1     -36.082  23.203   2.906  0.00  0.00    +0.029 C 
ATOM     21  C   UNL     1     -37.827  21.840   2.199  0.00  0.00    +0.006 C 
ATOM     22  C   UNL     1     -37.448  23.024   2.895  0.00  0.00    +0.007 C 
BRANCH  20  24
ATOM     23  C   UNL     1     -33.817  26.324   4.648  0.00  0.00    +0.032 C 
ATOM     24  C   UNL     1     -35.309  24.268   3.500  0.00  0.00    +0.006 C 
ATOM     25  C   UNL     1     -33.616  25.979   3.312  0.00  0.00    +0.003 C 
ATOM     26  C   UNL     1     -34.765  25.641   5.410  0.00  0.00    +0.003 C 
ATOM     27  C   UNL     1     -34.363  24.951   2.738  0.00  0.00    +0.001 C 
ATOM     28  C   UNL     1     -35.511  24.612   4.836  0.00  0.00    +0.001 C 
BRANCH  23  31
ATOM     29  N   UNL     1     -32.739  28.546   4.572  0.00  0.00    -0.296 N 
ATOM     30  N   UNL     1     -32.579  27.325   6.474  0.00  0.00    -0.228 NA
ATOM     31  C   UNL     1     -33.039  27.397   5.248  0.00  0.00    +0.132 C 
ATOM     32  C   UNL     1     -31.973  29.431   5.398  0.00  0.00    +0.084 C 
ATOM     33  C   UNL     1     -31.850  28.609   6.685  0.00  0.00    +0.116 C 
ATOM     34  H   UNL     1     -33.012  28.739   3.647  0.00  0.00    +0.154 HD
ENDBRANCH  23  31
ENDBRANCH  20  24
ENDBRANCH   7  19
TORSDOF 4
ENDMDL
MODEL 6
REMARK VINA RESULT:      -6.7      9.408     13.419
REMARK  Name = 5459362
REMARK  4 active torsions:
REMARK  status: ('A' for Active; 'I' for Inactive)
REMARK    1  A    between atoms: C_4  and  C_14
REMARK    2  A    between atoms: C_7  and  C_19
REMARK    3  A    between atoms: C_20  and  C_24
REMARK    4  A    between atoms: C_23  and  C_31
REMARK                            x       y       z     vdW  Elec       q    Type
REMARK                         _______ _______ _______ _____ _____    ______ ____
ROOT
ATOM      1  N   UNL     1     -34.933  28.176   3.347  0.00  0.00    -0.314 N 
ATOM      2  N   UNL     1     -36.422  28.177   1.697  0.00  0.00    -0.314 N 
ATOM      3  C   UNL     1     -35.445  26.905   3.317  0.00  0.00    +0.059 C 
ATOM      4  C   UNL     1     -35.911  24.617   3.768  0.00  0.00    +0.033 C 
ATOM      5  C   UNL     1     -36.373  26.931   2.279  0.00  0.00    +0.059 C 
ATOM      6  C   UNL     1     -35.185  25.769   4.083  0.00  0.00    +0.018 C 
ATOM      7  C   UNL     1     -35.547  28.898   2.361  0.00  0.00    +0.174 C 
ATOM      8  C   UNL     1     -36.849  24.611   2.732  0.00  0.00    +0.004 C 
ATOM      9  C   UNL     1     -37.093  25.763   1.975  0.00  0.00    +0.016 C 
ATOM     10  H   UNL     1     -34.245  28.510   3.967  0.00  0.00    +0.149 HD
ATOM     11  H   UNL     1     -36.990  28.465   0.947  0.00  0.00    +0.149 HD
ENDROOT
BRANCH   4  14
ATOM     12  N   UNL     1     -35.747  23.373   5.897  0.00  0.00    -0.296 N 
ATOM     13  N   UNL     1     -35.402  22.255   3.957  0.00  0.00    -0.228 NA
ATOM     14  C   UNL     1     -35.683  23.400   4.533  0.00  0.00    +0.132 C 
ATOM     15  C   UNL     1     -35.491  22.052   6.388  0.00  0.00    +0.084 C 
ATOM     16  C   UNL     1     -35.244  21.290   5.083  0.00  0.00    +0.116 C 
ATOM     17  H   UNL     1     -35.944  24.154   6.465  0.00  0.00    +0.154 HD
ENDBRANCH   4  14
BRANCH   7  19
ATOM     18  S   UNL     1     -33.885  31.011   2.808  0.00  0.00    -0.088 S 
ATOM     19  C   UNL     1     -35.257  30.258   2.106  0.00  0.00    +0.044 C 
ATOM     20  C   UNL     1     -34.247  32.506   2.054  0.00  0.00    +0.029 C 
ATOM     21  C   UNL     1     -35.972  31.135   1.314  0.00  0.00    +0.006 C 
ATOM     22  C   UNL     1     -35.387  32.433   1.285  0.00  0.00    +0.007 C 
BRANCH  20  24
ATOM     23  C   UNL     1     -31.687  35.809   2.725  0.00  0.00    +0.032 C 
ATOM     24  C   UNL     1     -33.374  33.633   2.283  0.00  0.00    +0.006 C 
ATOM     25  C   UNL     1     -32.926  35.999   2.112  0.00  0.00    +0.003 C 
ATOM     26  C   UNL     1     -31.293  34.529   3.118  0.00  0.00    +0.003 C 
ATOM     27  C   UNL     1     -33.770  34.911   1.891  0.00  0.00    +0.001 C 
ATOM     28  C   UNL     1     -32.137  33.441   2.896  0.00  0.00    +0.001 C 
BRANCH  23  31
ATOM     29  N   UNL     1     -31.075  38.187   2.460  0.00  0.00    -0.296 N 
ATOM     30  N   UNL     1     -29.703  36.839   3.657  0.00  0.00    -0.228 NA
ATOM     31  C   UNL     1     -30.808  36.943   2.956  0.00  0.00    +0.132 C 
ATOM     32  C   UNL     1     -30.053  39.114   2.844  0.00  0.00    +0.084 C 
ATOM     33  C   UNL     1     -29.113  38.208   3.645  0.00  0.00    +0.116 C 
ATOM     34  H   UNL     1     -31.862  38.416   1.914  0.00  0.00    +0.154 HD
ENDBRANCH  23  31
ENDBRANCH  20  24
ENDBRANCH   7  19
TORSDOF 4
ENDMDL
MODEL 7
REMARK VINA RESULT:      -6.7      5.057     10.876
REMARK  Name = 5459362
REMARK  4 active torsions:
REMARK  status: ('A' for Active; 'I' for Inactive)
REMARK    1  A    between atoms: C_4  and  C_14
REMARK    2  A    between atoms: C_7  and  C_19
REMARK    3  A    between atoms: C_20  and  C_24
REMARK    4  A    between atoms: C_23  and  C_31
REMARK                            x       y       z     vdW  Elec       q    Type
REMARK                         _______ _______ _______ _____ _____    ______ ____
ROOT
ATOM      1  N   UNL     1     -37.781  19.293   0.547  0.00  0.00    -0.314 N 
ATOM      2  N   UNL     1     -35.577  19.157   0.794  0.00  0.00    -0.314 N 
ATOM      3  C   UNL     1     -37.414  18.134  -0.086  0.00  0.00    +0.059 C 
ATOM      4  C   UNL     1     -37.428  16.089  -1.301  0.00  0.00    +0.033 C 
ATOM      5  C   UNL     1     -36.033  18.071   0.082  0.00  0.00    +0.059 C 
ATOM      6  C   UNL     1     -38.147  17.163  -0.769  0.00  0.00    +0.018 C 
ATOM      7  C   UNL     1     -36.650  19.868   1.057  0.00  0.00    +0.174 C 
ATOM      8  C   UNL     1     -36.041  15.998  -1.149  0.00  0.00    +0.004 C 
ATOM      9  C   UNL     1     -35.326  16.984  -0.459  0.00  0.00    +0.016 C 
ATOM     10  H   UNL     1     -38.696  19.648   0.623  0.00  0.00    +0.149 HD
ATOM     11  H   UNL     1     -34.648  19.357   1.050  0.00  0.00    +0.149 HD
ENDROOT
BRANCH   4  14
ATOM     12  N   UNL     1     -38.333  13.799  -1.502  0.00  0.00    -0.296 N 
ATOM     13  N   UNL     1     -38.634  15.241  -3.223  0.00  0.00    -0.228 NA
ATOM     14  C   UNL     1     -38.138  15.045  -2.024  0.00  0.00    +0.132 C 
ATOM     15  C   UNL     1     -39.065  12.977  -2.419  0.00  0.00    +0.084 C 
ATOM     16  C   UNL     1     -39.264  13.940  -3.593  0.00  0.00    +0.116 C 
ATOM     17  H   UNL     1     -38.015  13.505  -0.618  0.00  0.00    +0.154 HD
ENDBRANCH   4  14
BRANCH   7  19
ATOM     18  S   UNL     1     -35.196  21.881   2.179  0.00  0.00    -0.088 S 
ATOM     19  C   UNL     1     -36.660  21.084   1.778  0.00  0.00    +0.044 C 
ATOM     20  C   UNL     1     -36.034  23.147   2.972  0.00  0.00    +0.029 C 
ATOM     21  C   UNL     1     -37.762  21.774   2.243  0.00  0.00    +0.006 C 
ATOM     22  C   UNL     1     -37.399  22.967   2.932  0.00  0.00    +0.007 C 
BRANCH  20  24
ATOM     23  C   UNL     1     -33.809  26.291   4.725  0.00  0.00    +0.032 C 
ATOM     24  C   UNL     1     -35.275  24.220   3.570  0.00  0.00    +0.006 C 
ATOM     25  C   UNL     1     -34.718  25.566   5.496  0.00  0.00    +0.003 C 
ATOM     26  C   UNL     1     -33.632  25.979   3.377  0.00  0.00    +0.003 C 
ATOM     27  C   UNL     1     -35.452  24.530   4.918  0.00  0.00    +0.001 C 
ATOM     28  C   UNL     1     -34.366  24.943   2.799  0.00  0.00    +0.001 C 
BRANCH  23  31
ATOM     29  N   UNL     1     -32.852  28.569   4.698  0.00  0.00    -0.296 N 
ATOM     30  N   UNL     1     -32.490  27.259   6.511  0.00  0.00    -0.228 NA
ATOM     31  C   UNL     1     -33.043  27.372   5.327  0.00  0.00    +0.132 C 
ATOM     32  C   UNL     1     -32.072  29.448   5.516  0.00  0.00    +0.084 C 
ATOM     33  C   UNL     1     -31.812  28.567   6.742  0.00  0.00    +0.116 C 
ATOM     34  H   UNL     1     -33.203  28.796   3.807  0.00  0.00    +0.154 HD
ENDBRANCH  23  31
ENDBRANCH  20  24
ENDBRANCH   7  19
TORSDOF 4
ENDMDL
MODEL 8
REMARK VINA RESULT:      -6.7      6.623      9.077
REMARK  Name = 5459362
REMARK  4 active torsions:
REMARK  status: ('A' for Active; 'I' for Inactive)
REMARK    1  A    between atoms: C_4  and  C_14
REMARK    2  A    between atoms: C_7  and  C_19
REMARK    3  A    between atoms: C_20  and  C_24
REMARK    4  A    between atoms: C_23  and  C_31
REMARK                            x       y       z     vdW  Elec       q    Type
REMARK                         _______ _______ _______ _____ _____    ______ ____
ROOT
ATOM      1  N   UNL     1     -33.330  27.134   4.066  0.00  0.00    -0.314 N 
ATOM      2  N   UNL     1     -33.408  26.682   6.240  0.00  0.00    -0.314 N 
ATOM      3  C   UNL     1     -32.555  28.091   4.666  0.00  0.00    +0.059 C 
ATOM      4  C   UNL     1     -31.134  29.954   5.079  0.00  0.00    +0.033 C 
ATOM      5  C   UNL     1     -32.619  27.788   6.023  0.00  0.00    +0.059 C 
ATOM      6  C   UNL     1     -31.823  29.164   4.154  0.00  0.00    +0.018 C 
ATOM      7  C   UNL     1     -33.818  26.315   5.047  0.00  0.00    +0.174 C 
ATOM      8  C   UNL     1     -31.179  29.674   6.448  0.00  0.00    +0.004 C 
ATOM      9  C   UNL     1     -31.919  28.592   6.938  0.00  0.00    +0.016 C 
ATOM     10  H   UNL     1     -33.505  27.049   3.101  0.00  0.00    +0.149 HD
ATOM     11  H   UNL     1     -33.620  26.257   7.102  0.00  0.00    +0.149 HD
ENDROOT
BRANCH   4  14
ATOM     12  N   UNL     1     -30.797  31.914   3.614  0.00  0.00    -0.296 N 
ATOM     13  N   UNL     1     -29.176  31.381   5.105  0.00  0.00    -0.228 NA
ATOM     14  C   UNL     1     -30.354  31.087   4.606  0.00  0.00    +0.132 C 
ATOM     15  C   UNL     1     -29.839  32.946   3.353  0.00  0.00    +0.084 C 
ATOM     16  C   UNL     1     -28.732  32.588   4.349  0.00  0.00    +0.116 C 
ATOM     17  H   UNL     1     -31.657  31.816   3.144  0.00  0.00    +0.154 HD
ENDBRANCH   4  14
BRANCH   7  19
ATOM     18  S   UNL     1     -35.535  25.105   3.311  0.00  0.00    -0.088 S 
ATOM     19  C   UNL     1     -34.661  25.211   4.783  0.00  0.00    +0.044 C 
ATOM     20  C   UNL     1     -36.232  23.608   3.766  0.00  0.00    +0.029 C 
ATOM     21  C   UNL     1     -34.901  24.124   5.600  0.00  0.00    +0.006 C 
ATOM     22  C   UNL     1     -35.809  23.198   5.010  0.00  0.00    +0.007 C 
BRANCH  20  24
ATOM     23  C   UNL     1     -38.903  21.699   1.094  0.00  0.00    +0.032 C 
ATOM     24  C   UNL     1     -37.143  22.956   2.854  0.00  0.00    +0.006 C 
ATOM     25  C   UNL     1     -37.620  21.184   1.285  0.00  0.00    +0.003 C 
ATOM     26  C   UNL     1     -39.305  22.842   1.785  0.00  0.00    +0.003 C 
ATOM     27  C   UNL     1     -36.740  21.813   2.165  0.00  0.00    +0.001 C 
ATOM     28  C   UNL     1     -38.425  23.472   2.665  0.00  0.00    +0.001 C 
BRANCH  23  31
ATOM     29  N   UNL     1     -39.389  20.220  -0.824  0.00  0.00    -0.296 N 
ATOM     30  N   UNL     1     -41.121  21.203   0.257  0.00  0.00    -0.228 NA
ATOM     31  C   UNL     1     -39.821  21.043   0.177  0.00  0.00    +0.132 C 
ATOM     32  C   UNL     1     -40.500  19.705  -1.567  0.00  0.00    +0.084 C 
ATOM     33  C   UNL     1     -41.676  20.374  -0.851  0.00  0.00    +0.116 C 
ATOM     34  H   UNL     1     -38.445  20.009  -1.008  0.00  0.00    +0.154 HD
ENDBRANCH  23  31
ENDBRANCH  20  24
ENDBRANCH   7  19
TORSDOF 4
ENDMDL
MODEL 9
REMARK VINA RESULT:      -6.6      2.014     12.553
REMARK  Name = 5459362
REMARK  4 active torsions:
REMARK  status: ('A' for Active; 'I' for Inactive)
REMARK    1  A    between atoms: C_4  and  C_14
REMARK    2  A    between atoms: C_7  and  C_19
REMARK    3  A    between atoms: C_20  and  C_24
REMARK    4  A    between atoms: C_23  and  C_31
REMARK                            x       y       z     vdW  Elec       q    Type
REMARK                         _______ _______ _______ _____ _____    ______ ____
ROOT
ATOM      1  N   UNL     1     -38.588  22.419   1.160  0.00  0.00    -0.314 N 
ATOM      2  N   UNL     1     -38.010  23.417   3.060  0.00  0.00    -0.314 N 
ATOM      3  C   UNL     1     -37.443  21.786   1.572  0.00  0.00    +0.059 C 
ATOM      4  C   UNL     1     -35.560  20.342   1.730  0.00  0.00    +0.033 C 
ATOM      5  C   UNL     1     -37.102  22.427   2.759  0.00  0.00    +0.059 C 
ATOM      6  C   UNL     1     -36.700  20.740   1.025  0.00  0.00    +0.018 C 
ATOM      7  C   UNL     1     -38.886  23.384   2.082  0.00  0.00    +0.174 C 
ATOM      8  C   UNL     1     -35.192  20.966   2.926  0.00  0.00    +0.004 C 
ATOM      9  C   UNL     1     -35.954  22.013   3.456  0.00  0.00    +0.016 C 
ATOM     10  H   UNL     1     -39.103  22.214   0.347  0.00  0.00    +0.149 HD
ATOM     11  H   UNL     1     -38.004  24.018   3.839  0.00  0.00    +0.149 HD
ENDROOT
BRANCH   4  14
ATOM     12  N   UNL     1     -35.229  18.341   0.319  0.00  0.00    -0.296 N 
ATOM     13  N   UNL     1     -33.492  19.090   1.566  0.00  0.00    -0.228 NA
ATOM     14  C   UNL     1     -34.744  19.255   1.209  0.00  0.00    +0.132 C 
ATOM     15  C   UNL     1     -34.215  17.392  -0.032  0.00  0.00    +0.084 C 
ATOM     16  C   UNL     1     -33.038  17.883   0.816  0.00  0.00    +0.116 C 
ATOM     17  H   UNL     1     -36.148  18.336  -0.035  0.00  0.00    +0.154 HD
ENDBRANCH   4  14
BRANCH   7  19
ATOM     18  S   UNL     1     -40.274  25.496   3.103  0.00  0.00    -0.088 S 
ATOM     19  C   UNL     1     -40.011  24.234   1.972  0.00  0.00    +0.044 C 
ATOM     20  C   UNL     1     -41.713  25.983   2.313  0.00  0.00    +0.029 C 
ATOM     21  C   UNL     1     -41.005  24.190   1.014  0.00  0.00    +0.006 C 
ATOM     22  C   UNL     1     -41.988  25.202   1.213  0.00  0.00    +0.007 C 
BRANCH  20  24
ATOM     23  C   UNL     1     -43.894  29.259   3.871  0.00  0.00    +0.032 C 
ATOM     24  C   UNL     1     -42.457  27.101   2.844  0.00  0.00    +0.006 C 
ATOM     25  C   UNL     1     -44.307  28.645   2.689  0.00  0.00    +0.003 C 
ATOM     26  C   UNL     1     -42.762  28.793   4.540  0.00  0.00    +0.003 C 
ATOM     27  C   UNL     1     -43.589  27.565   2.175  0.00  0.00    +0.001 C 
ATOM     28  C   UNL     1     -42.043  27.714   4.026  0.00  0.00    +0.001 C 
BRANCH  23  31
ATOM     29  N   UNL     1     -45.993  30.509   4.238  0.00  0.00    -0.296 N 
ATOM     30  N   UNL     1     -44.066  31.348   5.085  0.00  0.00    -0.228 NA
ATOM     31  C   UNL     1     -44.643  30.384   4.407  0.00  0.00    +0.132 C 
ATOM     32  C   UNL     1     -46.472  31.701   4.872  0.00  0.00    +0.084 C 
ATOM     33  C   UNL     1     -45.173  32.282   5.439  0.00  0.00    +0.116 C 
ATOM     34  H   UNL     1     -46.558  29.868   3.750  0.00  0.00    +0.154 HD
ENDBRANCH  23  31
ENDBRANCH  20  24
ENDBRANCH   7  19
TORSDOF 4
ENDMDL
