MODEL 1
REMARK VINA RESULT:      -6.0      0.000      0.000
REMARK  Name = 5323
REMARK  5 active torsions:
REMARK  status: ('A' for Active; 'I' for Inactive)
REMARK    1  A    between atoms: S_1  and  C_4
REMARK    2  A    between atoms: S_1  and  N_13
REMARK    3  A    between atoms: C_7  and  N_10
REMARK    4  A    between atoms: C_19  and  O_21
REMARK    5  A    between atoms: C_20  and  O_23
REMARK                            x       y       z     vdW  Elec       q    Type
REMARK                         _______ _______ _______ _____ _____    ______ ____
ROOT
ATOM      1  S   UNL     1     -34.703  21.078   0.762  0.00  0.00    +0.075 S 
ATOM      2  O   UNL     1     -35.703  20.510  -0.134  0.00  0.00    -0.150 OA
ATOM      3  O   UNL     1     -34.267  22.452   0.546  0.00  0.00    -0.150 OA
ENDROOT
BRANCH   1   4
ATOM      4  N   UNL     1     -35.272  20.901   2.378  0.00  0.00    -0.191 N 
ATOM      5  H   UNL     1     -35.120  20.070   2.881  0.00  0.00    +0.176 HD
ATOM      6  N   UNL     1     -37.178  22.291   2.438  0.00  0.00    -0.299 NA
ATOM      7  N   UNL     1     -37.373  24.082   4.039  0.00  0.00    -0.278 NA
ATOM      8  C   UNL     1     -35.978  22.007   2.972  0.00  0.00    +0.201 C 
ATOM      9  C   UNL     1     -35.407  22.692   4.019  0.00  0.00    +0.177 C 
ATOM     10  C   UNL     1     -36.161  23.734   4.519  0.00  0.00    +0.275 C 
ATOM     11  C   UNL     1     -37.814  23.329   3.013  0.00  0.00    +0.314 C 
BRANCH  10  12
ATOM     12  O   UNL     1     -35.670  24.472   5.564  0.00  0.00    -0.450 OA
ATOM     13  C   UNL     1     -35.909  25.874   5.527  0.00  0.00    +0.255 C 
ENDBRANCH  10  12
BRANCH  11  14
ATOM     14  O   UNL     1     -39.049  23.654   2.498  0.00  0.00    -0.395 OA
ATOM     15  C   UNL     1     -39.699  24.779   3.072  0.00  0.00    +0.271 C 
ENDBRANCH  11  14
ENDBRANCH   1   4
BRANCH   1  16
ATOM     16  C   UNL     1     -33.303  20.035   0.727  0.00  0.00    +0.125 C 
ATOM     17  C   UNL     1     -33.329  18.811   1.395  0.00  0.00    +0.021 C 
ATOM     18  C   UNL     1     -32.159  20.427   0.033  0.00  0.00    +0.021 C 
ATOM     19  C   UNL     1     -31.066  18.370   0.674  0.00  0.00    +0.042 C 
ATOM     20  C   UNL     1     -32.211  17.978   1.368  0.00  0.00    +0.015 C 
ATOM     21  C   UNL     1     -31.040  19.595   0.007  0.00  0.00    +0.015 C 
BRANCH  19  22
ATOM     22  N   UNL     1     -29.935  17.528   0.647  0.00  0.00    -0.357 N 
ATOM     23  H   UNL     1     -29.542  17.260  -0.215  0.00  0.00    +0.142 HD
ATOM     24  H   UNL     1     -29.538  17.210   1.490  0.00  0.00    +0.142 HD
ENDBRANCH  19  22
ENDBRANCH   1  16
TORSDOF 5
ENDMDL
MODEL 2
REMARK VINA RESULT:      -5.9      1.503      1.810
REMARK  Name = 5323
REMARK  5 active torsions:
REMARK  status: ('A' for Active; 'I' for Inactive)
REMARK    1  A    between atoms: S_1  and  C_4
REMARK    2  A    between atoms: S_1  and  N_13
REMARK    3  A    between atoms: C_7  and  N_10
REMARK    4  A    between atoms: C_19  and  O_21
REMARK    5  A    between atoms: C_20  and  O_23
REMARK                            x       y       z     vdW  Elec       q    Type
REMARK                         _______ _______ _______ _____ _____    ______ ____
ROOT
ATOM      1  S   UNL     1     -36.218  20.833   1.054  0.00  0.00    +0.075 S 
ATOM      2  O   UNL     1     -37.480  20.412   0.458  0.00  0.00    -0.150 OA
ATOM      3  O   UNL     1     -35.600  22.068   0.590  0.00  0.00    -0.150 OA
ENDROOT
BRANCH   1   4
ATOM      4  N   UNL     1     -36.430  20.900   2.762  0.00  0.00    -0.191 N 
ATOM      5  H   UNL     1     -36.480  20.077   3.300  0.00  0.00    +0.176 HD
ATOM      6  N   UNL     1     -37.635  22.903   3.081  0.00  0.00    -0.299 NA
ATOM      7  N   UNL     1     -36.799  24.654   4.510  0.00  0.00    -0.278 NA
ATOM      8  C   UNL     1     -36.532  22.196   3.381  0.00  0.00    +0.201 C 
ATOM      9  C   UNL     1     -35.531  22.629   4.217  0.00  0.00    +0.177 C 
ATOM     10  C   UNL     1     -35.720  23.883   4.761  0.00  0.00    +0.275 C 
ATOM     11  C   UNL     1     -37.703  24.110   3.674  0.00  0.00    +0.314 C 
BRANCH  10  12
ATOM     12  O   UNL     1     -34.772  24.395   5.607  0.00  0.00    -0.450 OA
ATOM     13  C   UNL     1     -34.604  25.808   5.602  0.00  0.00    +0.255 C 
ENDBRANCH  10  12
BRANCH  11  14
ATOM     14  O   UNL     1     -38.818  24.868   3.396  0.00  0.00    -0.395 OA
ATOM     15  C   UNL     1     -38.626  25.992   2.550  0.00  0.00    +0.271 C 
ENDBRANCH  11  14
ENDBRANCH   1   4
BRANCH   1  16
ATOM     16  C   UNL     1     -35.075  19.527   0.856  0.00  0.00    +0.125 C 
ATOM     17  C   UNL     1     -33.891  19.519   1.593  0.00  0.00    +0.021 C 
ATOM     18  C   UNL     1     -35.346  18.494  -0.040  0.00  0.00    +0.021 C 
ATOM     19  C   UNL     1     -33.249  17.443   0.537  0.00  0.00    +0.042 C 
ATOM     20  C   UNL     1     -32.978  18.477   1.434  0.00  0.00    +0.015 C 
ATOM     21  C   UNL     1     -34.433  17.452  -0.200  0.00  0.00    +0.015 C 
BRANCH  19  22
ATOM     22  N   UNL     1     -32.325  16.389   0.375  0.00  0.00    -0.357 N 
ATOM     23  H   UNL     1     -32.428  15.756  -0.371  0.00  0.00    +0.142 HD
ATOM     24  H   UNL     1     -31.578  16.288   1.009  0.00  0.00    +0.142 HD
ENDBRANCH  19  22
ENDBRANCH   1  16
TORSDOF 5
ENDMDL
MODEL 3
REMARK VINA RESULT:      -5.9      4.236      5.981
REMARK  Name = 5323
REMARK  5 active torsions:
REMARK  status: ('A' for Active; 'I' for Inactive)
REMARK    1  A    between atoms: S_1  and  C_4
REMARK    2  A    between atoms: S_1  and  N_13
REMARK    3  A    between atoms: C_7  and  N_10
REMARK    4  A    between atoms: C_19  and  O_21
REMARK    5  A    between atoms: C_20  and  O_23
REMARK                            x       y       z     vdW  Elec       q    Type
REMARK                         _______ _______ _______ _____ _____    ______ ____
ROOT
ATOM      1  S   UNL     1     -36.450  25.896   3.005  0.00  0.00    +0.075 S 
ATOM      2  O   UNL     1     -36.430  25.597   1.578  0.00  0.00    -0.150 OA
ATOM      3  O   UNL     1     -35.622  26.986   3.505  0.00  0.00    -0.150 OA
ENDROOT
BRANCH   1   4
ATOM      4  N   UNL     1     -38.087  26.152   3.475  0.00  0.00    -0.191 N 
ATOM      5  H   UNL     1     -38.311  26.733   4.237  0.00  0.00    +0.176 HD
ATOM      6  N   UNL     1     -39.157  24.152   2.827  0.00  0.00    -0.299 NA
ATOM      7  N   UNL     1     -41.040  24.169   1.323  0.00  0.00    -0.278 NA
ATOM      8  C   UNL     1     -39.119  25.491   2.720  0.00  0.00    +0.201 C 
ATOM      9  C   UNL     1     -39.982  26.238   1.954  0.00  0.00    +0.177 C 
ATOM     10  C   UNL     1     -40.936  25.513   1.267  0.00  0.00    +0.275 C 
ATOM     11  C   UNL     1     -40.132  23.562   2.110  0.00  0.00    +0.314 C 
BRANCH  10  12
ATOM     12  O   UNL     1     -41.840  26.176   0.479  0.00  0.00    -0.450 OA
ATOM     13  C   UNL     1     -42.480  27.308   1.054  0.00  0.00    +0.255 C 
ENDBRANCH  10  12
BRANCH  11  14
ATOM     14  O   UNL     1     -40.209  22.189   2.192  0.00  0.00    -0.395 OA
ATOM     15  C   UNL     1     -39.041  21.466   1.834  0.00  0.00    +0.271 C 
ENDBRANCH  11  14
ENDBRANCH   1   4
BRANCH   1  16
ATOM     16  C   UNL     1     -36.025  24.433   3.860  0.00  0.00    +0.125 C 
ATOM     17  C   UNL     1     -35.892  23.232   3.165  0.00  0.00    +0.021 C 
ATOM     18  C   UNL     1     -35.821  24.467   5.240  0.00  0.00    +0.021 C 
ATOM     19  C   UNL     1     -35.350  22.098   5.227  0.00  0.00    +0.042 C 
ATOM     20  C   UNL     1     -35.554  22.064   3.848  0.00  0.00    +0.015 C 
ATOM     21  C   UNL     1     -35.484  23.299   5.923  0.00  0.00    +0.015 C 
BRANCH  19  22
ATOM     22  N   UNL     1     -35.009  20.917   5.919  0.00  0.00    -0.357 N 
ATOM     23  H   UNL     1     -35.715  20.360   6.318  0.00  0.00    +0.142 HD
ATOM     24  H   UNL     1     -34.064  20.650   6.001  0.00  0.00    +0.142 HD
ENDBRANCH  19  22
ENDBRANCH   1  16
TORSDOF 5
ENDMDL
MODEL 4
REMARK VINA RESULT:      -5.9      1.347      2.633
REMARK  Name = 5323
REMARK  5 active torsions:
REMARK  status: ('A' for Active; 'I' for Inactive)
REMARK    1  A    between atoms: S_1  and  C_4
REMARK    2  A    between atoms: S_1  and  N_13
REMARK    3  A    between atoms: C_7  and  N_10
REMARK    4  A    between atoms: C_19  and  O_21
REMARK    5  A    between atoms: C_20  and  O_23
REMARK                            x       y       z     vdW  Elec       q    Type
REMARK                         _______ _______ _______ _____ _____    ______ ____
ROOT
ATOM      1  S   UNL     1     -35.330  20.585   1.372  0.00  0.00    +0.075 S 
ATOM      2  O   UNL     1     -35.663  20.125   2.716  0.00  0.00    -0.150 OA
ATOM      3  O   UNL     1     -36.235  20.262   0.276  0.00  0.00    -0.150 OA
ENDROOT
BRANCH   1   4
ATOM      4  N   UNL     1     -35.086  22.289   1.436  0.00  0.00    -0.191 N 
ATOM      5  H   UNL     1     -34.473  22.737   0.811  0.00  0.00    +0.176 HD
ATOM      6  N   UNL     1     -35.453  22.805   3.709  0.00  0.00    -0.299 NA
ATOM      7  N   UNL     1     -37.117  24.415   4.375  0.00  0.00    -0.278 NA
ATOM      8  C   UNL     1     -35.805  23.038   2.433  0.00  0.00    +0.201 C 
ATOM      9  C   UNL     1     -36.781  23.924   2.042  0.00  0.00    +0.177 C 
ATOM     10  C   UNL     1     -37.413  24.593   3.071  0.00  0.00    +0.275 C 
ATOM     11  C   UNL     1     -36.142  23.520   4.618  0.00  0.00    +0.314 C 
BRANCH  10  12
ATOM     12  O   UNL     1     -38.399  25.497   2.773  0.00  0.00    -0.450 OA
ATOM     13  C   UNL     1     -39.742  25.057   2.940  0.00  0.00    +0.255 C 
ENDBRANCH  10  12
BRANCH  11  14
ATOM     14  O   UNL     1     -35.813  23.313   5.939  0.00  0.00    -0.395 OA
ATOM     15  C   UNL     1     -35.394  22.002   6.291  0.00  0.00    +0.271 C 
ENDBRANCH  11  14
ENDBRANCH   1   4
BRANCH   1  16
ATOM     16  C   UNL     1     -33.740  19.979   0.982  0.00  0.00    +0.125 C 
ATOM     17  C   UNL     1     -33.330  18.735   1.461  0.00  0.00    +0.021 C 
ATOM     18  C   UNL     1     -32.878  20.741   0.193  0.00  0.00    +0.021 C 
ATOM     19  C   UNL     1     -31.198  19.013   0.361  0.00  0.00    +0.042 C 
ATOM     20  C   UNL     1     -32.059  18.252   1.150  0.00  0.00    +0.015 C 
ATOM     21  C   UNL     1     -31.607  20.258  -0.117  0.00  0.00    +0.015 C 
BRANCH  19  22
ATOM     22  N   UNL     1     -29.912  18.526   0.047  0.00  0.00    -0.357 N 
ATOM     23  H   UNL     1     -29.331  18.177   0.760  0.00  0.00    +0.142 HD
ATOM     24  H   UNL     1     -29.597  18.535  -0.887  0.00  0.00    +0.142 HD
ENDBRANCH  19  22
ENDBRANCH   1  16
TORSDOF 5
ENDMDL
MODEL 5
REMARK VINA RESULT:      -5.8      4.742      6.084
REMARK  Name = 5323
REMARK  5 active torsions:
REMARK  status: ('A' for Active; 'I' for Inactive)
REMARK    1  A    between atoms: S_1  and  C_4
REMARK    2  A    between atoms: S_1  and  N_13
REMARK    3  A    between atoms: C_7  and  N_10
REMARK    4  A    between atoms: C_19  and  O_21
REMARK    5  A    between atoms: C_20  and  O_23
REMARK                            x       y       z     vdW  Elec       q    Type
REMARK                         _______ _______ _______ _____ _____    ______ ____
ROOT
ATOM      1  S   UNL     1     -38.102  26.081   2.484  0.00  0.00    +0.075 S 
ATOM      2  O   UNL     1     -39.472  26.577   2.507  0.00  0.00    -0.150 OA
ATOM      3  O   UNL     1     -37.113  26.785   1.677  0.00  0.00    -0.150 OA
ENDROOT
BRANCH   1   4
ATOM      4  N   UNL     1     -37.546  25.971   4.111  0.00  0.00    -0.191 N 
ATOM      5  H   UNL     1     -38.117  26.250   4.862  0.00  0.00    +0.176 HD
ATOM      6  N   UNL     1     -35.210  26.232   3.906  0.00  0.00    -0.299 NA
ATOM      7  N   UNL     1     -33.686  24.560   4.736  0.00  0.00    -0.278 NA
ATOM      8  C   UNL     1     -36.221  25.459   4.340  0.00  0.00    +0.201 C 
ATOM      9  C   UNL     1     -36.061  24.247   4.969  0.00  0.00    +0.177 C 
ATOM     10  C   UNL     1     -34.753  23.842   5.142  0.00  0.00    +0.275 C 
ATOM     11  C   UNL     1     -33.983  25.727   4.134  0.00  0.00    +0.314 C 
BRANCH  10  12
ATOM     12  O   UNL     1     -34.500  22.646   5.762  0.00  0.00    -0.450 OA
ATOM     13  C   UNL     1     -35.590  22.032   6.438  0.00  0.00    +0.255 C 
ENDBRANCH  10  12
BRANCH  11  14
ATOM     14  O   UNL     1     -32.918  26.488   3.707  0.00  0.00    -0.395 OA
ATOM     15  C   UNL     1     -32.839  27.812   4.215  0.00  0.00    +0.271 C 
ENDBRANCH  11  14
ENDBRANCH   1   4
BRANCH   1  16
ATOM     16  C   UNL     1     -38.150  24.410   1.977  0.00  0.00    +0.125 C 
ATOM     17  C   UNL     1     -37.198  23.926   1.080  0.00  0.00    +0.021 C 
ATOM     18  C   UNL     1     -39.142  23.561   2.467  0.00  0.00    +0.021 C 
ATOM     19  C   UNL     1     -38.229  21.743   1.165  0.00  0.00    +0.042 C 
ATOM     20  C   UNL     1     -37.237  22.592   0.674  0.00  0.00    +0.015 C 
ATOM     21  C   UNL     1     -39.182  22.228   2.061  0.00  0.00    +0.015 C 
BRANCH  19  22
ATOM     22  N   UNL     1     -38.270  20.394   0.754  0.00  0.00    -0.357 N 
ATOM     23  H   UNL     1     -38.378  20.174  -0.199  0.00  0.00    +0.142 HD
ATOM     24  H   UNL     1     -38.190  19.674   1.421  0.00  0.00    +0.142 HD
ENDBRANCH  19  22
ENDBRANCH   1  16
TORSDOF 5
ENDMDL
MODEL 6
REMARK VINA RESULT:      -5.8      5.885      8.373
REMARK  Name = 5323
REMARK  5 active torsions:
REMARK  status: ('A' for Active; 'I' for Inactive)
REMARK    1  A    between atoms: S_1  and  C_4
REMARK    2  A    between atoms: S_1  and  N_13
REMARK    3  A    between atoms: C_7  and  N_10
REMARK    4  A    between atoms: C_19  and  O_21
REMARK    5  A    between atoms: C_20  and  O_23
REMARK                            x       y       z     vdW  Elec       q    Type
REMARK                         _______ _______ _______ _____ _____    ______ ____
ROOT
ATOM      1  S   UNL     1     -33.458  27.124   3.981  0.00  0.00    +0.075 S 
ATOM      2  O   UNL     1     -34.481  28.037   3.484  0.00  0.00    -0.150 OA
ATOM      3  O   UNL     1     -32.254  26.919   3.186  0.00  0.00    -0.150 OA
ENDROOT
BRANCH   1   4
ATOM      4  N   UNL     1     -33.022  27.625   5.571  0.00  0.00    -0.191 N 
ATOM      5  H   UNL     1     -33.518  27.305   6.358  0.00  0.00    +0.176 HD
ATOM      6  N   UNL     1     -32.095  29.768   5.229  0.00  0.00    -0.299 NA
ATOM      7  N   UNL     1     -29.856  30.293   5.947  0.00  0.00    -0.278 NA
ATOM      8  C   UNL     1     -31.910  28.528   5.714  0.00  0.00    +0.201 C 
ATOM      9  C   UNL     1     -30.755  28.091   6.319  0.00  0.00    +0.177 C 
ATOM     10  C   UNL     1     -29.748  29.030   6.409  0.00  0.00    +0.275 C 
ATOM     11  C   UNL     1     -31.039  30.590   5.377  0.00  0.00    +0.314 C 
BRANCH  10  12
ATOM     12  O   UNL     1     -28.561  28.682   6.998  0.00  0.00    -0.450 OA
ATOM     13  C   UNL     1     -28.243  27.296   7.027  0.00  0.00    +0.255 C 
ENDBRANCH  10  12
BRANCH  11  14
ATOM     14  O   UNL     1     -31.186  31.871   4.896  0.00  0.00    -0.395 OA
ATOM     15  C   UNL     1     -31.578  31.997   3.536  0.00  0.00    +0.271 C 
ENDBRANCH  11  14
ENDBRANCH   1   4
BRANCH   1  16
ATOM     16  C   UNL     1     -34.216  25.575   4.257  0.00  0.00    +0.125 C 
ATOM     17  C   UNL     1     -34.451  24.714   3.187  0.00  0.00    +0.021 C 
ATOM     18  C   UNL     1     -34.587  25.201   5.549  0.00  0.00    +0.021 C 
ATOM     19  C   UNL     1     -35.429  23.103   4.698  0.00  0.00    +0.042 C 
ATOM     20  C   UNL     1     -35.058  23.477   3.407  0.00  0.00    +0.015 C 
ATOM     21  C   UNL     1     -35.194  23.965   5.769  0.00  0.00    +0.015 C 
BRANCH  19  22
ATOM     22  N   UNL     1     -36.044  21.853   4.922  0.00  0.00    -0.357 N 
ATOM     23  H   UNL     1     -36.641  21.730   5.694  0.00  0.00    +0.142 HD
ATOM     24  H   UNL     1     -35.875  21.104   4.304  0.00  0.00    +0.142 HD
ENDBRANCH  19  22
ENDBRANCH   1  16
TORSDOF 5
ENDMDL
MODEL 7
REMARK VINA RESULT:      -5.7      4.173      5.426
REMARK  Name = 5323
REMARK  5 active torsions:
REMARK  status: ('A' for Active; 'I' for Inactive)
REMARK    1  A    between atoms: S_1  and  C_4
REMARK    2  A    between atoms: S_1  and  N_13
REMARK    3  A    between atoms: C_7  and  N_10
REMARK    4  A    between atoms: C_19  and  O_21
REMARK    5  A    between atoms: C_20  and  O_23
REMARK                            x       y       z     vdW  Elec       q    Type
REMARK                         _______ _______ _______ _____ _____    ______ ____
ROOT
ATOM      1  S   UNL     1     -35.845  22.089   3.212  0.00  0.00    +0.075 S 
ATOM      2  O   UNL     1     -34.898  22.797   2.359  0.00  0.00    -0.150 OA
ATOM      3  O   UNL     1     -35.452  20.808   3.785  0.00  0.00    -0.150 OA
ENDROOT
BRANCH   1   4
ATOM      4  N   UNL     1     -36.336  23.158   4.470  0.00  0.00    -0.191 N 
ATOM      5  H   UNL     1     -36.980  22.872   5.156  0.00  0.00    +0.176 HD
ATOM      6  N   UNL     1     -36.144  25.289   3.476  0.00  0.00    -0.299 NA
ATOM      7  N   UNL     1     -34.759  27.005   4.449  0.00  0.00    -0.278 NA
ATOM      8  C   UNL     1     -35.775  24.484   4.487  0.00  0.00    +0.201 C 
ATOM      9  C   UNL     1     -34.922  24.846   5.502  0.00  0.00    +0.177 C 
ATOM     10  C   UNL     1     -34.438  26.137   5.430  0.00  0.00    +0.275 C 
ATOM     11  C   UNL     1     -35.605  26.522   3.519  0.00  0.00    +0.314 C 
BRANCH  10  12
ATOM     12  O   UNL     1     -33.580  26.584   6.401  0.00  0.00    -0.450 OA
ATOM     13  C   UNL     1     -32.584  27.515   5.996  0.00  0.00    +0.255 C 
ENDBRANCH  10  12
BRANCH  11  14
ATOM     14  O   UNL     1     -35.956  27.382   2.502  0.00  0.00    -0.395 OA
ATOM     15  C   UNL     1     -37.069  27.001   1.705  0.00  0.00    +0.271 C 
ENDBRANCH  11  14
ENDBRANCH   1   4
BRANCH   1  16
ATOM     16  C   UNL     1     -37.317  21.864   2.298  0.00  0.00    +0.125 C 
ATOM     17  C   UNL     1     -37.366  20.915   1.278  0.00  0.00    +0.021 C 
ATOM     18  C   UNL     1     -38.442  22.635   2.588  0.00  0.00    +0.021 C 
ATOM     19  C   UNL     1     -39.666  21.507   0.838  0.00  0.00    +0.042 C 
ATOM     20  C   UNL     1     -38.541  20.736   0.548  0.00  0.00    +0.015 C 
ATOM     21  C   UNL     1     -39.617  22.457   1.858  0.00  0.00    +0.015 C 
BRANCH  19  22
ATOM     22  N   UNL     1     -40.855  21.328   0.099  0.00  0.00    -0.357 N 
ATOM     23  H   UNL     1     -41.614  21.939   0.234  0.00  0.00    +0.142 HD
ATOM     24  H   UNL     1     -40.923  20.591  -0.551  0.00  0.00    +0.142 HD
ENDBRANCH  19  22
ENDBRANCH   1  16
TORSDOF 5
ENDMDL
MODEL 8
REMARK VINA RESULT:      -5.6      3.962      5.855
REMARK  Name = 5323
REMARK  5 active torsions:
REMARK  status: ('A' for Active; 'I' for Inactive)
REMARK    1  A    between atoms: S_1  and  C_4
REMARK    2  A    between atoms: S_1  and  N_13
REMARK    3  A    between atoms: C_7  and  N_10
REMARK    4  A    between atoms: C_19  and  O_21
REMARK    5  A    between atoms: C_20  and  O_23
REMARK                            x       y       z     vdW  Elec       q    Type
REMARK                         _______ _______ _______ _____ _____    ______ ____
ROOT
ATOM      1  S   UNL     1     -35.713  23.412   4.325  0.00  0.00    +0.075 S 
ATOM      2  O   UNL     1     -35.140  22.676   5.447  0.00  0.00    -0.150 OA
ATOM      3  O   UNL     1     -36.759  24.391   4.590  0.00  0.00    -0.150 OA
ENDROOT
BRANCH   1   4
ATOM      4  N   UNL     1     -34.423  24.165   3.467  0.00  0.00    -0.191 N 
ATOM      5  H   UNL     1     -33.903  23.668   2.795  0.00  0.00    +0.176 HD
ATOM      6  N   UNL     1     -33.632  25.787   4.987  0.00  0.00    -0.299 NA
ATOM      7  N   UNL     1     -33.543  28.121   4.393  0.00  0.00    -0.278 NA
ATOM      8  C   UNL     1     -34.127  25.542   3.761  0.00  0.00    +0.201 C 
ATOM      9  C   UNL     1     -34.358  26.504   2.806  0.00  0.00    +0.177 C 
ATOM     10  C   UNL     1     -34.043  27.794   3.184  0.00  0.00    +0.275 C 
ATOM     11  C   UNL     1     -33.365  27.083   5.233  0.00  0.00    +0.314 C 
BRANCH  10  12
ATOM     12  O   UNL     1     -34.240  28.817   2.294  0.00  0.00    -0.450 OA
ATOM     13  C   UNL     1     -34.663  30.063   2.835  0.00  0.00    +0.255 C 
ENDBRANCH  10  12
BRANCH  11  14
ATOM     14  O   UNL     1     -32.855  27.379   6.477  0.00  0.00    -0.395 OA
ATOM     15  C   UNL     1     -31.906  28.434   6.538  0.00  0.00    +0.271 C 
ENDBRANCH  11  14
ENDBRANCH   1   4
BRANCH   1  16
ATOM     16  C   UNL     1     -36.316  22.245   3.175  0.00  0.00    +0.125 C 
ATOM     17  C   UNL     1     -37.571  22.423   2.595  0.00  0.00    +0.021 C 
ATOM     18  C   UNL     1     -35.542  21.135   2.838  0.00  0.00    +0.021 C 
ATOM     19  C   UNL     1     -37.280  20.379   1.340  0.00  0.00    +0.042 C 
ATOM     20  C   UNL     1     -38.054  21.490   1.677  0.00  0.00    +0.015 C 
ATOM     21  C   UNL     1     -36.024  20.202   1.920  0.00  0.00    +0.015 C 
BRANCH  19  22
ATOM     22  N   UNL     1     -37.767  19.435   0.412  0.00  0.00    -0.357 N 
ATOM     23  H   UNL     1     -38.632  18.993   0.569  0.00  0.00    +0.142 HD
ATOM     24  H   UNL     1     -37.242  19.219  -0.393  0.00  0.00    +0.142 HD
ENDBRANCH  19  22
ENDBRANCH   1  16
TORSDOF 5
ENDMDL
MODEL 9
REMARK VINA RESULT:      -5.6      4.800      8.123
REMARK  Name = 5323
REMARK  5 active torsions:
REMARK  status: ('A' for Active; 'I' for Inactive)
REMARK    1  A    between atoms: S_1  and  C_4
REMARK    2  A    between atoms: S_1  and  N_13
REMARK    3  A    between atoms: C_7  and  N_10
REMARK    4  A    between atoms: C_19  and  O_21
REMARK    5  A    between atoms: C_20  and  O_23
REMARK                            x       y       z     vdW  Elec       q    Type
REMARK                         _______ _______ _______ _____ _____    ______ ____
ROOT
ATOM      1  S   UNL     1     -33.322  27.021   4.649  0.00  0.00    +0.075 S 
ATOM      2  O   UNL     1     -32.837  26.893   6.019  0.00  0.00    -0.150 OA
ATOM      3  O   UNL     1     -32.820  26.098   3.639  0.00  0.00    -0.150 OA
ENDROOT
BRANCH   1   4
ATOM      4  N   UNL     1     -35.043  26.960   4.684  0.00  0.00    -0.191 N 
ATOM      5  H   UNL     1     -35.576  27.770   4.848  0.00  0.00    +0.176 HD
ATOM      6  N   UNL     1     -35.493  24.766   5.426  0.00  0.00    -0.299 NA
ATOM      7  N   UNL     1     -36.849  23.257   4.125  0.00  0.00    -0.278 NA
ATOM      8  C   UNL     1     -35.679  25.687   4.465  0.00  0.00    +0.201 C 
ATOM      9  C   UNL     1     -36.418  25.486   3.323  0.00  0.00    +0.177 C 
ATOM     10  C   UNL     1     -36.988  24.234   3.205  0.00  0.00    +0.275 C 
ATOM     11  C   UNL     1     -36.100  23.586   5.194  0.00  0.00    +0.314 C 
BRANCH  10  12
ATOM     12  O   UNL     1     -37.743  23.946   2.099  0.00  0.00    -0.450 OA
ATOM     13  C   UNL     1     -38.468  22.722   2.120  0.00  0.00    +0.255 C 
ENDBRANCH  10  12
BRANCH  11  14
ATOM     14  O   UNL     1     -35.937  22.613   6.154  0.00  0.00    -0.395 OA
ATOM     15  C   UNL     1     -34.820  21.750   6.000  0.00  0.00    +0.271 C 
ENDBRANCH  11  14
ENDBRANCH   1   4
BRANCH   1  16
ATOM     16  C   UNL     1     -33.002  28.655   4.122  0.00  0.00    +0.125 C 
ATOM     17  C   UNL     1     -32.096  29.449   4.823  0.00  0.00    +0.021 C 
ATOM     18  C   UNL     1     -33.655  29.165   3.000  0.00  0.00    +0.021 C 
ATOM     19  C   UNL     1     -32.494  31.265   3.281  0.00  0.00    +0.042 C 
ATOM     20  C   UNL     1     -31.841  30.754   4.403  0.00  0.00    +0.015 C 
ATOM     21  C   UNL     1     -33.401  30.470   2.579  0.00  0.00    +0.015 C 
BRANCH  19  22
ATOM     22  N   UNL     1     -32.238  32.585   2.855  0.00  0.00    -0.357 N 
ATOM     23  H   UNL     1     -32.708  32.949   2.071  0.00  0.00    +0.142 HD
ATOM     24  H   UNL     1     -31.589  33.143   3.344  0.00  0.00    +0.142 HD
ENDBRANCH  19  22
ENDBRANCH   1  16
TORSDOF 5
ENDMDL
