MODEL 1
REMARK VINA RESULT:      -6.0      0.000      0.000
REMARK  Name = 196474
REMARK  9 active torsions:
REMARK  status: ('A' for Active; 'I' for Inactive)
REMARK    1  A    between atoms: N_1  and  CA_4
REMARK    2  A    between atoms: N_1  and  C_15
REMARK    3  A    between atoms: CA_4  and  C_6
REMARK    4  A    between atoms: CA_4  and  CB_9
REMARK    5  A    between atoms: C_6  and  O_7
REMARK    6  A    between atoms: CB_9  and  CG_10
REMARK    7  A    between atoms: CG_10  and  CD_12
REMARK    8  A    between atoms: CD_12  and  OE1_13
REMARK    9  A    between atoms: C_15  and  C_20
REMARK                            x       y       z     vdW  Elec       q    Type
REMARK                         _______ _______ _______ _____ _____    ______ ____
ROOT
ATOM      1  N   GLU A   1     -36.572  23.080   4.125  0.00  0.00    +0.395 N 
ATOM      2  H1  GLU A   1     -36.900  24.013   4.372  0.00  0.00    -0.083 HD
ATOM      3  H2  GLU A   1     -37.220  22.366   4.458  0.00  0.00    -0.083 HD
ENDROOT
BRANCH   1   4
ATOM      4  CA  GLU A   1     -35.292  22.852   4.746  0.00  0.00    +0.041 C 
BRANCH   4   6
ATOM      5  OXT GLU A   1     -36.019  22.037   6.922  0.00  0.00    -0.253 OA
ATOM      6  C   GLU A   1     -35.490  21.824   5.840  0.00  0.00    +0.293 C 
BRANCH   6   7
ATOM      7  O   GLU A   1     -35.038  20.596   5.470  0.00  0.00    -0.482 OA
ATOM      8  H   GLU A   1     -35.629  19.872   5.429  0.00  0.00    +0.295 HD
ENDBRANCH   6   7
ENDBRANCH   4   6
BRANCH   4   9
ATOM      9  CB  GLU A   1     -34.628  24.149   5.226  0.00  0.00    +0.001 C 
BRANCH   9  10
ATOM     10  CG  GLU A   1     -35.583  25.254   5.695  0.00  0.00    +0.108 C 
BRANCH  10  12
ATOM     11  OE2 GLU A   1     -35.133  27.153   4.236  0.00  0.00    -0.250 OA
ATOM     12  CD  GLU A   1     -35.897  26.282   4.628  0.00  0.00    +0.314 C 
BRANCH  12  13
ATOM     13  OE1 GLU A   1     -37.168  26.154   4.168  0.00  0.00    -0.480 OA
ATOM     14  HE1 GLU A   1     -37.891  26.244   4.757  0.00  0.00    +0.295 HD
ENDBRANCH  12  13
ENDBRANCH  10  12
ENDBRANCH   9  10
ENDBRANCH   4   9
ENDBRANCH   1   4
BRANCH   1  15
ATOM     15  C   UNK A   0     -36.487  22.977   2.668  0.00  0.00    -0.047 C 
BRANCH  15  20
ATOM     16  O   UNK A   0     -39.104  24.015   3.101  0.00  0.00    -0.270 OA
ATOM     17  O   UNK A   0     -41.133  20.801   0.484  0.00  0.00    -0.252 OA
ATOM     18  N   UNK A   0     -40.130  22.415   1.793  0.00  0.00    -0.236 N 
ATOM     19  N   UNK A   0     -38.847  20.765   0.746  0.00  0.00    -0.267 N 
ATOM     20  C   UNK A   0     -37.715  22.381   2.075  0.00  0.00    +0.025 C 
ATOM     21  C   UNK A   0     -39.028  23.024   2.381  0.00  0.00    +0.248 C 
ATOM     22  C   UNK A   0     -37.709  21.301   1.283  0.00  0.00    +0.063 C 
ATOM     23  C   UNK A   0     -40.111  21.288   0.969  0.00  0.00    +0.310 C 
ATOM     24  H   UNK A   0     -41.010  22.817   1.977  0.00  0.00    +0.159 HD
ATOM     25  H   UNK A   0     -38.764  19.970   0.173  0.00  0.00    +0.156 HD
ENDBRANCH  15  20
ENDBRANCH   1  15
TORSDOF 9
ENDMDL
MODEL 2
REMARK VINA RESULT:      -5.8      2.314      6.238
REMARK  Name = 196474
REMARK  9 active torsions:
REMARK  status: ('A' for Active; 'I' for Inactive)
REMARK    1  A    between atoms: N_1  and  CA_4
REMARK    2  A    between atoms: N_1  and  C_15
REMARK    3  A    between atoms: CA_4  and  C_6
REMARK    4  A    between atoms: CA_4  and  CB_9
REMARK    5  A    between atoms: C_6  and  O_7
REMARK    6  A    between atoms: CB_9  and  CG_10
REMARK    7  A    between atoms: CG_10  and  CD_12
REMARK    8  A    between atoms: CD_12  and  OE1_13
REMARK    9  A    between atoms: C_15  and  C_20
REMARK                            x       y       z     vdW  Elec       q    Type
REMARK                         _______ _______ _______ _____ _____    ______ ____
ROOT
ATOM      1  N   GLU A   1     -37.595  23.297   3.418  0.00  0.00    +0.395 N 
ATOM      2  H1  GLU A   1     -36.634  22.995   3.575  0.00  0.00    -0.083 HD
ATOM      3  H2  GLU A   1     -38.240  22.779   4.014  0.00  0.00    -0.083 HD
ENDROOT
BRANCH   1   4
ATOM      4  CA  GLU A   1     -37.948  23.043   2.044  0.00  0.00    +0.041 C 
BRANCH   4   6
ATOM      5  OXT GLU A   1     -40.362  22.853   1.791  0.00  0.00    -0.253 OA
ATOM      6  C   GLU A   1     -39.284  22.330   2.038  0.00  0.00    +0.293 C 
BRANCH   6   7
ATOM      7  O   GLU A   1     -39.152  21.004   2.307  0.00  0.00    -0.482 OA
ATOM      8  H   GLU A   1     -38.330  20.577   2.168  0.00  0.00    +0.295 HD
ENDBRANCH   6   7
ENDBRANCH   4   6
BRANCH   4   9
ATOM      9  CB  GLU A   1     -36.846  22.302   1.277  0.00  0.00    +0.001 C 
BRANCH   9  10
ATOM     10  CG  GLU A   1     -35.625  21.881   2.104  0.00  0.00    +0.108 C 
BRANCH  10  12
ATOM     11  OE2 GLU A   1     -34.452  19.747   1.997  0.00  0.00    -0.250 OA
ATOM     12  CD  GLU A   1     -35.469  20.381   2.242  0.00  0.00    +0.314 C 
BRANCH  12  13
ATOM     13  OE1 GLU A   1     -36.627  19.792   2.640  0.00  0.00    -0.480 OA
ATOM     14  HE1 GLU A   1     -36.987  19.084   2.144  0.00  0.00    +0.295 HD
ENDBRANCH  12  13
ENDBRANCH  10  12
ENDBRANCH   9  10
ENDBRANCH   4   9
ENDBRANCH   1   4
BRANCH   1  15
ATOM     15  C   UNK A   0     -37.707  24.718   3.747  0.00  0.00    -0.047 C 
BRANCH  15  20
ATOM     16  O   UNK A   0     -36.104  23.426   5.716  0.00  0.00    -0.270 OA
ATOM     17  O   UNK A   0     -32.906  26.752   5.722  0.00  0.00    -0.252 OA
ATOM     18  N   UNK A   0     -34.498  25.081   5.726  0.00  0.00    -0.236 N 
ATOM     19  N   UNK A   0     -34.730  26.943   4.332  0.00  0.00    -0.267 N 
ATOM     20  C   UNK A   0     -36.427  25.278   4.261  0.00  0.00    +0.025 C 
ATOM     21  C   UNK A   0     -35.683  24.499   5.294  0.00  0.00    +0.248 C 
ATOM     22  C   UNK A   0     -35.908  26.441   3.849  0.00  0.00    +0.063 C 
ATOM     23  C   UNK A   0     -33.966  26.296   5.289  0.00  0.00    +0.310 C 
ATOM     24  H   UNK A   0     -33.984  24.590   6.407  0.00  0.00    +0.159 HD
ATOM     25  H   UNK A   0     -34.411  27.805   3.982  0.00  0.00    +0.156 HD
ENDBRANCH  15  20
ENDBRANCH   1  15
TORSDOF 9
ENDMDL
MODEL 3
REMARK VINA RESULT:      -5.7      2.371      3.362
REMARK  Name = 196474
REMARK  9 active torsions:
REMARK  status: ('A' for Active; 'I' for Inactive)
REMARK    1  A    between atoms: N_1  and  CA_4
REMARK    2  A    between atoms: N_1  and  C_15
REMARK    3  A    between atoms: CA_4  and  C_6
REMARK    4  A    between atoms: CA_4  and  CB_9
REMARK    5  A    between atoms: C_6  and  O_7
REMARK    6  A    between atoms: CB_9  and  CG_10
REMARK    7  A    between atoms: CG_10  and  CD_12
REMARK    8  A    between atoms: CD_12  and  OE1_13
REMARK    9  A    between atoms: C_15  and  C_20
REMARK                            x       y       z     vdW  Elec       q    Type
REMARK                         _______ _______ _______ _____ _____    ______ ____
ROOT
ATOM      1  N   GLU A   1     -36.716  22.658   4.184  0.00  0.00    +0.395 N 
ATOM      2  H1  GLU A   1     -37.411  23.289   4.582  0.00  0.00    -0.083 HD
ATOM      3  H2  GLU A   1     -36.964  21.685   4.363  0.00  0.00    -0.083 HD
ENDROOT
BRANCH   1   4
ATOM      4  CA  GLU A   1     -35.439  22.919   4.798  0.00  0.00    +0.041 C 
BRANCH   4   6
ATOM      5  OXT GLU A   1     -35.158  22.106   7.076  0.00  0.00    -0.253 OA
ATOM      6  C   GLU A   1     -35.227  21.877   5.876  0.00  0.00    +0.293 C 
BRANCH   6   7
ATOM      7  O   GLU A   1     -35.156  20.621   5.360  0.00  0.00    -0.482 OA
ATOM      8  H   GLU A   1     -34.442  20.384   4.802  0.00  0.00    +0.295 HD
ENDBRANCH   6   7
ENDBRANCH   4   6
BRANCH   4   9
ATOM      9  CB  GLU A   1     -35.306  24.364   5.297  0.00  0.00    +0.001 C 
BRANCH   9  10
ATOM     10  CG  GLU A   1     -34.066  25.125   4.812  0.00  0.00    +0.108 C 
BRANCH  10  12
ATOM     11  OE2 GLU A   1     -33.377  27.454   5.024  0.00  0.00    -0.250 OA
ATOM     12  CD  GLU A   1     -34.247  26.629   4.781  0.00  0.00    +0.314 C 
BRANCH  12  13
ATOM     13  OE1 GLU A   1     -35.527  26.972   4.483  0.00  0.00    -0.480 OA
ATOM     14  HE1 GLU A   1     -35.711  27.471   3.711  0.00  0.00    +0.295 HD
ENDBRANCH  12  13
ENDBRANCH  10  12
ENDBRANCH   9  10
ENDBRANCH   4   9
ENDBRANCH   1   4
BRANCH   1  15
ATOM     15  C   UNK A   0     -36.667  22.859   2.736  0.00  0.00    -0.047 C 
BRANCH  15  20
ATOM     16  O   UNK A   0     -38.798  24.522   3.634  0.00  0.00    -0.270 OA
ATOM     17  O   UNK A   0     -37.242  28.237   1.382  0.00  0.00    -0.252 OA
ATOM     18  N   UNK A   0     -38.029  26.387   2.515  0.00  0.00    -0.236 N 
ATOM     19  N   UNK A   0     -36.076  26.259   1.237  0.00  0.00    -0.267 N 
ATOM     20  C   UNK A   0     -36.802  24.294   2.363  0.00  0.00    +0.025 C 
ATOM     21  C   UNK A   0     -37.967  25.054   2.903  0.00  0.00    +0.248 C 
ATOM     22  C   UNK A   0     -35.937  24.940   1.570  0.00  0.00    +0.063 C 
ATOM     23  C   UNK A   0     -37.121  27.050   1.687  0.00  0.00    +0.310 C 
ATOM     24  H   UNK A   0     -38.787  26.915   2.856  0.00  0.00    +0.159 HD
ATOM     25  H   UNK A   0     -35.400  26.666   0.648  0.00  0.00    +0.156 HD
ENDBRANCH  15  20
ENDBRANCH   1  15
TORSDOF 9
ENDMDL
MODEL 4
REMARK VINA RESULT:      -5.6      1.825      2.314
REMARK  Name = 196474
REMARK  9 active torsions:
REMARK  status: ('A' for Active; 'I' for Inactive)
REMARK    1  A    between atoms: N_1  and  CA_4
REMARK    2  A    between atoms: N_1  and  C_15
REMARK    3  A    between atoms: CA_4  and  C_6
REMARK    4  A    between atoms: CA_4  and  CB_9
REMARK    5  A    between atoms: C_6  and  O_7
REMARK    6  A    between atoms: CB_9  and  CG_10
REMARK    7  A    between atoms: CG_10  and  CD_12
REMARK    8  A    between atoms: CD_12  and  OE1_13
REMARK    9  A    between atoms: C_15  and  C_20
REMARK                            x       y       z     vdW  Elec       q    Type
REMARK                         _______ _______ _______ _____ _____    ______ ____
ROOT
ATOM      1  N   GLU A   1     -36.596  22.736   4.014  0.00  0.00    +0.395 N 
ATOM      2  H1  GLU A   1     -37.291  23.455   4.214  0.00  0.00    -0.083 HD
ATOM      3  H2  GLU A   1     -36.984  21.804   4.165  0.00  0.00    -0.083 HD
ENDROOT
BRANCH   1   4
ATOM      4  CA  GLU A   1     -35.474  22.907   4.902  0.00  0.00    +0.041 C 
BRANCH   4   6
ATOM      5  OXT GLU A   1     -36.176  21.878   6.994  0.00  0.00    -0.253 OA
ATOM      6  C   GLU A   1     -35.546  21.814   5.948  0.00  0.00    +0.293 C 
BRANCH   6   7
ATOM      7  O   GLU A   1     -34.848  20.709   5.574  0.00  0.00    -0.482 OA
ATOM      8  H   GLU A   1     -34.928  20.375   4.703  0.00  0.00    +0.295 HD
ENDBRANCH   6   7
ENDBRANCH   4   6
BRANCH   4   9
ATOM      9  CB  GLU A   1     -35.394  24.322   5.488  0.00  0.00    +0.001 C 
BRANCH   9  10
ATOM     10  CG  GLU A   1     -34.551  25.327   4.693  0.00  0.00    +0.108 C 
BRANCH  10  12
ATOM     11  OE2 GLU A   1     -34.776  27.598   3.838  0.00  0.00    -0.250 OA
ATOM     12  CD  GLU A   1     -35.236  26.660   4.475  0.00  0.00    +0.314 C 
BRANCH  12  13
ATOM     13  OE1 GLU A   1     -36.433  26.718   5.114  0.00  0.00    -0.480 OA
ATOM     14  HE1 GLU A   1     -37.049  27.388   4.894  0.00  0.00    +0.295 HD
ENDBRANCH  12  13
ENDBRANCH  10  12
ENDBRANCH   9  10
ENDBRANCH   4   9
ENDBRANCH   1   4
BRANCH   1  15
ATOM     15  C   UNK A   0     -36.193  22.842   2.612  0.00  0.00    -0.047 C 
BRANCH  15  20
ATOM     16  O   UNK A   0     -35.236  20.171   2.860  0.00  0.00    -0.270 OA
ATOM     17  O   UNK A   0     -38.047  18.544  -0.418  0.00  0.00    -0.252 OA
ATOM     18  N   UNK A   0     -36.638  19.345   1.225  0.00  0.00    -0.236 N 
ATOM     19  N   UNK A   0     -38.113  20.781   0.118  0.00  0.00    -0.267 N 
ATOM     20  C   UNK A   0     -36.703  21.708   1.793  0.00  0.00    +0.025 C 
ATOM     21  C   UNK A   0     -36.115  20.355   2.023  0.00  0.00    +0.248 C 
ATOM     22  C   UNK A   0     -37.656  21.834   0.862  0.00  0.00    +0.063 C 
ATOM     23  C   UNK A   0     -37.633  19.489   0.256  0.00  0.00    +0.310 C 
ATOM     24  H   UNK A   0     -36.270  18.441   1.354  0.00  0.00    +0.159 HD
ATOM     25  H   UNK A   0     -38.817  20.950  -0.549  0.00  0.00    +0.156 HD
ENDBRANCH  15  20
ENDBRANCH   1  15
TORSDOF 9
ENDMDL
MODEL 5
REMARK VINA RESULT:      -5.6      1.518      1.802
REMARK  Name = 196474
REMARK  9 active torsions:
REMARK  status: ('A' for Active; 'I' for Inactive)
REMARK    1  A    between atoms: N_1  and  CA_4
REMARK    2  A    between atoms: N_1  and  C_15
REMARK    3  A    between atoms: CA_4  and  C_6
REMARK    4  A    between atoms: CA_4  and  CB_9
REMARK    5  A    between atoms: C_6  and  O_7
REMARK    6  A    between atoms: CB_9  and  CG_10
REMARK    7  A    between atoms: CG_10  and  CD_12
REMARK    8  A    between atoms: CD_12  and  OE1_13
REMARK    9  A    between atoms: C_15  and  C_20
REMARK                            x       y       z     vdW  Elec       q    Type
REMARK                         _______ _______ _______ _____ _____    ______ ____
ROOT
ATOM      1  N   GLU A   1     -36.647  23.349   4.143  0.00  0.00    +0.395 N 
ATOM      2  H1  GLU A   1     -36.749  24.317   4.449  0.00  0.00    -0.083 HD
ATOM      3  H2  GLU A   1     -37.344  22.753   4.590  0.00  0.00    -0.083 HD
ENDROOT
BRANCH   1   4
ATOM      4  CA  GLU A   1     -35.340  22.874   4.518  0.00  0.00    +0.041 C 
BRANCH   4   6
ATOM      5  OXT GLU A   1     -36.041  22.156   6.736  0.00  0.00    -0.253 OA
ATOM      6  C   GLU A   1     -35.517  21.896   5.661  0.00  0.00    +0.293 C 
BRANCH   6   7
ATOM      7  O   GLU A   1     -35.055  20.658   5.346  0.00  0.00    -0.482 OA
ATOM      8  H   GLU A   1     -35.608  19.909   5.453  0.00  0.00    +0.295 HD
ENDBRANCH   6   7
ENDBRANCH   4   6
BRANCH   4   9
ATOM      9  CB  GLU A   1     -34.360  24.014   4.823  0.00  0.00    +0.001 C 
BRANCH   9  10
ATOM     10  CG  GLU A   1     -34.874  25.097   5.780  0.00  0.00    +0.108 C 
BRANCH  10  12
ATOM     11  OE2 GLU A   1     -34.624  27.141   4.476  0.00  0.00    -0.250 OA
ATOM     12  CD  GLU A   1     -35.342  26.356   5.081  0.00  0.00    +0.314 C 
BRANCH  12  13
ATOM     13  OE1 GLU A   1     -36.677  26.548   5.237  0.00  0.00    -0.480 OA
ATOM     14  HE1 GLU A   1     -37.013  27.410   5.382  0.00  0.00    +0.295 HD
ENDBRANCH  12  13
ENDBRANCH  10  12
ENDBRANCH   9  10
ENDBRANCH   4   9
ENDBRANCH   1   4
BRANCH   1  15
ATOM     15  C   UNK A   0     -36.848  23.285   2.696  0.00  0.00    -0.047 C 
BRANCH  15  20
ATOM     16  O   UNK A   0     -37.911  25.927   2.732  0.00  0.00    -0.270 OA
ATOM     17  O   UNK A   0     -42.074  24.591   1.259  0.00  0.00    -0.252 OA
ATOM     18  N   UNK A   0     -39.996  25.272   1.993  0.00  0.00    -0.236 N 
ATOM     19  N   UNK A   0     -40.423  23.016   1.553  0.00  0.00    -0.267 N 
ATOM     20  C   UNK A   0     -38.248  23.612   2.308  0.00  0.00    +0.025 C 
ATOM     21  C   UNK A   0     -38.679  25.040   2.370  0.00  0.00    +0.248 C 
ATOM     22  C   UNK A   0     -39.140  22.698   1.906  0.00  0.00    +0.063 C 
ATOM     23  C   UNK A   0     -40.918  24.310   1.577  0.00  0.00    +0.310 C 
ATOM     24  H   UNK A   0     -40.309  26.205   2.024  0.00  0.00    +0.159 HD
ATOM     25  H   UNK A   0     -41.023  22.290   1.268  0.00  0.00    +0.156 HD
ENDBRANCH  15  20
ENDBRANCH   1  15
TORSDOF 9
ENDMDL
MODEL 6
REMARK VINA RESULT:      -5.5      1.697      2.254
REMARK  Name = 196474
REMARK  9 active torsions:
REMARK  status: ('A' for Active; 'I' for Inactive)
REMARK    1  A    between atoms: N_1  and  CA_4
REMARK    2  A    between atoms: N_1  and  C_15
REMARK    3  A    between atoms: CA_4  and  C_6
REMARK    4  A    between atoms: CA_4  and  CB_9
REMARK    5  A    between atoms: C_6  and  O_7
REMARK    6  A    between atoms: CB_9  and  CG_10
REMARK    7  A    between atoms: CG_10  and  CD_12
REMARK    8  A    between atoms: CD_12  and  OE1_13
REMARK    9  A    between atoms: C_15  and  C_20
REMARK                            x       y       z     vdW  Elec       q    Type
REMARK                         _______ _______ _______ _____ _____    ______ ____
ROOT
ATOM      1  N   GLU A   1     -36.961  22.923   3.878  0.00  0.00    +0.395 N 
ATOM      2  H1  GLU A   1     -37.478  23.446   4.585  0.00  0.00    -0.083 HD
ATOM      3  H2  GLU A   1     -37.375  22.002   3.734  0.00  0.00    -0.083 HD
ENDROOT
BRANCH   1   4
ATOM      4  CA  GLU A   1     -35.604  22.743   4.326  0.00  0.00    +0.041 C 
BRANCH   4   6
ATOM      5  OXT GLU A   1     -35.226  20.488   3.487  0.00  0.00    -0.253 OA
ATOM      6  C   GLU A   1     -35.351  21.253   4.434  0.00  0.00    +0.293 C 
BRANCH   6   7
ATOM      7  O   GLU A   1     -35.237  20.850   5.727  0.00  0.00    -0.482 OA
ATOM      8  H   GLU A   1     -35.337  21.470   6.422  0.00  0.00    +0.295 HD
ENDBRANCH   6   7
ENDBRANCH   4   6
BRANCH   4   9
ATOM      9  CB  GLU A   1     -35.297  23.518   5.614  0.00  0.00    +0.001 C 
BRANCH   9  10
ATOM     10  CG  GLU A   1     -34.522  24.829   5.434  0.00  0.00    +0.108 C 
BRANCH  10  12
ATOM     11  OE2 GLU A   1     -35.008  27.088   4.658  0.00  0.00    -0.250 OA
ATOM     12  CD  GLU A   1     -35.400  26.017   5.100  0.00  0.00    +0.314 C 
BRANCH  12  13
ATOM     13  OE1 GLU A   1     -36.704  25.772   5.391  0.00  0.00    -0.480 OA
ATOM     14  HE1 GLU A   1     -37.044  25.986   6.238  0.00  0.00    +0.295 HD
ENDBRANCH  12  13
ENDBRANCH  10  12
ENDBRANCH   9  10
ENDBRANCH   4   9
ENDBRANCH   1   4
BRANCH   1  15
ATOM     15  C   UNK A   0     -37.016  23.653   2.612  0.00  0.00    -0.047 C 
BRANCH  15  20
ATOM     16  O   UNK A   0     -38.859  21.530   2.160  0.00  0.00    -0.270 OA
ATOM     17  O   UNK A   0     -42.262  24.363   0.862  0.00  0.00    -0.252 OA
ATOM     18  N   UNK A   0     -40.569  22.936   1.512  0.00  0.00    -0.236 N 
ATOM     19  N   UNK A   0     -40.224  25.248   1.462  0.00  0.00    -0.267 N 
ATOM     20  C   UNK A   0     -38.413  23.865   2.145  0.00  0.00    +0.025 C 
ATOM     21  C   UNK A   0     -39.278  22.664   1.948  0.00  0.00    +0.248 C 
ATOM     22  C   UNK A   0     -38.938  25.070   1.892  0.00  0.00    +0.063 C 
ATOM     23  C   UNK A   0     -41.104  24.199   1.250  0.00  0.00    +0.310 C 
ATOM     24  H   UNK A   0     -41.163  22.164   1.373  0.00  0.00    +0.159 HD
ATOM     25  H   UNK A   0     -40.539  26.165   1.296  0.00  0.00    +0.156 HD
ENDBRANCH  15  20
ENDBRANCH   1  15
TORSDOF 9
ENDMDL
MODEL 7
REMARK VINA RESULT:      -5.5      3.071      7.014
REMARK  Name = 196474
REMARK  9 active torsions:
REMARK  status: ('A' for Active; 'I' for Inactive)
REMARK    1  A    between atoms: N_1  and  CA_4
REMARK    2  A    between atoms: N_1  and  C_15
REMARK    3  A    between atoms: CA_4  and  C_6
REMARK    4  A    between atoms: CA_4  and  CB_9
REMARK    5  A    between atoms: C_6  and  O_7
REMARK    6  A    between atoms: CB_9  and  CG_10
REMARK    7  A    between atoms: CG_10  and  CD_12
REMARK    8  A    between atoms: CD_12  and  OE1_13
REMARK    9  A    between atoms: C_15  and  C_20
REMARK                            x       y       z     vdW  Elec       q    Type
REMARK                         _______ _______ _______ _____ _____    ______ ____
ROOT
ATOM      1  N   GLU A   1     -34.474  23.931   4.886  0.00  0.00    +0.395 N 
ATOM      2  H1  GLU A   1     -34.024  24.232   4.022  0.00  0.00    -0.083 HD
ATOM      3  H2  GLU A   1     -33.808  23.458   5.497  0.00  0.00    -0.083 HD
ENDROOT
BRANCH   1   4
ATOM      4  CA  GLU A   1     -35.530  23.003   4.567  0.00  0.00    +0.041 C 
BRANCH   4   6
ATOM      5  OXT GLU A   1     -35.943  22.085   6.784  0.00  0.00    -0.253 OA
ATOM      6  C   GLU A   1     -35.539  21.933   5.639  0.00  0.00    +0.293 C 
BRANCH   6   7
ATOM      7  O   GLU A   1     -35.074  20.744   5.173  0.00  0.00    -0.482 OA
ATOM      8  H   GLU A   1     -34.648  20.702   4.339  0.00  0.00    +0.295 HD
ENDBRANCH   6   7
ENDBRANCH   4   6
BRANCH   4   9
ATOM      9  CB  GLU A   1     -35.421  22.451   3.140  0.00  0.00    +0.001 C 
BRANCH   9  10
ATOM     10  CG  GLU A   1     -36.752  22.189   2.423  0.00  0.00    +0.108 C 
BRANCH  10  12
ATOM     11  OE2 GLU A   1     -37.119  20.537   0.669  0.00  0.00    -0.250 OA
ATOM     12  CD  GLU A   1     -36.866  20.797   1.838  0.00  0.00    +0.314 C 
BRANCH  12  13
ATOM     13  OE1 GLU A   1     -36.693  19.840   2.786  0.00  0.00    -0.480 OA
ATOM     14  HE1 GLU A   1     -35.884  19.787   3.256  0.00  0.00    +0.295 HD
ENDBRANCH  12  13
ENDBRANCH  10  12
ENDBRANCH   9  10
ENDBRANCH   4   9
ENDBRANCH   1   4
BRANCH   1  15
ATOM     15  C   UNK A   0     -34.987  25.106   5.589  0.00  0.00    -0.047 C 
BRANCH  15  20
ATOM     16  O   UNK A   0     -34.298  26.673   3.313  0.00  0.00    -0.270 OA
ATOM     17  O   UNK A   0     -31.285  29.275   5.646  0.00  0.00    -0.252 OA
ATOM     18  N   UNK A   0     -32.791  27.982   4.469  0.00  0.00    -0.236 N 
ATOM     19  N   UNK A   0     -32.424  27.605   6.746  0.00  0.00    -0.267 N 
ATOM     20  C   UNK A   0     -33.995  26.216   5.626  0.00  0.00    +0.025 C 
ATOM     21  C   UNK A   0     -33.726  26.960   4.360  0.00  0.00    +0.248 C 
ATOM     22  C   UNK A   0     -33.332  26.583   6.729  0.00  0.00    +0.063 C 
ATOM     23  C   UNK A   0     -32.105  28.356   5.626  0.00  0.00    +0.310 C 
ATOM     24  H   UNK A   0     -32.593  28.491   3.650  0.00  0.00    +0.159 HD
ATOM     25  H   UNK A   0     -31.974  27.818   7.595  0.00  0.00    +0.156 HD
ENDBRANCH  15  20
ENDBRANCH   1  15
TORSDOF 9
ENDMDL
MODEL 8
REMARK VINA RESULT:      -5.4      3.246      3.919
REMARK  Name = 196474
REMARK  9 active torsions:
REMARK  status: ('A' for Active; 'I' for Inactive)
REMARK    1  A    between atoms: N_1  and  CA_4
REMARK    2  A    between atoms: N_1  and  C_15
REMARK    3  A    between atoms: CA_4  and  C_6
REMARK    4  A    between atoms: CA_4  and  CB_9
REMARK    5  A    between atoms: C_6  and  O_7
REMARK    6  A    between atoms: CB_9  and  CG_10
REMARK    7  A    between atoms: CG_10  and  CD_12
REMARK    8  A    between atoms: CD_12  and  OE1_13
REMARK    9  A    between atoms: C_15  and  C_20
REMARK                            x       y       z     vdW  Elec       q    Type
REMARK                         _______ _______ _______ _____ _____    ______ ____
ROOT
ATOM      1  N   GLU A   1     -35.885  21.327   3.280  0.00  0.00    +0.395 N 
ATOM      2  H1  GLU A   1     -36.882  21.392   3.075  0.00  0.00    -0.083 HD
ATOM      3  H2  GLU A   1     -35.666  20.447   3.748  0.00  0.00    -0.083 HD
ENDROOT
BRANCH   1   4
ATOM      4  CA  GLU A   1     -35.516  22.408   4.158  0.00  0.00    +0.041 C 
BRANCH   4   6
ATOM      5  OXT GLU A   1     -35.863  22.493   6.567  0.00  0.00    -0.253 OA
ATOM      6  C   GLU A   1     -35.515  21.869   5.574  0.00  0.00    +0.293 C 
BRANCH   6   7
ATOM      7  O   GLU A   1     -35.110  20.573   5.622  0.00  0.00    -0.482 OA
ATOM      8  H   GLU A   1     -34.196  20.366   5.603  0.00  0.00    +0.295 HD
ENDBRANCH   6   7
ENDBRANCH   4   6
BRANCH   4   9
ATOM      9  CB  GLU A   1     -36.394  23.652   3.969  0.00  0.00    +0.001 C 
BRANCH   9  10
ATOM     10  CG  GLU A   1     -35.644  24.980   3.806  0.00  0.00    +0.108 C 
BRANCH  10  12
ATOM     11  OE2 GLU A   1     -34.535  25.628   5.878  0.00  0.00    -0.250 OA
ATOM     12  CD  GLU A   1     -35.473  25.746   5.101  0.00  0.00    +0.314 C 
BRANCH  12  13
ATOM     13  OE1 GLU A   1     -36.524  26.575   5.334  0.00  0.00    -0.480 OA
ATOM     14  HE1 GLU A   1     -36.418  27.502   5.250  0.00  0.00    +0.295 HD
ENDBRANCH  12  13
ENDBRANCH  10  12
ENDBRANCH   9  10
ENDBRANCH   4   9
ENDBRANCH   1   4
BRANCH   1  15
ATOM     15  C   UNK A   0     -35.137  21.376   2.025  0.00  0.00    -0.047 C 
BRANCH  15  20
ATOM     16  O   UNK A   0     -37.189  19.994   0.613  0.00  0.00    -0.270 OA
ATOM     17  O   UNK A   0     -34.534  16.319  -0.244  0.00  0.00    -0.252 OA
ATOM     18  N   UNK A   0     -35.871  18.153   0.176  0.00  0.00    -0.236 N 
ATOM     19  N   UNK A   0     -33.661  18.091   0.937  0.00  0.00    -0.267 N 
ATOM     20  C   UNK A   0     -34.955  20.026   1.425  0.00  0.00    +0.025 C 
ATOM     21  C   UNK A   0     -36.113  19.412   0.710  0.00  0.00    +0.248 C 
ATOM     22  C   UNK A   0     -33.812  19.331   1.493  0.00  0.00    +0.063 C 
ATOM     23  C   UNK A   0     -34.674  17.437   0.253  0.00  0.00    +0.310 C 
ATOM     24  H   UNK A   0     -36.616  17.722  -0.302  0.00  0.00    +0.159 HD
ATOM     25  H   UNK A   0     -32.791  17.640   1.028  0.00  0.00    +0.156 HD
ENDBRANCH  15  20
ENDBRANCH   1  15
TORSDOF 9
ENDMDL
MODEL 9
REMARK VINA RESULT:      -5.3      2.609      3.633
REMARK  Name = 196474
REMARK  9 active torsions:
REMARK  status: ('A' for Active; 'I' for Inactive)
REMARK    1  A    between atoms: N_1  and  CA_4
REMARK    2  A    between atoms: N_1  and  C_15
REMARK    3  A    between atoms: CA_4  and  C_6
REMARK    4  A    between atoms: CA_4  and  CB_9
REMARK    5  A    between atoms: C_6  and  O_7
REMARK    6  A    between atoms: CB_9  and  CG_10
REMARK    7  A    between atoms: CG_10  and  CD_12
REMARK    8  A    between atoms: CD_12  and  OE1_13
REMARK    9  A    between atoms: C_15  and  C_20
REMARK                            x       y       z     vdW  Elec       q    Type
REMARK                         _______ _______ _______ _____ _____    ______ ____
ROOT
ATOM      1  N   GLU A   1     -36.687  22.500   4.099  0.00  0.00    +0.395 N 
ATOM      2  H1  GLU A   1     -37.526  22.866   4.548  0.00  0.00    -0.083 HD
ATOM      3  H2  GLU A   1     -36.700  21.480   4.082  0.00  0.00    -0.083 HD
ENDROOT
BRANCH   1   4
ATOM      4  CA  GLU A   1     -35.531  22.925   4.846  0.00  0.00    +0.041 C 
BRANCH   4   6
ATOM      5  OXT GLU A   1     -35.187  22.125   7.120  0.00  0.00    -0.253 OA
ATOM      6  C   GLU A   1     -35.275  21.890   5.922  0.00  0.00    +0.293 C 
BRANCH   6   7
ATOM      7  O   GLU A   1     -35.188  20.635   5.408  0.00  0.00    -0.482 OA
ATOM      8  H   GLU A   1     -35.760  20.372   4.715  0.00  0.00    +0.295 HD
ENDBRANCH   6   7
ENDBRANCH   4   6
BRANCH   4   9
ATOM      9  CB  GLU A   1     -35.665  24.357   5.381  0.00  0.00    +0.001 C 
BRANCH   9  10
ATOM     10  CG  GLU A   1     -34.443  25.261   5.178  0.00  0.00    +0.108 C 
BRANCH  10  12
ATOM     11  OE2 GLU A   1     -33.951  26.288   3.022  0.00  0.00    -0.250 OA
ATOM     12  CD  GLU A   1     -34.607  26.264   4.055  0.00  0.00    +0.314 C 
BRANCH  12  13
ATOM     13  OE1 GLU A   1     -35.562  27.186   4.343  0.00  0.00    -0.480 OA
ATOM     14  HE1 GLU A   1     -36.395  27.147   3.918  0.00  0.00    +0.295 HD
ENDBRANCH  12  13
ENDBRANCH  10  12
ENDBRANCH   9  10
ENDBRANCH   4   9
ENDBRANCH   1   4
BRANCH   1  15
ATOM     15  C   UNK A   0     -36.641  22.980   2.718  0.00  0.00    -0.047 C 
BRANCH  15  20
ATOM     16  O   UNK A   0     -36.313  20.153   2.624  0.00  0.00    -0.270 OA
ATOM     17  O   UNK A   0     -32.696  20.369  -0.233  0.00  0.00    -0.252 OA
ATOM     18  N   UNK A   0     -34.506  20.248   1.194  0.00  0.00    -0.236 N 
ATOM     19  N   UNK A   0     -33.711  22.318   0.453  0.00  0.00    -0.267 N 
ATOM     20  C   UNK A   0     -35.580  22.303   1.923  0.00  0.00    +0.025 C 
ATOM     21  C   UNK A   0     -35.519  20.812   1.960  0.00  0.00    +0.248 C 
ATOM     22  C   UNK A   0     -34.680  22.955   1.178  0.00  0.00    +0.063 C 
ATOM     23  C   UNK A   0     -33.571  20.939   0.421  0.00  0.00    +0.310 C 
ATOM     24  H   UNK A   0     -34.440  19.266   1.198  0.00  0.00    +0.159 HD
ATOM     25  H   UNK A   0     -33.083  22.864  -0.072  0.00  0.00    +0.156 HD
ENDBRANCH  15  20
ENDBRANCH   1  15
TORSDOF 9
ENDMDL
