MODEL 1
REMARK VINA RESULT:      -5.4      0.000      0.000
REMARK  Name = 5311463
REMARK  9 active torsions:
REMARK  status: ('A' for Active; 'I' for Inactive)
REMARK    1  A    between atoms: O_1  and  P_2
REMARK    2  A    between atoms: O_1  and  C_13
REMARK    3  A    between atoms: P_2  and  O_4
REMARK    4  A    between atoms: P_2  and  O_6
REMARK    5  A    between atoms: O_6  and  C_7
REMARK    6  A    between atoms: C_13  and  C_14
REMARK    7  A    between atoms: C_14  and  N_16
REMARK    8  A    between atoms: C_14  and  C_21
REMARK    9  A    between atoms: C_21  and  O_22
REMARK                            x       y       z     vdW  Elec       q    Type
REMARK                         _______ _______ _______ _____ _____    ______ ____
ROOT
ATOM      1  O   UNL     1     -36.070  21.820   1.624  0.00  0.00    -0.265 OA
ENDROOT
BRANCH   1   2
ATOM      2  P   UNL     1     -35.930  20.220   1.446  0.00  0.00    +0.531 P 
ATOM      3  O   UNL     1     -36.178  19.714   0.053  0.00  0.00    -0.215 OA
BRANCH   2   4
ATOM      4  O   UNL     1     -36.954  19.614   2.545  0.00  0.00    -0.293 OA
ATOM      5  H   UNL     1     -37.406  18.840   2.174  0.00  0.00    +0.223 HD
ENDBRANCH   2   4
BRANCH   2   6
ATOM      6  O   UNL     1     -34.484  19.841   2.060  0.00  0.00    -0.403 OA
BRANCH   6   7
ATOM      7  C   UNL     1     -33.369  19.553   1.320  0.00  0.00    +0.149 C 
ATOM      8  C   UNL     1     -32.748  18.316   1.461  0.00  0.00    +0.037 C 
ATOM      9  C   UNL     1     -32.866  20.501   0.436  0.00  0.00    +0.037 C 
ATOM     10  C   UNL     1     -31.611  18.024   0.708  0.00  0.00    +0.003 C 
ATOM     11  C   UNL     1     -31.729  20.209  -0.318  0.00  0.00    +0.003 C 
ATOM     12  C   UNL     1     -31.102  18.970  -0.181  0.00  0.00    +0.000 C 
ENDBRANCH   6   7
ENDBRANCH   2   6
ENDBRANCH   1   2
BRANCH   1  13
ATOM     13  C   UNL     1     -36.916  22.352   2.637  0.00  0.00    +0.145 C 
BRANCH  13  14
ATOM     14  C   UNL     1     -36.113  23.189   3.647  0.00  0.00    +0.071 C 
ATOM     15  C   UNL     1     -36.812  24.496   4.032  0.00  0.00    -0.009 C 
BRANCH  14  16
ATOM     16  N   UNL     1     -34.821  23.534   3.032  0.00  0.00    +0.391 N 
ATOM     17  H   UNL     1     -34.982  23.940   2.111  0.00  0.00    -0.088 HD
ATOM     18  H   UNL     1     -34.254  22.691   2.939  0.00  0.00    -0.088 HD
ATOM     19  H   UNL     1     -34.333  24.209   3.622  0.00  0.00    -0.088 HD
ENDBRANCH  14  16
BRANCH  14  21
ATOM     20  O   UNL     1     -35.879  22.800   6.056  0.00  0.00    -0.252 OA
ATOM     21  C   UNL     1     -35.787  22.381   4.908  0.00  0.00    +0.297 C 
BRANCH  21  22
ATOM     22  O   UNL     1     -35.385  21.111   4.639  0.00  0.00    -0.481 OA
ATOM     23  H   UNL     1     -34.494  20.860   4.787  0.00  0.00    +0.295 HD
ENDBRANCH  21  22
ENDBRANCH  14  21
ENDBRANCH  13  14
ENDBRANCH   1  13
TORSDOF 9
ENDMDL
MODEL 2
REMARK VINA RESULT:      -5.3      4.474      7.253
REMARK  Name = 5311463
REMARK  9 active torsions:
REMARK  status: ('A' for Active; 'I' for Inactive)
REMARK    1  A    between atoms: O_1  and  P_2
REMARK    2  A    between atoms: O_1  and  C_13
REMARK    3  A    between atoms: P_2  and  O_4
REMARK    4  A    between atoms: P_2  and  O_6
REMARK    5  A    between atoms: O_6  and  C_7
REMARK    6  A    between atoms: C_13  and  C_14
REMARK    7  A    between atoms: C_14  and  N_16
REMARK    8  A    between atoms: C_14  and  C_21
REMARK    9  A    between atoms: C_21  and  O_22
REMARK                            x       y       z     vdW  Elec       q    Type
REMARK                         _______ _______ _______ _____ _____    ______ ____
ROOT
ATOM      1  O   UNL     1     -35.574  24.835   3.635  0.00  0.00    -0.265 OA
ENDROOT
BRANCH   1   2
ATOM      2  P   UNL     1     -35.269  26.007   4.706  0.00  0.00    +0.531 P 
ATOM      3  O   UNL     1     -35.968  25.852   6.028  0.00  0.00    -0.215 OA
BRANCH   2   4
ATOM      4  O   UNL     1     -35.666  27.366   3.921  0.00  0.00    -0.293 OA
ATOM      5  H   UNL     1     -35.112  27.457   3.131  0.00  0.00    +0.223 HD
ENDBRANCH   2   4
BRANCH   2   6
ATOM      6  O   UNL     1     -33.659  26.103   4.795  0.00  0.00    -0.403 OA
BRANCH   6   7
ATOM      7  C   UNL     1     -32.961  27.213   5.187  0.00  0.00    +0.149 C 
ATOM      8  C   UNL     1     -32.568  28.152   4.239  0.00  0.00    +0.037 C 
ATOM      9  C   UNL     1     -32.649  27.392   6.531  0.00  0.00    +0.037 C 
ATOM     10  C   UNL     1     -31.855  29.282   4.638  0.00  0.00    +0.003 C 
ATOM     11  C   UNL     1     -31.936  28.522   6.931  0.00  0.00    +0.003 C 
ATOM     12  C   UNL     1     -31.539  29.468   5.984  0.00  0.00    +0.000 C 
ENDBRANCH   6   7
ENDBRANCH   2   6
ENDBRANCH   1   2
BRANCH   1  13
ATOM     13  C   UNL     1     -34.817  23.631   3.664  0.00  0.00    +0.145 C 
BRANCH  13  14
ATOM     14  C   UNL     1     -35.721  22.415   3.933  0.00  0.00    +0.071 C 
ATOM     15  C   UNL     1     -35.478  21.261   2.955  0.00  0.00    -0.009 C 
BRANCH  14  16
ATOM     16  N   UNL     1     -37.121  22.843   3.784  0.00  0.00    +0.391 N 
ATOM     17  H   UNL     1     -37.485  22.510   2.891  0.00  0.00    -0.088 HD
ATOM     18  H   UNL     1     -37.170  23.861   3.814  0.00  0.00    -0.088 HD
ATOM     19  H   UNL     1     -37.678  22.453   4.545  0.00  0.00    -0.088 HD
ENDBRANCH  14  16
BRANCH  14  21
ATOM     20  O   UNL     1     -35.843  22.570   6.376  0.00  0.00    -0.252 OA
ATOM     21  C   UNL     1     -35.573  21.917   5.374  0.00  0.00    +0.297 C 
BRANCH  21  22
ATOM     22  O   UNL     1     -35.115  20.640   5.454  0.00  0.00    -0.481 OA
ATOM     23  H   UNL     1     -35.369  20.095   6.173  0.00  0.00    +0.295 HD
ENDBRANCH  21  22
ENDBRANCH  14  21
ENDBRANCH  13  14
ENDBRANCH   1  13
TORSDOF 9
ENDMDL
MODEL 3
REMARK VINA RESULT:      -5.2      1.779      2.284
REMARK  Name = 5311463
REMARK  9 active torsions:
REMARK  status: ('A' for Active; 'I' for Inactive)
REMARK    1  A    between atoms: O_1  and  P_2
REMARK    2  A    between atoms: O_1  and  C_13
REMARK    3  A    between atoms: P_2  and  O_4
REMARK    4  A    between atoms: P_2  and  O_6
REMARK    5  A    between atoms: O_6  and  C_7
REMARK    6  A    between atoms: C_13  and  C_14
REMARK    7  A    between atoms: C_14  and  N_16
REMARK    8  A    between atoms: C_14  and  C_21
REMARK    9  A    between atoms: C_21  and  O_22
REMARK                            x       y       z     vdW  Elec       q    Type
REMARK                         _______ _______ _______ _____ _____    ______ ____
ROOT
ATOM      1  O   UNL     1     -35.254  21.981   3.123  0.00  0.00    -0.265 OA
ENDROOT
BRANCH   1   2
ATOM      2  P   UNL     1     -36.416  21.373   2.178  0.00  0.00    +0.531 P 
ATOM      3  O   UNL     1     -37.627  22.249   2.022  0.00  0.00    -0.215 OA
BRANCH   2   4
ATOM      4  O   UNL     1     -36.743  19.931   2.840  0.00  0.00    -0.293 OA
ATOM      5  H   UNL     1     -37.537  20.001   3.392  0.00  0.00    +0.223 HD
ENDBRANCH   2   4
BRANCH   2   6
ATOM      6  O   UNL     1     -35.683  20.972   0.795  0.00  0.00    -0.403 OA
BRANCH   6   7
ATOM      7  C   UNL     1     -34.401  20.504   0.694  0.00  0.00    +0.149 C 
ATOM      8  C   UNL     1     -34.068  19.277   1.259  0.00  0.00    +0.037 C 
ATOM      9  C   UNL     1     -33.442  21.260   0.028  0.00  0.00    +0.037 C 
ATOM     10  C   UNL     1     -32.762  18.801   1.157  0.00  0.00    +0.003 C 
ATOM     11  C   UNL     1     -32.135  20.783  -0.074  0.00  0.00    +0.003 C 
ATOM     12  C   UNL     1     -31.795  19.553   0.491  0.00  0.00    +0.000 C 
ENDBRANCH   6   7
ENDBRANCH   2   6
ENDBRANCH   1   2
BRANCH   1  13
ATOM     13  C   UNL     1     -35.090  23.390   3.231  0.00  0.00    +0.145 C 
BRANCH  13  14
ATOM     14  C   UNL     1     -35.566  23.900   4.602  0.00  0.00    +0.071 C 
ATOM     15  C   UNL     1     -35.422  22.854   5.712  0.00  0.00    -0.009 C 
BRANCH  14  16
ATOM     16  N   UNL     1     -36.992  24.247   4.493  0.00  0.00    +0.391 N 
ATOM     17  H   UNL     1     -37.083  25.198   4.136  0.00  0.00    -0.088 HD
ATOM     18  H   UNL     1     -37.428  24.185   5.413  0.00  0.00    -0.088 HD
ATOM     19  H   UNL     1     -37.452  23.598   3.854  0.00  0.00    -0.088 HD
ENDBRANCH  14  16
BRANCH  14  21
ATOM     20  O   UNL     1     -35.370  26.168   5.511  0.00  0.00    -0.252 OA
ATOM     21  C   UNL     1     -34.838  25.188   5.001  0.00  0.00    +0.297 C 
BRANCH  21  22
ATOM     22  O   UNL     1     -33.504  25.149   4.747  0.00  0.00    -0.481 OA
ATOM     23  H   UNL     1     -32.903  24.922   5.430  0.00  0.00    +0.295 HD
ENDBRANCH  21  22
ENDBRANCH  14  21
ENDBRANCH  13  14
ENDBRANCH   1  13
TORSDOF 9
ENDMDL
MODEL 4
REMARK VINA RESULT:      -5.2      1.842      2.324
REMARK  Name = 5311463
REMARK  9 active torsions:
REMARK  status: ('A' for Active; 'I' for Inactive)
REMARK    1  A    between atoms: O_1  and  P_2
REMARK    2  A    between atoms: O_1  and  C_13
REMARK    3  A    between atoms: P_2  and  O_4
REMARK    4  A    between atoms: P_2  and  O_6
REMARK    5  A    between atoms: O_6  and  C_7
REMARK    6  A    between atoms: C_13  and  C_14
REMARK    7  A    between atoms: C_14  and  N_16
REMARK    8  A    between atoms: C_14  and  C_21
REMARK    9  A    between atoms: C_21  and  O_22
REMARK                            x       y       z     vdW  Elec       q    Type
REMARK                         _______ _______ _______ _____ _____    ______ ____
ROOT
ATOM      1  O   UNL     1     -35.150  22.316   2.949  0.00  0.00    -0.265 OA
ENDROOT
BRANCH   1   2
ATOM      2  P   UNL     1     -36.173  21.854   1.786  0.00  0.00    +0.531 P 
ATOM      3  O   UNL     1     -36.411  22.876   0.711  0.00  0.00    -0.215 OA
BRANCH   2   4
ATOM      4  O   UNL     1     -37.515  21.437   2.590  0.00  0.00    -0.293 OA
ATOM      5  H   UNL     1     -37.352  21.494   3.545  0.00  0.00    +0.223 HD
ENDBRANCH   2   4
BRANCH   2   6
ATOM      6  O   UNL     1     -35.616  20.431   1.260  0.00  0.00    -0.403 OA
BRANCH   6   7
ATOM      7  C   UNL     1     -34.308  20.165   0.956  0.00  0.00    +0.149 C 
ATOM      8  C   UNL     1     -33.710  19.004   1.437  0.00  0.00    +0.037 C 
ATOM      9  C   UNL     1     -33.588  21.058   0.170  0.00  0.00    +0.037 C 
ATOM     10  C   UNL     1     -32.378  18.734   1.129  0.00  0.00    +0.003 C 
ATOM     11  C   UNL     1     -32.255  20.788  -0.139  0.00  0.00    +0.003 C 
ATOM     12  C   UNL     1     -31.650  19.626   0.340  0.00  0.00    +0.000 C 
ENDBRANCH   6   7
ENDBRANCH   2   6
ENDBRANCH   1   2
BRANCH   1  13
ATOM     13  C   UNL     1     -35.033  23.693   3.287  0.00  0.00    +0.145 C 
BRANCH  13  14
ATOM     14  C   UNL     1     -35.824  24.020   4.565  0.00  0.00    +0.071 C 
ATOM     15  C   UNL     1     -35.004  24.806   5.592  0.00  0.00    -0.009 C 
BRANCH  14  16
ATOM     16  N   UNL     1     -36.231  22.751   5.189  0.00  0.00    +0.391 N 
ATOM     17  H   UNL     1     -35.430  22.122   5.232  0.00  0.00    -0.088 HD
ATOM     18  H   UNL     1     -36.972  22.322   4.634  0.00  0.00    -0.088 HD
ATOM     19  H   UNL     1     -36.574  22.931   6.133  0.00  0.00    -0.088 HD
ENDBRANCH  14  16
BRANCH  14  21
ATOM     20  O   UNL     1     -38.122  24.274   3.751  0.00  0.00    -0.252 OA
ATOM     21  C   UNL     1     -37.118  24.775   4.242  0.00  0.00    +0.297 C 
BRANCH  21  22
ATOM     22  O   UNL     1     -37.062  26.093   4.570  0.00  0.00    -0.481 OA
ATOM     23  H   UNL     1     -37.847  26.551   4.802  0.00  0.00    +0.295 HD
ENDBRANCH  21  22
ENDBRANCH  14  21
ENDBRANCH  13  14
ENDBRANCH   1  13
TORSDOF 9
ENDMDL
MODEL 5
REMARK VINA RESULT:      -5.2      1.423      1.710
REMARK  Name = 5311463
REMARK  9 active torsions:
REMARK  status: ('A' for Active; 'I' for Inactive)
REMARK    1  A    between atoms: O_1  and  P_2
REMARK    2  A    between atoms: O_1  and  C_13
REMARK    3  A    between atoms: P_2  and  O_4
REMARK    4  A    between atoms: P_2  and  O_6
REMARK    5  A    between atoms: O_6  and  C_7
REMARK    6  A    between atoms: C_13  and  C_14
REMARK    7  A    between atoms: C_14  and  N_16
REMARK    8  A    between atoms: C_14  and  C_21
REMARK    9  A    between atoms: C_21  and  O_22
REMARK                            x       y       z     vdW  Elec       q    Type
REMARK                         _______ _______ _______ _____ _____    ______ ____
ROOT
ATOM      1  O   UNL     1     -35.912  21.788   1.438  0.00  0.00    -0.265 OA
ENDROOT
BRANCH   1   2
ATOM      2  P   UNL     1     -35.869  20.173   1.421  0.00  0.00    +0.531 P 
ATOM      3  O   UNL     1     -36.179  19.547   0.091  0.00  0.00    -0.215 OA
BRANCH   2   4
ATOM      4  O   UNL     1     -36.899  19.742   2.593  0.00  0.00    -0.293 OA
ATOM      5  H   UNL     1     -36.558  18.959   3.052  0.00  0.00    +0.223 HD
ENDBRANCH   2   4
BRANCH   2   6
ATOM      6  O   UNL     1     -34.433  19.771   2.043  0.00  0.00    -0.403 OA
BRANCH   6   7
ATOM      7  C   UNL     1     -33.320  19.460   1.310  0.00  0.00    +0.149 C 
ATOM      8  C   UNL     1     -32.720  18.214   1.460  0.00  0.00    +0.037 C 
ATOM      9  C   UNL     1     -32.797  20.394   0.421  0.00  0.00    +0.037 C 
ATOM     10  C   UNL     1     -31.585  17.898   0.714  0.00  0.00    +0.003 C 
ATOM     11  C   UNL     1     -31.662  20.078  -0.326  0.00  0.00    +0.003 C 
ATOM     12  C   UNL     1     -31.056  18.829  -0.179  0.00  0.00    +0.000 C 
ENDBRANCH   6   7
ENDBRANCH   2   6
ENDBRANCH   1   2
BRANCH   1  13
ATOM     13  C   UNL     1     -35.156  22.509   2.405  0.00  0.00    +0.145 C 
BRANCH  13  14
ATOM     14  C   UNL     1     -36.075  23.153   3.459  0.00  0.00    +0.071 C 
ATOM     15  C   UNL     1     -35.485  24.430   4.066  0.00  0.00    -0.009 C 
BRANCH  14  16
ATOM     16  N   UNL     1     -36.270  22.185   4.550  0.00  0.00    +0.391 N 
ATOM     17  H   UNL     1     -36.335  22.683   5.437  0.00  0.00    -0.088 HD
ATOM     18  H   UNL     1     -35.479  21.541   4.578  0.00  0.00    -0.088 HD
ATOM     19  H   UNL     1     -37.130  21.660   4.389  0.00  0.00    -0.088 HD
ENDBRANCH  14  16
BRANCH  14  21
ATOM     20  O   UNL     1     -37.809  24.497   2.366  0.00  0.00    -0.252 OA
ATOM     21  C   UNL     1     -37.466  23.441   2.885  0.00  0.00    +0.297 C 
BRANCH  21  22
ATOM     22  O   UNL     1     -38.316  22.386   2.991  0.00  0.00    -0.481 OA
ATOM     23  H   UNL     1     -39.127  22.389   2.521  0.00  0.00    +0.295 HD
ENDBRANCH  21  22
ENDBRANCH  14  21
ENDBRANCH  13  14
ENDBRANCH   1  13
TORSDOF 9
ENDMDL
MODEL 6
REMARK VINA RESULT:      -5.1      4.684      7.436
REMARK  Name = 5311463
REMARK  9 active torsions:
REMARK  status: ('A' for Active; 'I' for Inactive)
REMARK    1  A    between atoms: O_1  and  P_2
REMARK    2  A    between atoms: O_1  and  C_13
REMARK    3  A    between atoms: P_2  and  O_4
REMARK    4  A    between atoms: P_2  and  O_6
REMARK    5  A    between atoms: O_6  and  C_7
REMARK    6  A    between atoms: C_13  and  C_14
REMARK    7  A    between atoms: C_14  and  N_16
REMARK    8  A    between atoms: C_14  and  C_21
REMARK    9  A    between atoms: C_21  and  O_22
REMARK                            x       y       z     vdW  Elec       q    Type
REMARK                         _______ _______ _______ _____ _____    ______ ____
ROOT
ATOM      1  O   UNL     1     -34.418  24.337   4.320  0.00  0.00    -0.265 OA
ENDROOT
BRANCH   1   2
ATOM      2  P   UNL     1     -34.500  25.950   4.374  0.00  0.00    +0.531 P 
ATOM      3  O   UNL     1     -35.451  26.500   5.400  0.00  0.00    -0.215 OA
BRANCH   2   4
ATOM      4  O   UNL     1     -34.873  26.372   2.856  0.00  0.00    -0.293 OA
ATOM      5  H   UNL     1     -35.539  25.761   2.504  0.00  0.00    +0.223 HD
ENDBRANCH   2   4
BRANCH   2   6
ATOM      6  O   UNL     1     -32.973  26.457   4.520  0.00  0.00    -0.403 OA
BRANCH   6   7
ATOM      7  C   UNL     1     -32.597  27.687   4.986  0.00  0.00    +0.149 C 
ATOM      8  C   UNL     1     -32.209  27.833   6.315  0.00  0.00    +0.037 C 
ATOM      9  C   UNL     1     -32.607  28.782   4.128  0.00  0.00    +0.037 C 
ATOM     10  C   UNL     1     -31.828  29.087   6.790  0.00  0.00    +0.003 C 
ATOM     11  C   UNL     1     -32.225  30.036   4.604  0.00  0.00    +0.003 C 
ATOM     12  C   UNL     1     -31.835  30.189   5.935  0.00  0.00    +0.000 C 
ENDBRANCH   6   7
ENDBRANCH   2   6
ENDBRANCH   1   2
BRANCH   1  13
ATOM     13  C   UNL     1     -34.941  23.635   3.198  0.00  0.00    +0.145 C 
BRANCH  13  14
ATOM     14  C   UNL     1     -35.812  22.448   3.643  0.00  0.00    +0.071 C 
ATOM     15  C   UNL     1     -35.670  21.226   2.730  0.00  0.00    -0.009 C 
BRANCH  14  16
ATOM     16  N   UNL     1     -37.220  22.874   3.609  0.00  0.00    +0.391 N 
ATOM     17  H   UNL     1     -37.823  22.052   3.604  0.00  0.00    -0.088 HD
ATOM     18  H   UNL     1     -37.388  23.425   2.768  0.00  0.00    -0.088 HD
ATOM     19  H   UNL     1     -37.423  23.440   4.433  0.00  0.00    -0.088 HD
ENDBRANCH  14  16
BRANCH  14  21
ATOM     20  O   UNL     1     -34.896  21.053   5.439  0.00  0.00    -0.252 OA
ATOM     21  C   UNL     1     -35.516  22.052   5.094  0.00  0.00    +0.297 C 
BRANCH  21  22
ATOM     22  O   UNL     1     -36.006  22.939   6.000  0.00  0.00    -0.481 OA
ATOM     23  H   UNL     1     -36.932  23.055   6.088  0.00  0.00    +0.295 HD
ENDBRANCH  21  22
ENDBRANCH  14  21
ENDBRANCH  13  14
ENDBRANCH   1  13
TORSDOF 9
ENDMDL
MODEL 7
REMARK VINA RESULT:      -5.1      3.148      5.948
REMARK  Name = 5311463
REMARK  9 active torsions:
REMARK  status: ('A' for Active; 'I' for Inactive)
REMARK    1  A    between atoms: O_1  and  P_2
REMARK    2  A    between atoms: O_1  and  C_13
REMARK    3  A    between atoms: P_2  and  O_4
REMARK    4  A    between atoms: P_2  and  O_6
REMARK    5  A    between atoms: O_6  and  C_7
REMARK    6  A    between atoms: C_13  and  C_14
REMARK    7  A    between atoms: C_14  and  N_16
REMARK    8  A    between atoms: C_14  and  C_21
REMARK    9  A    between atoms: C_21  and  O_22
REMARK                            x       y       z     vdW  Elec       q    Type
REMARK                         _______ _______ _______ _____ _____    ______ ____
ROOT
ATOM      1  O   UNL     1     -37.699  23.321   3.396  0.00  0.00    -0.265 OA
ENDROOT
BRANCH   1   2
ATOM      2  P   UNL     1     -38.592  24.617   3.027  0.00  0.00    +0.531 P 
ATOM      3  O   UNL     1     -39.910  24.701   3.743  0.00  0.00    -0.215 OA
BRANCH   2   4
ATOM      4  O   UNL     1     -38.736  24.546   1.416  0.00  0.00    -0.293 OA
ATOM      5  H   UNL     1     -39.287  23.786   1.173  0.00  0.00    +0.223 HD
ENDBRANCH   2   4
BRANCH   2   6
ATOM      6  O   UNL     1     -37.618  25.888   3.243  0.00  0.00    -0.403 OA
BRANCH   6   7
ATOM      7  C   UNL     1     -36.376  25.836   3.815  0.00  0.00    +0.149 C 
ATOM      8  C   UNL     1     -35.244  25.825   3.007  0.00  0.00    +0.037 C 
ATOM      9  C   UNL     1     -36.257  25.794   5.200  0.00  0.00    +0.037 C 
ATOM     10  C   UNL     1     -33.979  25.770   3.590  0.00  0.00    +0.003 C 
ATOM     11  C   UNL     1     -34.991  25.740   5.784  0.00  0.00    +0.003 C 
ATOM     12  C   UNL     1     -33.852  25.728   4.979  0.00  0.00    +0.000 C 
ENDBRANCH   6   7
ENDBRANCH   2   6
ENDBRANCH   1   2
BRANCH   1  13
ATOM     13  C   UNL     1     -37.201  22.483   2.359  0.00  0.00    +0.145 C 
BRANCH  13  14
ATOM     14  C   UNL     1     -35.805  21.939   2.709  0.00  0.00    +0.071 C 
ATOM     15  C   UNL     1     -35.406  22.205   4.164  0.00  0.00    -0.009 C 
BRANCH  14  16
ATOM     16  N   UNL     1     -34.822  22.609   1.843  0.00  0.00    +0.391 N 
ATOM     17  H   UNL     1     -34.059  22.971   2.414  0.00  0.00    -0.088 HD
ATOM     18  H   UNL     1     -35.273  23.378   1.349  0.00  0.00    -0.088 HD
ATOM     19  H   UNL     1     -34.453  21.940   1.166  0.00  0.00    -0.088 HD
ENDBRANCH  14  16
BRANCH  14  21
ATOM     20  O   UNL     1     -34.690  19.877   1.994  0.00  0.00    -0.252 OA
ATOM     21  C   UNL     1     -35.697  20.441   2.404  0.00  0.00    +0.297 C 
BRANCH  21  22
ATOM     22  O   UNL     1     -36.849  19.762   2.648  0.00  0.00    -0.481 OA
ATOM     23  H   UNL     1     -36.865  19.083   3.294  0.00  0.00    +0.295 HD
ENDBRANCH  21  22
ENDBRANCH  14  21
ENDBRANCH  13  14
ENDBRANCH   1  13
TORSDOF 9
ENDMDL
MODEL 8
REMARK VINA RESULT:      -5.0      5.260      7.966
REMARK  Name = 5311463
REMARK  9 active torsions:
REMARK  status: ('A' for Active; 'I' for Inactive)
REMARK    1  A    between atoms: O_1  and  P_2
REMARK    2  A    between atoms: O_1  and  C_13
REMARK    3  A    between atoms: P_2  and  O_4
REMARK    4  A    between atoms: P_2  and  O_6
REMARK    5  A    between atoms: O_6  and  C_7
REMARK    6  A    between atoms: C_13  and  C_14
REMARK    7  A    between atoms: C_14  and  N_16
REMARK    8  A    between atoms: C_14  and  C_21
REMARK    9  A    between atoms: C_21  and  O_22
REMARK                            x       y       z     vdW  Elec       q    Type
REMARK                         _______ _______ _______ _____ _____    ______ ____
ROOT
ATOM      1  O   UNL     1     -33.884  24.969   4.193  0.00  0.00    -0.265 OA
ENDROOT
BRANCH   1   2
ATOM      2  P   UNL     1     -33.680  26.492   3.692  0.00  0.00    +0.531 P 
ATOM      3  O   UNL     1     -34.869  27.388   3.896  0.00  0.00    -0.215 OA
BRANCH   2   4
ATOM      4  O   UNL     1     -33.247  26.337   2.139  0.00  0.00    -0.293 OA
ATOM      5  H   UNL     1     -33.518  27.128   1.648  0.00  0.00    +0.223 HD
ENDBRANCH   2   4
BRANCH   2   6
ATOM      6  O   UNL     1     -32.316  27.000   4.394  0.00  0.00    -0.403 OA
BRANCH   6   7
ATOM      7  C   UNL     1     -32.145  28.225   4.978  0.00  0.00    +0.149 C 
ATOM      8  C   UNL     1     -32.230  29.378   4.202  0.00  0.00    +0.037 C 
ATOM      9  C   UNL     1     -31.885  28.308   6.342  0.00  0.00    +0.037 C 
ATOM     10  C   UNL     1     -32.054  30.626   4.798  0.00  0.00    +0.003 C 
ATOM     11  C   UNL     1     -31.709  29.558   6.937  0.00  0.00    +0.003 C 
ATOM     12  C   UNL     1     -31.793  30.717   6.165  0.00  0.00    +0.000 C 
ENDBRANCH   6   7
ENDBRANCH   2   6
ENDBRANCH   1   2
BRANCH   1  13
ATOM     13  C   UNL     1     -34.779  24.106   3.500  0.00  0.00    +0.145 C 
BRANCH  13  14
ATOM     14  C   UNL     1     -35.921  23.639   4.419  0.00  0.00    +0.071 C 
ATOM     15  C   UNL     1     -35.445  23.281   5.830  0.00  0.00    -0.009 C 
BRANCH  14  16
ATOM     16  N   UNL     1     -36.521  22.432   3.827  0.00  0.00    +0.391 N 
ATOM     17  H   UNL     1     -36.866  21.826   4.570  0.00  0.00    -0.088 HD
ATOM     18  H   UNL     1     -35.816  21.936   3.282  0.00  0.00    -0.088 HD
ATOM     19  H   UNL     1     -37.294  22.701   3.218  0.00  0.00    -0.088 HD
ENDBRANCH  14  16
BRANCH  14  21
ATOM     20  O   UNL     1     -38.120  24.600   3.923  0.00  0.00    -0.252 OA
ATOM     21  C   UNL     1     -37.040  24.683   4.494  0.00  0.00    +0.297 C 
BRANCH  21  22
ATOM     22  O   UNL     1     -36.728  25.743   5.286  0.00  0.00    -0.481 OA
ATOM     23  H   UNL     1     -35.977  25.705   5.845  0.00  0.00    +0.295 HD
ENDBRANCH  21  22
ENDBRANCH  14  21
ENDBRANCH  13  14
ENDBRANCH   1  13
TORSDOF 9
ENDMDL
MODEL 9
REMARK VINA RESULT:      -4.9      3.114      4.138
REMARK  Name = 5311463
REMARK  9 active torsions:
REMARK  status: ('A' for Active; 'I' for Inactive)
REMARK    1  A    between atoms: O_1  and  P_2
REMARK    2  A    between atoms: O_1  and  C_13
REMARK    3  A    between atoms: P_2  and  O_4
REMARK    4  A    between atoms: P_2  and  O_6
REMARK    5  A    between atoms: O_6  and  C_7
REMARK    6  A    between atoms: C_13  and  C_14
REMARK    7  A    between atoms: C_14  and  N_16
REMARK    8  A    between atoms: C_14  and  C_21
REMARK    9  A    between atoms: C_21  and  O_22
REMARK                            x       y       z     vdW  Elec       q    Type
REMARK                         _______ _______ _______ _____ _____    ______ ____
ROOT
ATOM      1  O   UNL     1     -34.834  23.916   3.865  0.00  0.00    -0.265 OA
ENDROOT
BRANCH   1   2
ATOM      2  P   UNL     1     -36.308  23.257   3.776  0.00  0.00    +0.531 P 
ATOM      3  O   UNL     1     -37.441  24.204   4.053  0.00  0.00    -0.215 OA
BRANCH   2   4
ATOM      4  O   UNL     1     -36.241  22.012   4.809  0.00  0.00    -0.293 OA
ATOM      5  H   UNL     1     -35.951  21.215   4.337  0.00  0.00    +0.223 HD
ENDBRANCH   2   4
BRANCH   2   6
ATOM      6  O   UNL     1     -36.369  22.525   2.337  0.00  0.00    -0.403 OA
BRANCH   6   7
ATOM      7  C   UNL     1     -35.366  21.762   1.803  0.00  0.00    +0.149 C 
ATOM      8  C   UNL     1     -34.519  22.310   0.844  0.00  0.00    +0.037 C 
ATOM      9  C   UNL     1     -35.204  20.446   2.222  0.00  0.00    +0.037 C 
ATOM     10  C   UNL     1     -33.499  21.532   0.298  0.00  0.00    +0.003 C 
ATOM     11  C   UNL     1     -34.182  19.668   1.676  0.00  0.00    +0.003 C 
ATOM     12  C   UNL     1     -33.330  20.211   0.714  0.00  0.00    +0.000 C 
ENDBRANCH   6   7
ENDBRANCH   2   6
ENDBRANCH   1   2
BRANCH   1  13
ATOM     13  C   UNL     1     -34.388  24.498   5.084  0.00  0.00    +0.145 C 
BRANCH  13  14
ATOM     14  C   UNL     1     -34.294  26.029   4.966  0.00  0.00    +0.071 C 
ATOM     15  C   UNL     1     -33.457  26.665   6.080  0.00  0.00    -0.009 C 
BRANCH  14  16
ATOM     16  N   UNL     1     -35.656  26.580   5.057  0.00  0.00    +0.391 N 
ATOM     17  H   UNL     1     -35.605  27.581   5.240  0.00  0.00    -0.088 HD
ATOM     18  H   UNL     1     -36.159  26.119   5.816  0.00  0.00    -0.088 HD
ATOM     19  H   UNL     1     -36.147  26.418   4.177  0.00  0.00    -0.088 HD
ENDBRANCH  14  16
BRANCH  14  21
ATOM     20  O   UNL     1     -34.279  27.264   2.849  0.00  0.00    -0.252 OA
ATOM     21  C   UNL     1     -33.749  26.451   3.598  0.00  0.00    +0.297 C 
BRANCH  21  22
ATOM     22  O   UNL     1     -32.580  25.838   3.276  0.00  0.00    -0.481 OA
ATOM     23  H   UNL     1     -31.819  26.351   3.083  0.00  0.00    +0.295 HD
ENDBRANCH  21  22
ENDBRANCH  14  21
ENDBRANCH  13  14
ENDBRANCH   1  13
TORSDOF 9
ENDMDL
