MODEL 1
REMARK VINA RESULT:      -6.4      0.000      0.000
REMARK  Name = 19212
REMARK  10 active torsions:
REMARK  status: ('A' for Active; 'I' for Inactive)
REMARK    1  A    between atoms: C_3  and  O_21
REMARK    2  A    between atoms: C_4  and  C_27
REMARK    3  A    between atoms: C_19  and  O_23
REMARK    4  A    between atoms: C_20  and  O_25
REMARK    5  A    between atoms: C_27  and  C_29
REMARK    6  A    between atoms: C_29  and  O_30
REMARK    7  A    between atoms: C_29  and  C_32
REMARK    8  A    between atoms: C_32  and  C_33
REMARK    9  A    between atoms: C_33  and  C_34
REMARK   10  A    between atoms: C_34  and  O_37
REMARK                            x       y       z     vdW  Elec       q    Type
REMARK                         _______ _______ _______ _____ _____    ______ ____
ROOT
ATOM      1  O   UNL     1     -37.203  19.299  -3.290  0.00  0.00    -0.291 OA
ATOM      2  C   UNL     1     -35.453  21.272   2.027  0.00  0.00    +0.026 C 
ATOM      3  C   UNL     1     -36.640  20.532   1.356  0.00  0.00    +0.103 C 
ATOM      4  C   UNL     1     -36.164  21.902   3.254  0.00  0.00    +0.005 C 
ATOM      5  C   UNL     1     -35.008  18.894   0.244  0.00  0.00    +0.021 C 
ATOM      6  C   UNL     1     -34.453  18.352  -1.132  0.00  0.00    +0.013 C 
ATOM      7  C   UNL     1     -36.213  19.834   0.083  0.00  0.00    -0.018 C 
ATOM      8  C   UNL     1     -34.375  20.239   2.394  0.00  0.00    +0.003 C 
ATOM      9  C   UNL     1     -37.740  21.606   1.365  0.00  0.00    +0.031 C 
ATOM     10  C   UNL     1     -33.883  19.488   1.146  0.00  0.00    +0.004 C 
ATOM     11  C   UNL     1     -37.527  22.366   2.692  0.00  0.00    +0.003 C 
ATOM     12  C   UNL     1     -35.631  17.957  -2.064  0.00  0.00    +0.065 C 
ATOM     13  C   UNL     1     -34.836  22.373   1.122  0.00  0.00    +0.003 C 
ATOM     14  C   UNL     1     -33.544  17.104  -0.931  0.00  0.00    +0.032 C 
ATOM     15  C   UNL     1     -36.905  19.960  -1.059  0.00  0.00    +0.031 C 
ATOM     16  C   UNL     1     -36.392  16.703  -1.597  0.00  0.00    +0.039 C 
ATOM     17  C   UNL     1     -33.598  19.421  -1.864  0.00  0.00    +0.001 C 
ATOM     18  C   UNL     1     -36.607  19.106  -2.231  0.00  0.00    +0.172 C 
ATOM     19  C   UNL     1     -34.305  15.858  -0.469  0.00  0.00    +0.137 C 
ATOM     20  C   UNL     1     -35.455  15.510  -1.414  0.00  0.00    +0.138 C 
ENDROOT
BRANCH   3  21
ATOM     21  O   UNL     1     -37.112  19.486   2.235  0.00  0.00    -0.383 OA
ATOM     22  H   UNL     1     -37.988  19.190   1.943  0.00  0.00    +0.211 HD
ENDBRANCH   3  21
BRANCH  19  23
ATOM     23  O   UNL     1     -33.409  14.750  -0.398  0.00  0.00    -0.382 OA
ATOM     24  H   UNL     1     -32.597  15.019   0.058  0.00  0.00    +0.210 HD
ENDBRANCH  19  23
BRANCH  20  25
ATOM     25  O   UNL     1     -34.922  15.132  -2.685  0.00  0.00    -0.382 OA
ATOM     26  H   UNL     1     -35.508  14.480  -3.100  0.00  0.00    +0.210 HD
ENDBRANCH  20  25
BRANCH   4  27
ATOM     27  C   UNL     1     -35.415  23.014   3.977  0.00  0.00    +0.027 C 
ATOM     28  C   UNL     1     -35.104  22.572   5.415  0.00  0.00    +0.002 C 
BRANCH  27  29
ATOM     29  C   UNL     1     -36.173  24.366   3.976  0.00  0.00    +0.111 C 
BRANCH  29  30
ATOM     30  O   UNL     1     -35.842  25.113   2.803  0.00  0.00    -0.384 OA
ATOM     31  H   UNL     1     -34.957  25.498   2.902  0.00  0.00    +0.210 HD
ENDBRANCH  29  30
BRANCH  29  32
ATOM     32  C   UNL     1     -35.880  25.283   5.177  0.00  0.00    +0.032 C 
BRANCH  32  33
ATOM     33  C   UNL     1     -35.183  26.591   4.798  0.00  0.00    +0.029 C 
BRANCH  33  34
ATOM     34  C   UNL     1     -33.659  26.624   5.031  0.00  0.00    +0.089 C 
ATOM     35  C   UNL     1     -33.303  26.632   6.519  0.00  0.00    +0.029 C 
ATOM     36  C   UNL     1     -32.985  27.793   4.310  0.00  0.00    +0.029 C 
BRANCH  34  37
ATOM     37  O   UNL     1     -33.141  25.411   4.466  0.00  0.00    -0.387 OA
ATOM     38  H   UNL     1     -32.867  25.573   3.550  0.00  0.00    +0.210 HD
ENDBRANCH  34  37
ENDBRANCH  33  34
ENDBRANCH  32  33
ENDBRANCH  29  32
ENDBRANCH  27  29
ENDBRANCH   4  27
TORSDOF 10
ENDMDL
MODEL 2
REMARK VINA RESULT:      -6.2      4.040      6.084
REMARK  Name = 19212
REMARK  10 active torsions:
REMARK  status: ('A' for Active; 'I' for Inactive)
REMARK    1  A    between atoms: C_3  and  O_21
REMARK    2  A    between atoms: C_4  and  C_27
REMARK    3  A    between atoms: C_19  and  O_23
REMARK    4  A    between atoms: C_20  and  O_25
REMARK    5  A    between atoms: C_27  and  C_29
REMARK    6  A    between atoms: C_29  and  O_30
REMARK    7  A    between atoms: C_29  and  C_32
REMARK    8  A    between atoms: C_32  and  C_33
REMARK    9  A    between atoms: C_33  and  C_34
REMARK   10  A    between atoms: C_34  and  O_37
REMARK                            x       y       z     vdW  Elec       q    Type
REMARK                         _______ _______ _______ _____ _____    ______ ____
ROOT
ATOM      1  O   UNL     1     -37.506  24.990  -2.078  0.00  0.00    -0.291 OA
ATOM      2  C   UNL     1     -34.926  25.635   3.228  0.00  0.00    +0.026 C 
ATOM      3  C   UNL     1     -36.056  26.253   2.364  0.00  0.00    +0.103 C 
ATOM      4  C   UNL     1     -34.568  26.841   4.136  0.00  0.00    +0.005 C 
ATOM      5  C   UNL     1     -37.024  23.916   1.933  0.00  0.00    +0.021 C 
ATOM      6  C   UNL     1     -37.359  22.836   0.830  0.00  0.00    +0.013 C 
ATOM      7  C   UNL     1     -36.582  25.265   1.344  0.00  0.00    -0.018 C 
ATOM      8  C   UNL     1     -35.496  24.428   3.991  0.00  0.00    +0.003 C 
ATOM      9  C   UNL     1     -35.449  27.602   1.950  0.00  0.00    +0.031 C 
ATOM     10  C   UNL     1     -36.046  23.371   3.020  0.00  0.00    +0.004 C 
ATOM     11  C   UNL     1     -34.635  28.054   3.181  0.00  0.00    +0.003 C 
ATOM     12  C   UNL     1     -38.169  23.486  -0.325  0.00  0.00    +0.065 C 
ATOM     13  C   UNL     1     -33.697  25.191   2.389  0.00  0.00    +0.003 C 
ATOM     14  C   UNL     1     -38.194  21.659   1.416  0.00  0.00    +0.032 C 
ATOM     15  C   UNL     1     -36.736  25.595   0.054  0.00  0.00    +0.031 C 
ATOM     16  C   UNL     1     -39.603  23.880   0.075  0.00  0.00    +0.039 C 
ATOM     17  C   UNL     1     -36.070  22.218   0.224  0.00  0.00    +0.001 C 
ATOM     18  C   UNL     1     -37.450  24.699  -0.884  0.00  0.00    +0.172 C 
ATOM     19  C   UNL     1     -39.620  22.054   1.810  0.00  0.00    +0.137 C 
ATOM     20  C   UNL     1     -40.377  22.692   0.645  0.00  0.00    +0.138 C 
ENDROOT
BRANCH   3  21
ATOM     21  O   UNL     1     -37.184  26.578   3.208  0.00  0.00    -0.383 OA
ATOM     22  H   UNL     1     -37.990  26.617   2.670  0.00  0.00    +0.211 HD
ENDBRANCH   3  21
BRANCH  19  23
ATOM     23  O   UNL     1     -40.331  20.899   2.250  0.00  0.00    -0.382 OA
ATOM     24  H   UNL     1     -40.475  20.303   1.500  0.00  0.00    +0.210 HD
ENDBRANCH  19  23
BRANCH  20  25
ATOM     25  O   UNL     1     -40.565  21.717  -0.384  0.00  0.00    -0.382 OA
ATOM     26  H   UNL     1     -40.014  20.940  -0.196  0.00  0.00    +0.210 HD
ENDBRANCH  20  25
BRANCH   4  27
ATOM     27  C   UNL     1     -33.247  26.756   4.889  0.00  0.00    +0.027 C 
ATOM     28  C   UNL     1     -33.522  26.533   6.384  0.00  0.00    +0.002 C 
BRANCH  27  29
ATOM     29  C   UNL     1     -32.341  27.997   4.682  0.00  0.00    +0.111 C 
BRANCH  29  30
ATOM     30  O   UNL     1     -31.189  27.640   3.915  0.00  0.00    -0.384 OA
ATOM     31  H   UNL     1     -30.415  28.121   4.249  0.00  0.00    +0.210 HD
ENDBRANCH  29  30
BRANCH  29  32
ATOM     32  C   UNL     1     -31.822  28.653   5.973  0.00  0.00    +0.032 C 
BRANCH  32  33
ATOM     33  C   UNL     1     -30.497  29.397   5.797  0.00  0.00    +0.029 C 
BRANCH  33  34
ATOM     34  C   UNL     1     -29.260  28.703   6.402  0.00  0.00    +0.089 C 
ATOM     35  C   UNL     1     -28.765  29.405   7.668  0.00  0.00    +0.029 C 
ATOM     36  C   UNL     1     -28.122  28.554   5.389  0.00  0.00    +0.029 C 
BRANCH  34  37
ATOM     37  O   UNL     1     -29.683  27.383   6.774  0.00  0.00    -0.387 OA
ATOM     38  H   UNL     1     -30.542  27.434   7.223  0.00  0.00    +0.210 HD
ENDBRANCH  34  37
ENDBRANCH  33  34
ENDBRANCH  32  33
ENDBRANCH  29  32
ENDBRANCH  27  29
ENDBRANCH   4  27
TORSDOF 10
ENDMDL
MODEL 3
REMARK VINA RESULT:      -6.2      1.029      1.222
REMARK  Name = 19212
REMARK  10 active torsions:
REMARK  status: ('A' for Active; 'I' for Inactive)
REMARK    1  A    between atoms: C_3  and  O_21
REMARK    2  A    between atoms: C_4  and  C_27
REMARK    3  A    between atoms: C_19  and  O_23
REMARK    4  A    between atoms: C_20  and  O_25
REMARK    5  A    between atoms: C_27  and  C_29
REMARK    6  A    between atoms: C_29  and  O_30
REMARK    7  A    between atoms: C_29  and  C_32
REMARK    8  A    between atoms: C_32  and  C_33
REMARK    9  A    between atoms: C_33  and  C_34
REMARK   10  A    between atoms: C_34  and  O_37
REMARK                            x       y       z     vdW  Elec       q    Type
REMARK                         _______ _______ _______ _____ _____    ______ ____
ROOT
ATOM      1  O   UNL     1     -36.036  18.788  -3.883  0.00  0.00    -0.291 OA
ATOM      2  C   UNL     1     -35.392  20.941   1.610  0.00  0.00    +0.026 C 
ATOM      3  C   UNL     1     -36.387  20.108   0.760  0.00  0.00    +0.103 C 
ATOM      4  C   UNL     1     -36.350  21.529   2.679  0.00  0.00    +0.005 C 
ATOM      5  C   UNL     1     -34.472  18.584  -0.012  0.00  0.00    +0.021 C 
ATOM      6  C   UNL     1     -33.647  18.071  -1.258  0.00  0.00    +0.013 C 
ATOM      7  C   UNL     1     -35.694  19.430  -0.403  0.00  0.00    -0.018 C 
ATOM      8  C   UNL     1     -34.324  19.996   2.183  0.00  0.00    +0.003 C 
ATOM      9  C   UNL     1     -37.545  21.096   0.552  0.00  0.00    +0.031 C 
ATOM     10  C   UNL     1     -33.568  19.271   1.058  0.00  0.00    +0.004 C 
ATOM     11  C   UNL     1     -37.623  21.884   1.878  0.00  0.00    +0.003 C 
ATOM     12  C   UNL     1     -34.612  17.580  -2.371  0.00  0.00    +0.065 C 
ATOM     13  C   UNL     1     -34.707  22.076   0.800  0.00  0.00    +0.003 C 
ATOM     14  C   UNL     1     -32.700  16.897  -0.872  0.00  0.00    +0.032 C 
ATOM     15  C   UNL     1     -36.182  19.493  -1.650  0.00  0.00    +0.031 C 
ATOM     16  C   UNL     1     -35.351  16.277  -2.015  0.00  0.00    +0.039 C 
ATOM     17  C   UNL     1     -32.755  19.194  -1.854  0.00  0.00    +0.001 C 
ATOM     18  C   UNL     1     -35.623  18.651  -2.733  0.00  0.00    +0.172 C 
ATOM     19  C   UNL     1     -33.439  15.602  -0.521  0.00  0.00    +0.137 C 
ATOM     20  C   UNL     1     -34.378  15.159  -1.643  0.00  0.00    +0.138 C 
ENDROOT
BRANCH   3  21
ATOM     21  O   UNL     1     -36.929  19.038   1.568  0.00  0.00    -0.383 OA
ATOM     22  H   UNL     1     -36.335  18.273   1.531  0.00  0.00    +0.211 HD
ENDBRANCH   3  21
BRANCH  19  23
ATOM     23  O   UNL     1     -32.492  14.565  -0.270  0.00  0.00    -0.382 OA
ATOM     24  H   UNL     1     -32.955  13.779   0.059  0.00  0.00    +0.210 HD
ENDBRANCH  19  23
BRANCH  20  25
ATOM     25  O   UNL     1     -33.604  14.809  -2.793  0.00  0.00    -0.382 OA
ATOM     26  H   UNL     1     -32.887  15.454  -2.908  0.00  0.00    +0.210 HD
ENDBRANCH  20  25
BRANCH   4  27
ATOM     27  C   UNL     1     -35.822  22.701   3.495  0.00  0.00    +0.027 C 
ATOM     28  C   UNL     1     -35.527  22.236   4.930  0.00  0.00    +0.002 C 
BRANCH  27  29
ATOM     29  C   UNL     1     -36.776  23.923   3.506  0.00  0.00    +0.111 C 
BRANCH  29  30
ATOM     30  O   UNL     1     -36.656  24.649   2.281  0.00  0.00    -0.384 OA
ATOM     31  H   UNL     1     -37.082  24.150   1.566  0.00  0.00    +0.210 HD
ENDBRANCH  29  30
BRANCH  29  32
ATOM     32  C   UNL     1     -36.536  24.933   4.641  0.00  0.00    +0.032 C 
BRANCH  32  33
ATOM     33  C   UNL     1     -35.890  26.240   4.176  0.00  0.00    +0.029 C 
BRANCH  33  34
ATOM     34  C   UNL     1     -34.386  26.384   4.484  0.00  0.00    +0.089 C 
ATOM     35  C   UNL     1     -33.517  25.605   3.494  0.00  0.00    +0.029 C 
ATOM     36  C   UNL     1     -34.046  25.991   5.923  0.00  0.00    +0.029 C 
BRANCH  34  37
ATOM     37  O   UNL     1     -34.076  27.777   4.331  0.00  0.00    -0.387 OA
ATOM     38  H   UNL     1     -34.476  28.108   3.511  0.00  0.00    +0.210 HD
ENDBRANCH  34  37
ENDBRANCH  33  34
ENDBRANCH  32  33
ENDBRANCH  29  32
ENDBRANCH  27  29
ENDBRANCH   4  27
TORSDOF 10
ENDMDL
MODEL 4
REMARK VINA RESULT:      -6.0      1.974      2.884
REMARK  Name = 19212
REMARK  10 active torsions:
REMARK  status: ('A' for Active; 'I' for Inactive)
REMARK    1  A    between atoms: C_3  and  O_21
REMARK    2  A    between atoms: C_4  and  C_27
REMARK    3  A    between atoms: C_19  and  O_23
REMARK    4  A    between atoms: C_20  and  O_25
REMARK    5  A    between atoms: C_27  and  C_29
REMARK    6  A    between atoms: C_29  and  O_30
REMARK    7  A    between atoms: C_29  and  C_32
REMARK    8  A    between atoms: C_32  and  C_33
REMARK    9  A    between atoms: C_33  and  C_34
REMARK   10  A    between atoms: C_34  and  O_37
REMARK                            x       y       z     vdW  Elec       q    Type
REMARK                         _______ _______ _______ _____ _____    ______ ____
ROOT
ATOM      1  O   UNL     1     -33.134  17.756  -4.408  0.00  0.00    -0.291 OA
ATOM      2  C   UNL     1     -34.374  20.119   0.894  0.00  0.00    +0.026 C 
ATOM      3  C   UNL     1     -35.031  19.257  -0.216  0.00  0.00    +0.103 C 
ATOM      4  C   UNL     1     -35.630  20.751   1.548  0.00  0.00    +0.005 C 
ATOM      5  C   UNL     1     -32.994  17.697  -0.231  0.00  0.00    +0.021 C 
ATOM      6  C   UNL     1     -31.801  17.132  -1.098  0.00  0.00    +0.013 C 
ATOM      7  C   UNL     1     -33.994  18.531  -1.046  0.00  0.00    -0.018 C 
ATOM      8  C   UNL     1     -33.583  19.192   1.831  0.00  0.00    +0.003 C 
ATOM      9  C   UNL     1     -36.031  20.241  -0.843  0.00  0.00    +0.031 C 
ATOM     10  C   UNL     1     -32.500  18.421   1.060  0.00  0.00    +0.004 C 
ATOM     11  C   UNL     1     -36.545  21.080   0.347  0.00  0.00    +0.003 C 
ATOM     12  C   UNL     1     -32.334  16.602  -2.458  0.00  0.00    +0.065 C 
ATOM     13  C   UNL     1     -33.433  21.218   0.329  0.00  0.00    +0.003 C 
ATOM     14  C   UNL     1     -31.064  15.970  -0.371  0.00  0.00    +0.032 C 
ATOM     15  C   UNL     1     -34.024  18.547  -2.387  0.00  0.00    +0.031 C 
ATOM     16  C   UNL     1     -33.173  15.317  -2.331  0.00  0.00    +0.039 C 
ATOM     17  C   UNL     1     -30.740  18.227  -1.392  0.00  0.00    +0.001 C 
ATOM     18  C   UNL     1     -33.142  17.663  -3.182  0.00  0.00    +0.172 C 
ATOM     19  C   UNL     1     -31.900  14.693  -0.249  0.00  0.00    +0.137 C 
ATOM     20  C   UNL     1     -32.405  14.210  -1.609  0.00  0.00    +0.138 C 
ENDROOT
BRANCH   3  21
ATOM     21  O   UNL     1     -35.836  18.222   0.393  0.00  0.00    -0.383 OA
ATOM     22  H   UNL     1     -35.685  17.382  -0.068  0.00  0.00    +0.211 HD
ENDBRANCH   3  21
BRANCH  19  23
ATOM     23  O   UNL     1     -31.115  13.662   0.348  0.00  0.00    -0.382 OA
ATOM     24  H   UNL     1     -30.580  13.228  -0.334  0.00  0.00    +0.210 HD
ENDBRANCH  19  23
BRANCH  20  25
ATOM     25  O   UNL     1     -31.290  13.813  -2.411  0.00  0.00    -0.382 OA
ATOM     26  H   UNL     1     -30.495  13.764  -1.856  0.00  0.00    +0.210 HD
ENDBRANCH  20  25
BRANCH   4  27
ATOM     27  C   UNL     1     -35.393  21.952   2.454  0.00  0.00    +0.027 C 
ATOM     28  C   UNL     1     -35.510  21.517   3.923  0.00  0.00    +0.002 C 
BRANCH  27  29
ATOM     29  C   UNL     1     -36.345  23.140   2.162  0.00  0.00    +0.111 C 
BRANCH  29  30
ATOM     30  O   UNL     1     -35.632  24.188   1.502  0.00  0.00    -0.384 OA
ATOM     31  H   UNL     1     -35.899  24.223   0.569  0.00  0.00    +0.210 HD
ENDBRANCH  29  30
BRANCH  29  32
ATOM     32  C   UNL     1     -37.007  23.770   3.400  0.00  0.00    +0.032 C 
BRANCH  32  33
ATOM     33  C   UNL     1     -36.831  25.288   3.487  0.00  0.00    +0.029 C 
BRANCH  33  34
ATOM     34  C   UNL     1     -35.890  25.784   4.603  0.00  0.00    +0.089 C 
ATOM     35  C   UNL     1     -34.712  26.589   4.050  0.00  0.00    +0.029 C 
ATOM     36  C   UNL     1     -35.391  24.644   5.494  0.00  0.00    +0.029 C 
BRANCH  34  37
ATOM     37  O   UNL     1     -36.671  26.665   5.424  0.00  0.00    -0.387 OA
ATOM     38  H   UNL     1     -36.426  26.541   6.355  0.00  0.00    +0.210 HD
ENDBRANCH  34  37
ENDBRANCH  33  34
ENDBRANCH  32  33
ENDBRANCH  29  32
ENDBRANCH  27  29
ENDBRANCH   4  27
TORSDOF 10
ENDMDL
MODEL 5
REMARK VINA RESULT:      -6.0      2.244      9.150
REMARK  Name = 19212
REMARK  10 active torsions:
REMARK  status: ('A' for Active; 'I' for Inactive)
REMARK    1  A    between atoms: C_3  and  O_21
REMARK    2  A    between atoms: C_4  and  C_27
REMARK    3  A    between atoms: C_19  and  O_23
REMARK    4  A    between atoms: C_20  and  O_25
REMARK    5  A    between atoms: C_27  and  C_29
REMARK    6  A    between atoms: C_29  and  O_30
REMARK    7  A    between atoms: C_29  and  C_32
REMARK    8  A    between atoms: C_32  and  C_33
REMARK    9  A    between atoms: C_33  and  C_34
REMARK   10  A    between atoms: C_34  and  O_37
REMARK                            x       y       z     vdW  Elec       q    Type
REMARK                         _______ _______ _______ _____ _____    ______ ____
ROOT
ATOM      1  O   UNL     1     -38.876  27.143   1.034  0.00  0.00    -0.291 OA
ATOM      2  C   UNL     1     -35.945  21.986   1.228  0.00  0.00    +0.026 C 
ATOM      3  C   UNL     1     -36.129  23.225   0.313  0.00  0.00    +0.103 C 
ATOM      4  C   UNL     1     -35.536  20.915   0.183  0.00  0.00    +0.005 C 
ATOM      5  C   UNL     1     -35.669  24.780   2.301  0.00  0.00    +0.021 C 
ATOM      6  C   UNL     1     -36.269  25.911   3.226  0.00  0.00    +0.013 C 
ATOM      7  C   UNL     1     -36.567  24.441   1.101  0.00  0.00    -0.018 C 
ATOM      8  C   UNL     1     -34.851  22.297   2.262  0.00  0.00    +0.003 C 
ATOM      9  C   UNL     1     -36.971  22.656  -0.840  0.00  0.00    +0.031 C 
ATOM     10  C   UNL     1     -35.227  23.522   3.112  0.00  0.00    +0.004 C 
ATOM     11  C   UNL     1     -36.445  21.217  -1.030  0.00  0.00    +0.003 C 
ATOM     12  C   UNL     1     -36.871  27.048   2.356  0.00  0.00    +0.065 C 
ATOM     13  C   UNL     1     -37.253  21.574   1.957  0.00  0.00    +0.003 C 
ATOM     14  C   UNL     1     -35.182  26.525   4.157  0.00  0.00    +0.032 C 
ATOM     15  C   UNL     1     -37.598  25.204   0.709  0.00  0.00    +0.031 C 
ATOM     16  C   UNL     1     -35.811  27.879   1.610  0.00  0.00    +0.039 C 
ATOM     17  C   UNL     1     -37.394  25.362   4.145  0.00  0.00    +0.001 C 
ATOM     18  C   UNL     1     -37.877  26.503   1.360  0.00  0.00    +0.172 C 
ATOM     19  C   UNL     1     -34.132  27.353   3.411  0.00  0.00    +0.137 C 
ATOM     20  C   UNL     1     -34.769  28.457   2.567  0.00  0.00    +0.138 C 
ENDROOT
BRANCH   3  21
ATOM     21  O   UNL     1     -34.856  23.580  -0.275  0.00  0.00    -0.383 OA
ATOM     22  H   UNL     1     -34.598  22.903  -0.920  0.00  0.00    +0.211 HD
ENDBRANCH   3  21
BRANCH  19  23
ATOM     23  O   UNL     1     -33.235  27.945   4.350  0.00  0.00    -0.382 OA
ATOM     24  H   UNL     1     -33.463  28.879   4.470  0.00  0.00    +0.210 HD
ENDBRANCH  19  23
BRANCH  20  25
ATOM     25  O   UNL     1     -35.400  29.404   3.431  0.00  0.00    -0.382 OA
ATOM     26  H   UNL     1     -35.780  30.122   2.900  0.00  0.00    +0.210 HD
ENDBRANCH  20  25
BRANCH   4  27
ATOM     27  C   UNL     1     -35.616  19.462   0.632  0.00  0.00    +0.027 C 
ATOM     28  C   UNL     1     -34.197  18.912   0.844  0.00  0.00    +0.002 C 
BRANCH  27  29
ATOM     29  C   UNL     1     -36.407  18.558  -0.349  0.00  0.00    +0.111 C 
BRANCH  29  30
ATOM     30  O   UNL     1     -37.236  17.651   0.381  0.00  0.00    -0.384 OA
ATOM     31  H   UNL     1     -37.697  17.063  -0.239  0.00  0.00    +0.210 HD
ENDBRANCH  29  30
BRANCH  29  32
ATOM     32  C   UNL     1     -35.545  17.703  -1.294  0.00  0.00    +0.032 C 
BRANCH  32  33
ATOM     33  C   UNL     1     -36.035  16.261  -1.438  0.00  0.00    +0.029 C 
BRANCH  33  34
ATOM     34  C   UNL     1     -35.170  15.192  -0.739  0.00  0.00    +0.089 C 
ATOM     35  C   UNL     1     -33.707  15.623  -0.618  0.00  0.00    +0.029 C 
ATOM     36  C   UNL     1     -35.274  13.824  -1.418  0.00  0.00    +0.029 C 
BRANCH  34  37
ATOM     37  O   UNL     1     -35.695  15.057   0.590  0.00  0.00    -0.387 OA
ATOM     38  H   UNL     1     -35.142  14.439   1.094  0.00  0.00    +0.210 HD
ENDBRANCH  34  37
ENDBRANCH  33  34
ENDBRANCH  32  33
ENDBRANCH  29  32
ENDBRANCH  27  29
ENDBRANCH   4  27
TORSDOF 10
ENDMDL
MODEL 6
REMARK VINA RESULT:      -6.0      2.986     10.286
REMARK  Name = 19212
REMARK  10 active torsions:
REMARK  status: ('A' for Active; 'I' for Inactive)
REMARK    1  A    between atoms: C_3  and  O_21
REMARK    2  A    between atoms: C_4  and  C_27
REMARK    3  A    between atoms: C_19  and  O_23
REMARK    4  A    between atoms: C_20  and  O_25
REMARK    5  A    between atoms: C_27  and  C_29
REMARK    6  A    between atoms: C_29  and  O_30
REMARK    7  A    between atoms: C_29  and  C_32
REMARK    8  A    between atoms: C_32  and  C_33
REMARK    9  A    between atoms: C_33  and  C_34
REMARK   10  A    between atoms: C_34  and  O_37
REMARK                            x       y       z     vdW  Elec       q    Type
REMARK                         _______ _______ _______ _____ _____    ______ ____
ROOT
ATOM      1  O   UNL     1     -31.896  30.789   1.305  0.00  0.00    -0.291 OA
ATOM      2  C   UNL     1     -34.195  26.063   4.062  0.00  0.00    +0.026 C 
ATOM      3  C   UNL     1     -33.179  26.420   2.946  0.00  0.00    +0.103 C 
ATOM      4  C   UNL     1     -34.603  24.629   3.631  0.00  0.00    +0.005 C 
ATOM      5  C   UNL     1     -32.036  28.105   4.507  0.00  0.00    +0.021 C 
ATOM      6  C   UNL     1     -31.674  29.627   4.729  0.00  0.00    +0.013 C 
ATOM      7  C   UNL     1     -32.631  27.821   3.119  0.00  0.00    -0.018 C 
ATOM      8  C   UNL     1     -33.475  26.123   5.419  0.00  0.00    +0.003 C 
ATOM      9  C   UNL     1     -33.928  25.992   1.675  0.00  0.00    +0.031 C 
ATOM     10  C   UNL     1     -32.893  27.523   5.673  0.00  0.00    +0.004 C 
ATOM     11  C   UNL     1     -34.702  24.723   2.091  0.00  0.00    +0.003 C 
ATOM     12  C   UNL     1     -30.996  30.205   3.456  0.00  0.00    +0.065 C 
ATOM     13  C   UNL     1     -35.429  27.005   4.082  0.00  0.00    +0.003 C 
ATOM     14  C   UNL     1     -30.704  29.815   5.932  0.00  0.00    +0.032 C 
ATOM     15  C   UNL     1     -32.586  28.693   2.102  0.00  0.00    +0.031 C 
ATOM     16  C   UNL     1     -29.581  29.651   3.206  0.00  0.00    +0.039 C 
ATOM     17  C   UNL     1     -32.937  30.478   5.029  0.00  0.00    +0.001 C 
ATOM     18  C   UNL     1     -31.853  29.974   2.225  0.00  0.00    +0.172 C 
ATOM     19  C   UNL     1     -29.297  29.266   5.678  0.00  0.00    +0.137 C 
ATOM     20  C   UNL     1     -28.672  29.859   4.416  0.00  0.00    +0.138 C 
ENDROOT
BRANCH   3  21
ATOM     21  O   UNL     1     -32.035  25.540   3.038  0.00  0.00    -0.383 OA
ATOM     22  H   UNL     1     -31.938  25.050   2.206  0.00  0.00    +0.211 HD
ENDBRANCH   3  21
BRANCH  19  23
ATOM     23  O   UNL     1     -28.460  29.562   6.795  0.00  0.00    -0.382 OA
ATOM     24  H   UNL     1     -28.061  30.437   6.677  0.00  0.00    +0.210 HD
ENDBRANCH  19  23
BRANCH  20  25
ATOM     25  O   UNL     1     -28.461  31.260   4.609  0.00  0.00    -0.382 OA
ATOM     26  H   UNL     1     -27.520  31.465   4.490  0.00  0.00    +0.210 HD
ENDBRANCH  20  25
BRANCH   4  27
ATOM     27  C   UNL     1     -35.863  24.060   4.269  0.00  0.00    +0.027 C 
ATOM     28  C   UNL     1     -35.537  22.714   4.935  0.00  0.00    +0.002 C 
BRANCH  27  29
ATOM     29  C   UNL     1     -37.040  23.901   3.272  0.00  0.00    +0.111 C 
BRANCH  29  30
ATOM     30  O   UNL     1     -38.194  24.586   3.763  0.00  0.00    -0.384 OA
ATOM     31  H   UNL     1     -37.988  24.995   4.619  0.00  0.00    +0.210 HD
ENDBRANCH  29  30
BRANCH  29  32
ATOM     32  C   UNL     1     -37.473  22.452   2.994  0.00  0.00    +0.032 C 
BRANCH  32  33
ATOM     33  C   UNL     1     -37.138  21.968   1.581  0.00  0.00    +0.029 C 
BRANCH  33  34
ATOM     34  C   UNL     1     -36.295  20.679   1.503  0.00  0.00    +0.089 C 
ATOM     35  C   UNL     1     -34.797  20.959   1.634  0.00  0.00    +0.029 C 
ATOM     36  C   UNL     1     -36.582  19.872   0.234  0.00  0.00    +0.029 C 
BRANCH  34  37
ATOM     37  O   UNL     1     -36.688  19.875   2.625  0.00  0.00    -0.387 OA
ATOM     38  H   UNL     1     -36.012  19.937   3.319  0.00  0.00    +0.210 HD
ENDBRANCH  34  37
ENDBRANCH  33  34
ENDBRANCH  32  33
ENDBRANCH  29  32
ENDBRANCH  27  29
ENDBRANCH   4  27
TORSDOF 10
ENDMDL
MODEL 7
REMARK VINA RESULT:      -5.9      4.993      7.000
REMARK  Name = 19212
REMARK  10 active torsions:
REMARK  status: ('A' for Active; 'I' for Inactive)
REMARK    1  A    between atoms: C_3  and  O_21
REMARK    2  A    between atoms: C_4  and  C_27
REMARK    3  A    between atoms: C_19  and  O_23
REMARK    4  A    between atoms: C_20  and  O_25
REMARK    5  A    between atoms: C_27  and  C_29
REMARK    6  A    between atoms: C_29  and  O_30
REMARK    7  A    between atoms: C_29  and  C_32
REMARK    8  A    between atoms: C_32  and  C_33
REMARK    9  A    between atoms: C_33  and  C_34
REMARK   10  A    between atoms: C_34  and  O_37
REMARK                            x       y       z     vdW  Elec       q    Type
REMARK                         _______ _______ _______ _____ _____    ______ ____
ROOT
ATOM      1  O   UNL     1     -33.615  24.749   1.738  0.00  0.00    -0.291 OA
ATOM      2  C   UNL     1     -39.545  24.645   1.956  0.00  0.00    +0.026 C 
ATOM      3  C   UNL     1     -38.389  24.925   0.961  0.00  0.00    +0.103 C 
ATOM      4  C   UNL     1     -40.683  25.484   1.318  0.00  0.00    +0.005 C 
ATOM      5  C   UNL     1     -37.265  22.715   1.622  0.00  0.00    +0.021 C 
ATOM      6  C   UNL     1     -35.980  22.056   2.261  0.00  0.00    +0.013 C 
ATOM      7  C   UNL     1     -37.113  24.224   1.377  0.00  0.00    -0.018 C 
ATOM      8  C   UNL     1     -39.822  23.132   1.974  0.00  0.00    +0.003 C 
ATOM      9  C   UNL     1     -38.462  26.451   0.798  0.00  0.00    +0.031 C 
ATOM     10  C   UNL     1     -38.569  22.347   2.396  0.00  0.00    +0.004 C 
ATOM     11  C   UNL     1     -39.972  26.773   0.849  0.00  0.00    +0.003 C 
ATOM     12  C   UNL     1     -34.700  22.610   1.578  0.00  0.00    +0.065 C 
ATOM     13  C   UNL     1     -39.237  25.138   3.396  0.00  0.00    +0.003 C 
ATOM     14  C   UNL     1     -35.992  20.507   2.103  0.00  0.00    +0.032 C 
ATOM     15  C   UNL     1     -35.937  24.867   1.424  0.00  0.00    +0.031 C 
ATOM     16  C   UNL     1     -34.522  22.133   0.125  0.00  0.00    +0.039 C 
ATOM     17  C   UNL     1     -35.881  22.354   3.782  0.00  0.00    +0.001 C 
ATOM     18  C   UNL     1     -34.670  24.127   1.618  0.00  0.00    +0.172 C 
ATOM     19  C   UNL     1     -35.812  20.036   0.657  0.00  0.00    +0.137 C 
ATOM     20  C   UNL     1     -34.543  20.608   0.025  0.00  0.00    +0.138 C 
ENDROOT
BRANCH   3  21
ATOM     21  O   UNL     1     -38.728  24.380  -0.335  0.00  0.00    -0.383 OA
ATOM     22  H   UNL     1     -38.550  23.426  -0.341  0.00  0.00    +0.211 HD
ENDBRANCH   3  21
BRANCH  19  23
ATOM     23  O   UNL     1     -35.747  18.612   0.623  0.00  0.00    -0.382 OA
ATOM     24  H   UNL     1     -36.176  18.250   1.413  0.00  0.00    +0.210 HD
ENDBRANCH  19  23
BRANCH  20  25
ATOM     25  O   UNL     1     -33.401  20.078   0.701  0.00  0.00    -0.382 OA
ATOM     26  H   UNL     1     -32.593  20.441   0.304  0.00  0.00    +0.210 HD
ENDBRANCH  20  25
BRANCH   4  27
ATOM     27  C   UNL     1     -41.895  25.766   2.196  0.00  0.00    +0.027 C 
ATOM     28  C   UNL     1     -43.179  25.420   1.426  0.00  0.00    +0.002 C 
BRANCH  27  29
ATOM     29  C   UNL     1     -41.950  27.225   2.717  0.00  0.00    +0.111 C 
BRANCH  29  30
ATOM     30  O   UNL     1     -41.392  27.299   4.031  0.00  0.00    -0.384 OA
ATOM     31  H   UNL     1     -41.398  28.220   4.334  0.00  0.00    +0.210 HD
ENDBRANCH  29  30
BRANCH  29  32
ATOM     32  C   UNL     1     -43.359  27.838   2.803  0.00  0.00    +0.032 C 
BRANCH  32  33
ATOM     33  C   UNL     1     -43.954  27.818   4.212  0.00  0.00    +0.029 C 
BRANCH  33  34
ATOM     34  C   UNL     1     -44.046  29.188   4.915  0.00  0.00    +0.089 C 
ATOM     35  C   UNL     1     -44.864  29.121   6.206  0.00  0.00    +0.029 C 
ATOM     36  C   UNL     1     -44.588  30.281   3.991  0.00  0.00    +0.029 C 
BRANCH  34  37
ATOM     37  O   UNL     1     -42.702  29.547   5.269  0.00  0.00    -0.387 OA
ATOM     38  H   UNL     1     -42.164  29.615   4.464  0.00  0.00    +0.210 HD
ENDBRANCH  34  37
ENDBRANCH  33  34
ENDBRANCH  32  33
ENDBRANCH  29  32
ENDBRANCH  27  29
ENDBRANCH   4  27
TORSDOF 10
ENDMDL
MODEL 8
REMARK VINA RESULT:      -5.9      1.632      2.091
REMARK  Name = 19212
REMARK  10 active torsions:
REMARK  status: ('A' for Active; 'I' for Inactive)
REMARK    1  A    between atoms: C_3  and  O_21
REMARK    2  A    between atoms: C_4  and  C_27
REMARK    3  A    between atoms: C_19  and  O_23
REMARK    4  A    between atoms: C_20  and  O_25
REMARK    5  A    between atoms: C_27  and  C_29
REMARK    6  A    between atoms: C_29  and  O_30
REMARK    7  A    between atoms: C_29  and  C_32
REMARK    8  A    between atoms: C_32  and  C_33
REMARK    9  A    between atoms: C_33  and  C_34
REMARK   10  A    between atoms: C_34  and  O_37
REMARK                            x       y       z     vdW  Elec       q    Type
REMARK                         _______ _______ _______ _____ _____    ______ ____
ROOT
ATOM      1  O   UNL     1     -37.579  20.313  -3.258  0.00  0.00    -0.291 OA
ATOM      2  C   UNL     1     -35.977  21.909   2.230  0.00  0.00    +0.026 C 
ATOM      3  C   UNL     1     -37.235  21.491   1.424  0.00  0.00    +0.103 C 
ATOM      4  C   UNL     1     -36.628  22.741   3.366  0.00  0.00    +0.005 C 
ATOM      5  C   UNL     1     -35.985  19.446   0.508  0.00  0.00    +0.021 C 
ATOM      6  C   UNL     1     -35.443  18.735  -0.795  0.00  0.00    +0.013 C 
ATOM      7  C   UNL     1     -36.869  20.666   0.208  0.00  0.00    -0.018 C 
ATOM      8  C   UNL     1     -35.262  20.639   2.718  0.00  0.00    +0.003 C 
ATOM      9  C   UNL     1     -38.002  22.817   1.306  0.00  0.00    +0.031 C 
ATOM     10  C   UNL     1     -34.851  19.747   1.535  0.00  0.00    +0.004 C 
ATOM     11  C   UNL     1     -37.745  23.533   2.650  0.00  0.00    +0.003 C 
ATOM     12  C   UNL     1     -36.571  18.640  -1.859  0.00  0.00    +0.065 C 
ATOM     13  C   UNL     1     -34.991  22.780   1.404  0.00  0.00    +0.003 C 
ATOM     14  C   UNL     1     -34.929  17.298  -0.491  0.00  0.00    +0.032 C 
ATOM     15  C   UNL     1     -37.369  20.937  -1.007  0.00  0.00    +0.031 C 
ATOM     16  C   UNL     1     -37.686  17.646  -1.485  0.00  0.00    +0.039 C 
ATOM     17  C   UNL     1     -34.256  19.517  -1.421  0.00  0.00    +0.001 C 
ATOM     18  C   UNL     1     -37.180  20.001  -2.137  0.00  0.00    +0.172 C 
ATOM     19  C   UNL     1     -36.041  16.312  -0.123  0.00  0.00    +0.137 C 
ATOM     20  C   UNL     1     -37.129  16.253  -1.196  0.00  0.00    +0.138 C 
ENDROOT
BRANCH   3  21
ATOM     21  O   UNL     1     -38.065  20.633   2.241  0.00  0.00    -0.383 OA
ATOM     22  H   UNL     1     -38.359  21.121   3.026  0.00  0.00    +0.211 HD
ENDBRANCH   3  21
BRANCH  19  23
ATOM     23  O   UNL     1     -35.487  15.009   0.050  0.00  0.00    -0.382 OA
ATOM     24  H   UNL     1     -34.878  15.015   0.804  0.00  0.00    +0.210 HD
ENDBRANCH  19  23
BRANCH  20  25
ATOM     25  O   UNL     1     -36.575  15.710  -2.397  0.00  0.00    -0.382 OA
ATOM     26  H   UNL     1     -37.167  15.904  -3.141  0.00  0.00    +0.210 HD
ENDBRANCH  20  25
BRANCH   4  27
ATOM     27  C   UNL     1     -35.696  23.636   4.173  0.00  0.00    +0.027 C 
ATOM     28  C   UNL     1     -34.954  22.791   5.220  0.00  0.00    +0.002 C 
BRANCH  27  29
ATOM     29  C   UNL     1     -36.421  24.827   4.850  0.00  0.00    +0.111 C 
BRANCH  29  30
ATOM     30  O   UNL     1     -37.792  24.858   4.448  0.00  0.00    -0.384 OA
ATOM     31  H   UNL     1     -37.848  24.790   3.481  0.00  0.00    +0.210 HD
ENDBRANCH  29  30
BRANCH  29  32
ATOM     32  C   UNL     1     -35.838  26.215   4.534  0.00  0.00    +0.032 C 
BRANCH  32  33
ATOM     33  C   UNL     1     -35.193  26.312   3.150  0.00  0.00    +0.029 C 
BRANCH  33  34
ATOM     34  C   UNL     1     -36.032  27.034   2.075  0.00  0.00    +0.089 C 
ATOM     35  C   UNL     1     -36.059  26.265   0.753  0.00  0.00    +0.029 C 
ATOM     36  C   UNL     1     -35.572  28.476   1.850  0.00  0.00    +0.029 C 
BRANCH  34  37
ATOM     37  O   UNL     1     -37.375  27.081   2.579  0.00  0.00    -0.387 OA
ATOM     38  H   UNL     1     -37.355  27.086   3.550  0.00  0.00    +0.210 HD
ENDBRANCH  34  37
ENDBRANCH  33  34
ENDBRANCH  32  33
ENDBRANCH  29  32
ENDBRANCH  27  29
ENDBRANCH   4  27
TORSDOF 10
ENDMDL
MODEL 9
REMARK VINA RESULT:      -5.8      3.079      9.522
REMARK  Name = 19212
REMARK  10 active torsions:
REMARK  status: ('A' for Active; 'I' for Inactive)
REMARK    1  A    between atoms: C_3  and  O_21
REMARK    2  A    between atoms: C_4  and  C_27
REMARK    3  A    between atoms: C_19  and  O_23
REMARK    4  A    between atoms: C_20  and  O_25
REMARK    5  A    between atoms: C_27  and  C_29
REMARK    6  A    between atoms: C_29  and  O_30
REMARK    7  A    between atoms: C_29  and  C_32
REMARK    8  A    between atoms: C_32  and  C_33
REMARK    9  A    between atoms: C_33  and  C_34
REMARK   10  A    between atoms: C_34  and  O_37
REMARK                            x       y       z     vdW  Elec       q    Type
REMARK                         _______ _______ _______ _____ _____    ______ ____
ROOT
ATOM      1  O   UNL     1     -31.970  29.609   3.176  0.00  0.00    -0.291 OA
ATOM      2  C   UNL     1     -35.532  24.900   3.775  0.00  0.00    +0.026 C 
ATOM      3  C   UNL     1     -35.144  26.208   4.512  0.00  0.00    +0.103 C 
ATOM      4  C   UNL     1     -36.015  24.031   4.967  0.00  0.00    +0.005 C 
ATOM      5  C   UNL     1     -35.513  27.549   2.356  0.00  0.00    +0.021 C 
ATOM      6  C   UNL     1     -34.828  28.466   1.268  0.00  0.00    +0.013 C 
ATOM      7  C   UNL     1     -34.600  27.247   3.554  0.00  0.00    -0.018 C 
ATOM      8  C   UNL     1     -36.634  25.220   2.752  0.00  0.00    +0.003 C 
ATOM      9  C   UNL     1     -34.317  25.682   5.696  0.00  0.00    +0.031 C 
ATOM     10  C   UNL     1     -36.154  26.269   1.735  0.00  0.00    +0.004 C 
ATOM     11  C   UNL     1     -35.009  24.360   6.094  0.00  0.00    +0.003 C 
ATOM     12  C   UNL     1     -34.041  29.614   1.957  0.00  0.00    +0.065 C 
ATOM     13  C   UNL     1     -34.329  24.230   3.056  0.00  0.00    +0.003 C 
ATOM     14  C   UNL     1     -35.879  29.097   0.308  0.00  0.00    +0.032 C 
ATOM     15  C   UNL     1     -33.462  27.911   3.803  0.00  0.00    +0.031 C 
ATOM     16  C   UNL     1     -34.945  30.665   2.628  0.00  0.00    +0.039 C 
ATOM     17  C   UNL     1     -33.834  27.663   0.386  0.00  0.00    +0.001 C 
ATOM     18  C   UNL     1     -33.057  29.070   2.976  0.00  0.00    +0.172 C 
ATOM     19  C   UNL     1     -36.774  30.143   0.978  0.00  0.00    +0.137 C 
ATOM     20  C   UNL     1     -35.957  31.250   1.645  0.00  0.00    +0.138 C 
ENDROOT
BRANCH   3  21
ATOM     21  O   UNL     1     -36.327  26.799   5.097  0.00  0.00    -0.383 OA
ATOM     22  H   UNL     1     -36.085  27.268   5.911  0.00  0.00    +0.211 HD
ENDBRANCH   3  21
BRANCH  19  23
ATOM     23  O   UNL     1     -37.640  30.725   0.005  0.00  0.00    -0.382 OA
ATOM     24  H   UNL     1     -38.071  31.508   0.383  0.00  0.00    +0.210 HD
ENDBRANCH  19  23
BRANCH  20  25
ATOM     25  O   UNL     1     -35.261  31.990   0.640  0.00  0.00    -0.382 OA
ATOM     26  H   UNL     1     -35.780  32.774   0.398  0.00  0.00    +0.210 HD
ENDBRANCH  20  25
BRANCH   4  27
ATOM     27  C   UNL     1     -36.143  22.535   4.710  0.00  0.00    +0.027 C 
ATOM     28  C   UNL     1     -35.007  21.792   5.430  0.00  0.00    +0.002 C 
BRANCH  27  29
ATOM     29  C   UNL     1     -36.162  22.170   3.204  0.00  0.00    +0.111 C 
BRANCH  29  30
ATOM     30  O   UNL     1     -37.502  21.914   2.778  0.00  0.00    -0.384 OA
ATOM     31  H   UNL     1     -37.521  21.114   2.229  0.00  0.00    +0.210 HD
ENDBRANCH  29  30
BRANCH  29  32
ATOM     32  C   UNL     1     -35.335  20.931   2.819  0.00  0.00    +0.032 C 
BRANCH  32  33
ATOM     33  C   UNL     1     -34.799  20.969   1.386  0.00  0.00    +0.029 C 
BRANCH  33  34
ATOM     34  C   UNL     1     -34.603  19.595   0.713  0.00  0.00    +0.089 C 
ATOM     35  C   UNL     1     -33.407  18.835   1.291  0.00  0.00    +0.029 C 
ATOM     36  C   UNL     1     -34.487  19.703  -0.809  0.00  0.00    +0.029 C 
BRANCH  34  37
ATOM     37  O   UNL     1     -35.784  18.834   1.004  0.00  0.00    -0.387 OA
ATOM     38  H   UNL     1     -35.863  18.715   1.964  0.00  0.00    +0.210 HD
ENDBRANCH  34  37
ENDBRANCH  33  34
ENDBRANCH  32  33
ENDBRANCH  29  32
ENDBRANCH  27  29
ENDBRANCH   4  27
TORSDOF 10
ENDMDL
