MODEL 1
REMARK VINA RESULT:      -6.5      0.000      0.000
REMARK  Name = 5311439
REMARK  13 active torsions:
REMARK  status: ('A' for Active; 'I' for Inactive)
REMARK    1  A    between atoms: C_1  and  C_4
REMARK    2  A    between atoms: C_1  and  N_17
REMARK    3  A    between atoms: C_1  and  C_33
REMARK    4  A    between atoms: N_3  and  C_6
REMARK    5  A    between atoms: C_6  and  C_8
REMARK    6  A    between atoms: C_13  and  O_14
REMARK    7  A    between atoms: C_18  and  C_20
REMARK    8  A    between atoms: C_20  and  C_21
REMARK    9  A    between atoms: C_20  and  C_27
REMARK   10  A    between atoms: C_33  and  C_34
REMARK   11  A    between atoms: C_34  and  C_35
REMARK   12  A    between atoms: C_35  and  N_36
REMARK   13  A    between atoms: N_36  and  C_39
REMARK                            x       y       z     vdW  Elec       q    Type
REMARK                         _______ _______ _______ _____ _____    ______ ____
ROOT
ATOM      1  C   UNL     1     -35.688  22.239   3.650  0.00  0.00    +0.149 C 
ENDROOT
BRANCH   1   4
ATOM      2  O   UNL     1     -37.619  23.705   3.649  0.00  0.00    -0.273 OA
ATOM      3  N   UNL     1     -37.481  22.040   2.038  0.00  0.00    -0.301 N 
ATOM      4  C   UNL     1     -37.032  22.751   3.141  0.00  0.00    +0.241 C 
ATOM      5  H   UNL     1     -36.935  21.291   1.707  0.00  0.00    +0.150 HD
BRANCH   3   6
ATOM      6  C   UNL     1     -38.714  22.353   1.352  0.00  0.00    +0.094 C 
ATOM      7  C   UNL     1     -39.859  21.522   1.929  0.00  0.00    +0.026 C 
BRANCH   6   8
ATOM      8  C   UNL     1     -38.572  22.186  -0.145  0.00  0.00    -0.004 C 
ATOM      9  C   UNL     1     -39.652  21.731  -0.902  0.00  0.00    +0.000 C 
ATOM     10  C   UNL     1     -37.361  22.485  -0.768  0.00  0.00    +0.000 C 
ATOM     11  C   UNL     1     -39.521  21.576  -2.281  0.00  0.00    +0.036 C 
ATOM     12  C   UNL     1     -37.230  22.330  -2.148  0.00  0.00    +0.036 C 
ATOM     13  C   UNL     1     -38.310  21.875  -2.905  0.00  0.00    +0.134 C 
BRANCH  13  14
ATOM     14  O   UNL     1     -38.181  21.725  -4.251  0.00  0.00    -0.506 OA
ATOM     15  H   UNL     1     -37.368  21.932  -4.670  0.00  0.00    +0.292 HD
ENDBRANCH  13  14
ENDBRANCH   6   8
ENDBRANCH   3   6
ENDBRANCH   1   4
BRANCH   1  17
ATOM     16  O   UNL     1     -34.417  22.002   1.094  0.00  0.00    -0.274 OA
ATOM     17  N   UNL     1     -35.368  21.014   2.962  0.00  0.00    -0.298 N 
ATOM     18  C   UNL     1     -34.746  20.995   1.718  0.00  0.00    +0.231 C 
ATOM     19  H   UNL     1     -35.598  20.157   3.391  0.00  0.00    +0.150 HD
BRANCH  18  20
ATOM     20  C   UNL     1     -34.511  19.572   1.202  0.00  0.00    +0.121 C 
BRANCH  20  21
ATOM     21  C   UNL     1     -33.052  19.293   0.860  0.00  0.00    -0.010 C 
ATOM     22  C   UNL     1     -32.452  18.104   1.276  0.00  0.00    -0.003 C 
ATOM     23  C   UNL     1     -32.316  20.228   0.133  0.00  0.00    -0.003 C 
ATOM     24  C   UNL     1     -31.117  17.850   0.964  0.00  0.00    -0.000 C 
ATOM     25  C   UNL     1     -30.980  19.974  -0.181  0.00  0.00    -0.000 C 
ATOM     26  C   UNL     1     -30.381  18.785   0.235  0.00  0.00    -0.000 C 
ENDBRANCH  20  21
BRANCH  20  27
ATOM     27  C   UNL     1     -35.469  19.205   0.075  0.00  0.00    -0.010 C 
ATOM     28  C   UNL     1     -35.011  19.158  -1.242  0.00  0.00    -0.003 C 
ATOM     29  C   UNL     1     -36.804  18.917   0.360  0.00  0.00    -0.003 C 
ATOM     30  C   UNL     1     -35.888  18.821  -2.273  0.00  0.00    -0.000 C 
ATOM     31  C   UNL     1     -37.681  18.581  -0.670  0.00  0.00    -0.000 C 
ATOM     32  C   UNL     1     -37.223  18.532  -1.987  0.00  0.00    -0.000 C 
ENDBRANCH  20  27
ENDBRANCH  18  20
ENDBRANCH   1  17
BRANCH   1  33
ATOM     33  C   UNL     1     -35.649  22.076   5.174  0.00  0.00    +0.031 C 
BRANCH  33  34
ATOM     34  C   UNL     1     -34.945  23.227   5.908  0.00  0.00    +0.029 C 
BRANCH  34  35
ATOM     35  C   UNL     1     -34.346  24.247   4.944  0.00  0.00    +0.129 C 
BRANCH  35  36
ATOM     36  N   UNL     1     -34.543  25.602   5.464  0.00  0.00    -0.240 NA
BRANCH  36  39
ATOM     37  N   UNL     1     -35.238  27.332   3.949  0.00  0.00    -0.370 N 
ATOM     38  N   UNL     1     -36.773  26.142   5.142  0.00  0.00    -0.370 N 
ATOM     39  C   UNL     1     -35.438  26.329   4.873  0.00  0.00    +0.189 C 
ATOM     40  H   UNL     1     -34.324  27.566   3.668  0.00  0.00    +0.159 HD
ATOM     41  H   UNL     1     -36.009  27.813   3.570  0.00  0.00    +0.159 HD
ATOM     42  H   UNL     1     -37.054  25.454   5.787  0.00  0.00    +0.159 HD
ATOM     43  H   UNL     1     -37.449  26.697   4.690  0.00  0.00    +0.159 HD
ENDBRANCH  36  39
ENDBRANCH  35  36
ENDBRANCH  34  35
ENDBRANCH  33  34
ENDBRANCH   1  33
TORSDOF 13
ENDMDL
MODEL 2
REMARK VINA RESULT:      -6.3      2.561      5.750
REMARK  Name = 5311439
REMARK  13 active torsions:
REMARK  status: ('A' for Active; 'I' for Inactive)
REMARK    1  A    between atoms: C_1  and  C_4
REMARK    2  A    between atoms: C_1  and  N_17
REMARK    3  A    between atoms: C_1  and  C_33
REMARK    4  A    between atoms: N_3  and  C_6
REMARK    5  A    between atoms: C_6  and  C_8
REMARK    6  A    between atoms: C_13  and  O_14
REMARK    7  A    between atoms: C_18  and  C_20
REMARK    8  A    between atoms: C_20  and  C_21
REMARK    9  A    between atoms: C_20  and  C_27
REMARK   10  A    between atoms: C_33  and  C_34
REMARK   11  A    between atoms: C_34  and  C_35
REMARK   12  A    between atoms: C_35  and  N_36
REMARK   13  A    between atoms: N_36  and  C_39
REMARK                            x       y       z     vdW  Elec       q    Type
REMARK                         _______ _______ _______ _____ _____    ______ ____
ROOT
ATOM      1  C   UNL     1     -38.701  20.701  -0.047  0.00  0.00    +0.149 C 
ENDROOT
BRANCH   1   4
ATOM      2  O   UNL     1     -39.440  19.636  -2.097  0.00  0.00    -0.273 OA
ATOM      3  N   UNL     1     -38.268  18.373  -0.542  0.00  0.00    -0.301 N 
ATOM      4  C   UNL     1     -38.865  19.532  -1.014  0.00  0.00    +0.241 C 
ATOM      5  H   UNL     1     -37.832  18.394   0.340  0.00  0.00    +0.150 HD
BRANCH   3   6
ATOM      6  C   UNL     1     -38.258  17.136  -1.289  0.00  0.00    +0.094 C 
ATOM      7  C   UNL     1     -39.448  16.268  -0.883  0.00  0.00    +0.026 C 
BRANCH   6   8
ATOM      8  C   UNL     1     -36.936  16.413  -1.144  0.00  0.00    -0.004 C 
ATOM      9  C   UNL     1     -35.806  17.106  -0.710  0.00  0.00    +0.000 C 
ATOM     10  C   UNL     1     -36.847  15.055  -1.446  0.00  0.00    +0.000 C 
ATOM     11  C   UNL     1     -34.588  16.441  -0.577  0.00  0.00    +0.036 C 
ATOM     12  C   UNL     1     -35.628  14.389  -1.314  0.00  0.00    +0.036 C 
ATOM     13  C   UNL     1     -34.498  15.083  -0.880  0.00  0.00    +0.134 C 
BRANCH  13  14
ATOM     14  O   UNL     1     -33.310  14.432  -0.750  0.00  0.00    -0.506 OA
ATOM     15  H   UNL     1     -32.581  14.864  -0.348  0.00  0.00    +0.292 HD
ENDBRANCH  13  14
ENDBRANCH   6   8
ENDBRANCH   3   6
ENDBRANCH   1   4
BRANCH   1  17
ATOM     16  O   UNL     1     -36.392  22.321   0.450  0.00  0.00    -0.274 OA
ATOM     17  N   UNL     1     -37.625  20.402   0.863  0.00  0.00    -0.298 N 
ATOM     18  C   UNL     1     -36.539  21.253   1.041  0.00  0.00    +0.231 C 
ATOM     19  H   UNL     1     -37.661  19.565   1.380  0.00  0.00    +0.150 HD
BRANCH  18  20
ATOM     20  C   UNL     1     -35.534  20.714   2.064  0.00  0.00    +0.121 C 
BRANCH  20  21
ATOM     21  C   UNL     1     -35.354  21.633   3.267  0.00  0.00    -0.010 C 
ATOM     22  C   UNL     1     -35.217  23.010   3.080  0.00  0.00    -0.003 C 
ATOM     23  C   UNL     1     -35.323  21.099   4.554  0.00  0.00    -0.003 C 
ATOM     24  C   UNL     1     -35.051  23.850   4.180  0.00  0.00    -0.000 C 
ATOM     25  C   UNL     1     -35.158  21.939   5.656  0.00  0.00    -0.000 C 
ATOM     26  C   UNL     1     -35.022  23.314   5.469  0.00  0.00    -0.000 C 
ENDBRANCH  20  21
BRANCH  20  27
ATOM     27  C   UNL     1     -34.214  20.314   1.416  0.00  0.00    -0.010 C 
ATOM     28  C   UNL     1     -33.593  21.175   0.511  0.00  0.00    -0.003 C 
ATOM     29  C   UNL     1     -33.628  19.087   1.727  0.00  0.00    -0.003 C 
ATOM     30  C   UNL     1     -32.384  20.809  -0.082  0.00  0.00    -0.000 C 
ATOM     31  C   UNL     1     -32.420  18.721   1.134  0.00  0.00    -0.000 C 
ATOM     32  C   UNL     1     -31.798  19.581   0.230  0.00  0.00    -0.000 C 
ENDBRANCH  20  27
ENDBRANCH  18  20
ENDBRANCH   1  17
BRANCH   1  33
ATOM     33  C   UNL     1     -40.000  21.054   0.687  0.00  0.00    +0.031 C 
BRANCH  33  34
ATOM     34  C   UNL     1     -39.784  21.694   2.067  0.00  0.00    +0.029 C 
BRANCH  34  35
ATOM     35  C   UNL     1     -39.705  23.216   1.994  0.00  0.00    +0.129 C 
BRANCH  35  36
ATOM     36  N   UNL     1     -38.686  23.709   2.923  0.00  0.00    -0.240 NA
BRANCH  36  39
ATOM     37  N   UNL     1     -38.015  25.922   3.574  0.00  0.00    -0.370 N 
ATOM     38  N   UNL     1     -40.125  25.172   3.999  0.00  0.00    -0.370 N 
ATOM     39  C   UNL     1     -38.898  24.870   3.458  0.00  0.00    +0.189 C 
ATOM     40  H   UNL     1     -37.098  25.835   3.225  0.00  0.00    +0.159 HD
ATOM     41  H   UNL     1     -38.301  26.759   4.006  0.00  0.00    +0.159 HD
ATOM     42  H   UNL     1     -40.848  24.505   3.982  0.00  0.00    +0.159 HD
ATOM     43  H   UNL     1     -40.281  26.055   4.405  0.00  0.00    +0.159 HD
ENDBRANCH  36  39
ENDBRANCH  35  36
ENDBRANCH  34  35
ENDBRANCH  33  34
ENDBRANCH   1  33
TORSDOF 13
ENDMDL
MODEL 3
REMARK VINA RESULT:      -6.2      2.210      5.278
REMARK  Name = 5311439
REMARK  13 active torsions:
REMARK  status: ('A' for Active; 'I' for Inactive)
REMARK    1  A    between atoms: C_1  and  C_4
REMARK    2  A    between atoms: C_1  and  N_17
REMARK    3  A    between atoms: C_1  and  C_33
REMARK    4  A    between atoms: N_3  and  C_6
REMARK    5  A    between atoms: C_6  and  C_8
REMARK    6  A    between atoms: C_13  and  O_14
REMARK    7  A    between atoms: C_18  and  C_20
REMARK    8  A    between atoms: C_20  and  C_21
REMARK    9  A    between atoms: C_20  and  C_27
REMARK   10  A    between atoms: C_33  and  C_34
REMARK   11  A    between atoms: C_34  and  C_35
REMARK   12  A    between atoms: C_35  and  N_36
REMARK   13  A    between atoms: N_36  and  C_39
REMARK                            x       y       z     vdW  Elec       q    Type
REMARK                         _______ _______ _______ _____ _____    ______ ____
ROOT
ATOM      1  C   UNL     1     -38.668  22.830  -0.272  0.00  0.00    +0.149 C 
ENDROOT
BRANCH   1   4
ATOM      2  O   UNL     1     -39.464  21.988  -2.403  0.00  0.00    -0.273 OA
ATOM      3  N   UNL     1     -38.675  20.476  -0.829  0.00  0.00    -0.301 N 
ATOM      4  C   UNL     1     -38.996  21.744  -1.292  0.00  0.00    +0.241 C 
ATOM      5  H   UNL     1     -38.303  20.387   0.078  0.00  0.00    +0.150 HD
BRANCH   3   6
ATOM      6  C   UNL     1     -38.861  19.281  -1.620  0.00  0.00    +0.094 C 
ATOM      7  C   UNL     1     -40.344  18.926  -1.692  0.00  0.00    +0.026 C 
BRANCH   6   8
ATOM      8  C   UNL     1     -38.013  18.139  -1.104  0.00  0.00    -0.004 C 
ATOM      9  C   UNL     1     -38.605  16.912  -0.803  0.00  0.00    +0.000 C 
ATOM     10  C   UNL     1     -36.641  18.312  -0.927  0.00  0.00    +0.000 C 
ATOM     11  C   UNL     1     -37.825  15.859  -0.326  0.00  0.00    +0.036 C 
ATOM     12  C   UNL     1     -35.861  17.260  -0.450  0.00  0.00    +0.036 C 
ATOM     13  C   UNL     1     -36.453  16.033  -0.149  0.00  0.00    +0.134 C 
BRANCH  13  14
ATOM     14  O   UNL     1     -35.690  15.006   0.316  0.00  0.00    -0.506 OA
ATOM     15  H   UNL     1     -35.715  14.173  -0.113  0.00  0.00    +0.292 HD
ENDBRANCH  13  14
ENDBRANCH   6   8
ENDBRANCH   3   6
ENDBRANCH   1   4
BRANCH   1  17
ATOM     16  O   UNL     1     -36.063  23.806   0.408  0.00  0.00    -0.274 OA
ATOM     17  N   UNL     1     -37.781  22.282   0.722  0.00  0.00    -0.298 N 
ATOM     18  C   UNL     1     -36.528  22.825   0.986  0.00  0.00    +0.231 C 
ATOM     19  H   UNL     1     -38.075  21.494   1.234  0.00  0.00    +0.150 HD
BRANCH  18  20
ATOM     20  C   UNL     1     -35.781  22.066   2.087  0.00  0.00    +0.121 C 
BRANCH  20  21
ATOM     21  C   UNL     1     -35.312  22.968   3.223  0.00  0.00    -0.010 C 
ATOM     22  C   UNL     1     -34.548  24.102   2.944  0.00  0.00    -0.003 C 
ATOM     23  C   UNL     1     -35.643  22.657   4.542  0.00  0.00    -0.003 C 
ATOM     24  C   UNL     1     -34.118  24.926   3.983  0.00  0.00    -0.000 C 
ATOM     25  C   UNL     1     -35.213  23.482   5.582  0.00  0.00    -0.000 C 
ATOM     26  C   UNL     1     -34.451  24.616   5.303  0.00  0.00    -0.000 C 
ENDBRANCH  20  21
BRANCH  20  27
ATOM     27  C   UNL     1     -34.671  21.186   1.526  0.00  0.00    -0.010 C 
ATOM     28  C   UNL     1     -33.838  21.674   0.518  0.00  0.00    -0.003 C 
ATOM     29  C   UNL     1     -34.488  19.894   2.018  0.00  0.00    -0.003 C 
ATOM     30  C   UNL     1     -32.821  20.869   0.004  0.00  0.00    -0.000 C 
ATOM     31  C   UNL     1     -33.472  19.089   1.504  0.00  0.00    -0.000 C 
ATOM     32  C   UNL     1     -32.638  19.576   0.497  0.00  0.00    -0.000 C 
ENDBRANCH  20  27
ENDBRANCH  18  20
ENDBRANCH   1  17
BRANCH   1  33
ATOM     33  C   UNL     1     -39.919  23.461   0.351  0.00  0.00    +0.031 C 
BRANCH  33  34
ATOM     34  C   UNL     1     -40.135  23.093   1.827  0.00  0.00    +0.029 C 
BRANCH  34  35
ATOM     35  C   UNL     1     -40.030  24.306   2.747  0.00  0.00    +0.129 C 
BRANCH  35  36
ATOM     36  N   UNL     1     -38.701  24.355   3.360  0.00  0.00    -0.240 NA
BRANCH  36  39
ATOM     37  N   UNL     1     -37.684  26.032   1.974  0.00  0.00    -0.370 N 
ATOM     38  N   UNL     1     -37.509  26.134   4.244  0.00  0.00    -0.370 N 
ATOM     39  C   UNL     1     -38.011  25.436   3.172  0.00  0.00    +0.189 C 
ATOM     40  H   UNL     1     -37.984  25.631   1.126  0.00  0.00    +0.159 HD
ATOM     41  H   UNL     1     -37.149  26.859   1.966  0.00  0.00    +0.159 HD
ATOM     42  H   UNL     1     -37.671  25.813   5.161  0.00  0.00    +0.159 HD
ATOM     43  H   UNL     1     -36.985  26.954   4.096  0.00  0.00    +0.159 HD
ENDBRANCH  36  39
ENDBRANCH  35  36
ENDBRANCH  34  35
ENDBRANCH  33  34
ENDBRANCH   1  33
TORSDOF 13
ENDMDL
MODEL 4
REMARK VINA RESULT:      -6.2      2.596      6.737
REMARK  Name = 5311439
REMARK  13 active torsions:
REMARK  status: ('A' for Active; 'I' for Inactive)
REMARK    1  A    between atoms: C_1  and  C_4
REMARK    2  A    between atoms: C_1  and  N_17
REMARK    3  A    between atoms: C_1  and  C_33
REMARK    4  A    between atoms: N_3  and  C_6
REMARK    5  A    between atoms: C_6  and  C_8
REMARK    6  A    between atoms: C_13  and  O_14
REMARK    7  A    between atoms: C_18  and  C_20
REMARK    8  A    between atoms: C_20  and  C_21
REMARK    9  A    between atoms: C_20  and  C_27
REMARK   10  A    between atoms: C_33  and  C_34
REMARK   11  A    between atoms: C_34  and  C_35
REMARK   12  A    between atoms: C_35  and  N_36
REMARK   13  A    between atoms: N_36  and  C_39
REMARK                            x       y       z     vdW  Elec       q    Type
REMARK                         _______ _______ _______ _____ _____    ______ ____
ROOT
ATOM      1  C   UNL     1     -37.616  22.565  -0.520  0.00  0.00    +0.149 C 
ENDROOT
BRANCH   1   4
ATOM      2  O   UNL     1     -38.404  24.821  -0.935  0.00  0.00    -0.273 OA
ATOM      3  N   UNL     1     -36.330  24.528   0.065  0.00  0.00    -0.301 N 
ATOM      4  C   UNL     1     -37.514  24.087  -0.507  0.00  0.00    +0.241 C 
ATOM      5  H   UNL     1     -35.680  23.858   0.378  0.00  0.00    +0.150 HD
BRANCH   3   6
ATOM      6  C   UNL     1     -36.009  25.928   0.223  0.00  0.00    +0.094 C 
ATOM      7  C   UNL     1     -35.334  26.458  -1.040  0.00  0.00    +0.026 C 
BRANCH   6   8
ATOM      8  C   UNL     1     -35.182  26.169   1.468  0.00  0.00    -0.004 C 
ATOM      9  C   UNL     1     -35.611  27.090   2.423  0.00  0.00    +0.000 C 
ATOM     10  C   UNL     1     -33.990  25.471   1.659  0.00  0.00    +0.000 C 
ATOM     11  C   UNL     1     -34.849  27.313   3.569  0.00  0.00    +0.036 C 
ATOM     12  C   UNL     1     -33.227  25.694   2.805  0.00  0.00    +0.036 C 
ATOM     13  C   UNL     1     -33.657  26.616   3.760  0.00  0.00    +0.134 C 
BRANCH  13  14
ATOM     14  O   UNL     1     -32.912  26.833   4.879  0.00  0.00    -0.506 OA
ATOM     15  H   UNL     1     -33.235  26.563   5.716  0.00  0.00    +0.292 HD
ENDBRANCH  13  14
ENDBRANCH   6   8
ENDBRANCH   3   6
ENDBRANCH   1   4
BRANCH   1  17
ATOM     16  O   UNL     1     -38.289  21.223   1.919  0.00  0.00    -0.274 OA
ATOM     17  N   UNL     1     -36.692  22.029   0.445  0.00  0.00    -0.298 N 
ATOM     18  C   UNL     1     -37.111  21.389   1.607  0.00  0.00    +0.231 C 
ATOM     19  H   UNL     1     -35.726  22.119   0.275  0.00  0.00    +0.150 HD
BRANCH  18  20
ATOM     20  C   UNL     1     -35.938  20.906   2.466  0.00  0.00    +0.121 C 
BRANCH  20  21
ATOM     21  C   UNL     1     -35.702  21.773   3.698  0.00  0.00    -0.010 C 
ATOM     22  C   UNL     1     -35.119  21.220   4.839  0.00  0.00    -0.003 C 
ATOM     23  C   UNL     1     -36.070  23.118   3.685  0.00  0.00    -0.003 C 
ATOM     24  C   UNL     1     -34.904  22.013   5.966  0.00  0.00    -0.000 C 
ATOM     25  C   UNL     1     -35.855  23.912   4.812  0.00  0.00    -0.000 C 
ATOM     26  C   UNL     1     -35.272  23.359   5.952  0.00  0.00    -0.000 C 
ENDBRANCH  20  21
BRANCH  20  27
ATOM     27  C   UNL     1     -34.676  20.684   1.641  0.00  0.00    -0.010 C 
ATOM     28  C   UNL     1     -34.144  21.730   0.886  0.00  0.00    -0.003 C 
ATOM     29  C   UNL     1     -34.054  19.436   1.641  0.00  0.00    -0.003 C 
ATOM     30  C   UNL     1     -32.988  21.527   0.132  0.00  0.00    -0.000 C 
ATOM     31  C   UNL     1     -32.899  19.233   0.886  0.00  0.00    -0.000 C 
ATOM     32  C   UNL     1     -32.366  20.278   0.132  0.00  0.00    -0.000 C 
ENDBRANCH  20  27
ENDBRANCH  18  20
ENDBRANCH   1  17
BRANCH   1  33
ATOM     33  C   UNL     1     -37.410  21.965  -1.916  0.00  0.00    +0.031 C 
BRANCH  33  34
ATOM     34  C   UNL     1     -36.147  21.099  -2.043  0.00  0.00    +0.029 C 
BRANCH  34  35
ATOM     35  C   UNL     1     -36.475  19.619  -2.217  0.00  0.00    +0.129 C 
BRANCH  35  36
ATOM     36  N   UNL     1     -36.275  18.911  -0.951  0.00  0.00    -0.240 NA
BRANCH  36  39
ATOM     37  N   UNL     1     -38.618  18.947  -0.420  0.00  0.00    -0.370 N 
ATOM     38  N   UNL     1     -37.260  17.316   0.411  0.00  0.00    -0.370 N 
ATOM     39  C   UNL     1     -37.336  18.445  -0.369  0.00  0.00    +0.189 C 
ATOM     40  H   UNL     1     -38.809  19.756  -0.948  0.00  0.00    +0.159 HD
ATOM     41  H   UNL     1     -39.343  18.496   0.071  0.00  0.00    +0.159 HD
ATOM     42  H   UNL     1     -36.398  16.857   0.532  0.00  0.00    +0.159 HD
ATOM     43  H   UNL     1     -38.069  16.966   0.851  0.00  0.00    +0.159 HD
ENDBRANCH  36  39
ENDBRANCH  35  36
ENDBRANCH  34  35
ENDBRANCH  33  34
ENDBRANCH   1  33
TORSDOF 13
ENDMDL
MODEL 5
REMARK VINA RESULT:      -6.1      2.950      6.456
REMARK  Name = 5311439
REMARK  13 active torsions:
REMARK  status: ('A' for Active; 'I' for Inactive)
REMARK    1  A    between atoms: C_1  and  C_4
REMARK    2  A    between atoms: C_1  and  N_17
REMARK    3  A    between atoms: C_1  and  C_33
REMARK    4  A    between atoms: N_3  and  C_6
REMARK    5  A    between atoms: C_6  and  C_8
REMARK    6  A    between atoms: C_13  and  O_14
REMARK    7  A    between atoms: C_18  and  C_20
REMARK    8  A    between atoms: C_20  and  C_21
REMARK    9  A    between atoms: C_20  and  C_27
REMARK   10  A    between atoms: C_33  and  C_34
REMARK   11  A    between atoms: C_34  and  C_35
REMARK   12  A    between atoms: C_35  and  N_36
REMARK   13  A    between atoms: N_36  and  C_39
REMARK                            x       y       z     vdW  Elec       q    Type
REMARK                         _______ _______ _______ _____ _____    ______ ____
ROOT
ATOM      1  C   UNL     1     -38.558  19.803  -0.176  0.00  0.00    +0.149 C 
ENDROOT
BRANCH   1   4
ATOM      2  O   UNL     1     -40.252  20.849   1.209  0.00  0.00    -0.273 OA
ATOM      3  N   UNL     1     -39.322  22.071  -0.532  0.00  0.00    -0.301 N 
ATOM      4  C   UNL     1     -39.482  20.939   0.254  0.00  0.00    +0.241 C 
ATOM      5  H   UNL     1     -38.677  22.040  -1.275  0.00  0.00    +0.150 HD
BRANCH   3   6
ATOM      6  C   UNL     1     -40.060  23.293  -0.307  0.00  0.00    +0.094 C 
ATOM      7  C   UNL     1     -40.169  24.087  -1.607  0.00  0.00    +0.026 C 
BRANCH   6   8
ATOM      8  C   UNL     1     -39.457  24.103   0.821  0.00  0.00    -0.004 C 
ATOM      9  C   UNL     1     -40.077  24.130   2.070  0.00  0.00    +0.000 C 
ATOM     10  C   UNL     1     -38.283  24.825   0.610  0.00  0.00    +0.000 C 
ATOM     11  C   UNL     1     -39.523  24.877   3.108  0.00  0.00    +0.036 C 
ATOM     12  C   UNL     1     -37.728  25.573   1.648  0.00  0.00    +0.036 C 
ATOM     13  C   UNL     1     -38.348  25.599   2.897  0.00  0.00    +0.134 C 
BRANCH  13  14
ATOM     14  O   UNL     1     -37.806  26.329   3.910  0.00  0.00    -0.506 OA
ATOM     15  H   UNL     1     -38.178  26.286   4.770  0.00  0.00    +0.292 HD
ENDBRANCH  13  14
ENDBRANCH   6   8
ENDBRANCH   3   6
ENDBRANCH   1   4
BRANCH   1  17
ATOM     16  O   UNL     1     -36.558  21.789   0.329  0.00  0.00    -0.274 OA
ATOM     17  N   UNL     1     -37.473  19.705   0.766  0.00  0.00    -0.298 N 
ATOM     18  C   UNL     1     -36.545  20.725   0.945  0.00  0.00    +0.231 C 
ATOM     19  H   UNL     1     -37.386  18.884   1.303  0.00  0.00    +0.150 HD
BRANCH  18  20
ATOM     20  C   UNL     1     -35.493  20.381   2.005  0.00  0.00    +0.121 C 
BRANCH  20  21
ATOM     21  C   UNL     1     -35.409  21.415   3.122  0.00  0.00    -0.010 C 
ATOM     22  C   UNL     1     -35.265  21.001   4.447  0.00  0.00    -0.003 C 
ATOM     23  C   UNL     1     -35.478  22.774   2.820  0.00  0.00    -0.003 C 
ATOM     24  C   UNL     1     -35.188  21.947   5.468  0.00  0.00    -0.000 C 
ATOM     25  C   UNL     1     -35.401  23.721   3.842  0.00  0.00    -0.000 C 
ATOM     26  C   UNL     1     -35.256  23.307   5.166  0.00  0.00    -0.000 C 
ENDBRANCH  20  21
BRANCH  20  27
ATOM     27  C   UNL     1     -34.139  20.059   1.386  0.00  0.00    -0.010 C 
ATOM     28  C   UNL     1     -33.524  20.980   0.537  0.00  0.00    -0.003 C 
ATOM     29  C   UNL     1     -33.515  18.843   1.666  0.00  0.00    -0.003 C 
ATOM     30  C   UNL     1     -32.283  20.685  -0.029  0.00  0.00    -0.000 C 
ATOM     31  C   UNL     1     -32.275  18.549   1.100  0.00  0.00    -0.000 C 
ATOM     32  C   UNL     1     -31.659  19.469   0.252  0.00  0.00    -0.000 C 
ENDBRANCH  20  27
ENDBRANCH  18  20
ENDBRANCH   1  17
BRANCH   1  33
ATOM     33  C   UNL     1     -38.062  19.952  -1.620  0.00  0.00    +0.031 C 
BRANCH  33  34
ATOM     34  C   UNL     1     -37.057  18.873  -2.049  0.00  0.00    +0.029 C 
BRANCH  34  35
ATOM     35  C   UNL     1     -37.629  17.464  -1.920  0.00  0.00    +0.129 C 
BRANCH  35  36
ATOM     36  N   UNL     1     -36.565  16.523  -1.565  0.00  0.00    -0.240 NA
BRANCH  36  39
ATOM     37  N   UNL     1     -35.574  15.362   0.291  0.00  0.00    -0.370 N 
ATOM     38  N   UNL     1     -37.654  16.278   0.466  0.00  0.00    -0.370 N 
ATOM     39  C   UNL     1     -36.567  16.070  -0.350  0.00  0.00    +0.189 C 
ATOM     40  H   UNL     1     -34.740  15.146  -0.184  0.00  0.00    +0.159 HD
ATOM     41  H   UNL     1     -35.700  15.073   1.224  0.00  0.00    +0.159 HD
ATOM     42  H   UNL     1     -38.435  16.773   0.129  0.00  0.00    +0.159 HD
ATOM     43  H   UNL     1     -37.651  15.932   1.388  0.00  0.00    +0.159 HD
ENDBRANCH  36  39
ENDBRANCH  35  36
ENDBRANCH  34  35
ENDBRANCH  33  34
ENDBRANCH   1  33
TORSDOF 13
ENDMDL
MODEL 6
REMARK VINA RESULT:      -6.0      2.612      6.402
REMARK  Name = 5311439
REMARK  13 active torsions:
REMARK  status: ('A' for Active; 'I' for Inactive)
REMARK    1  A    between atoms: C_1  and  C_4
REMARK    2  A    between atoms: C_1  and  N_17
REMARK    3  A    between atoms: C_1  and  C_33
REMARK    4  A    between atoms: N_3  and  C_6
REMARK    5  A    between atoms: C_6  and  C_8
REMARK    6  A    between atoms: C_13  and  O_14
REMARK    7  A    between atoms: C_18  and  C_20
REMARK    8  A    between atoms: C_20  and  C_21
REMARK    9  A    between atoms: C_20  and  C_27
REMARK   10  A    between atoms: C_33  and  C_34
REMARK   11  A    between atoms: C_34  and  C_35
REMARK   12  A    between atoms: C_35  and  N_36
REMARK   13  A    between atoms: N_36  and  C_39
REMARK                            x       y       z     vdW  Elec       q    Type
REMARK                         _______ _______ _______ _____ _____    ______ ____
ROOT
ATOM      1  C   UNL     1     -38.047  22.281   2.440  0.00  0.00    +0.149 C 
ENDROOT
BRANCH   1   4
ATOM      2  O   UNL     1     -39.137  24.219   3.409  0.00  0.00    -0.273 OA
ATOM      3  N   UNL     1     -37.042  24.482   2.444  0.00  0.00    -0.301 N 
ATOM      4  C   UNL     1     -38.164  23.755   2.817  0.00  0.00    +0.241 C 
ATOM      5  H   UNL     1     -36.315  24.015   1.973  0.00  0.00    +0.150 HD
BRANCH   3   6
ATOM      6  C   UNL     1     -36.895  25.893   2.719  0.00  0.00    +0.094 C 
ATOM      7  C   UNL     1     -36.748  26.669   1.411  0.00  0.00    +0.026 C 
BRANCH   6   8
ATOM      8  C   UNL     1     -35.756  26.154   3.680  0.00  0.00    -0.004 C 
ATOM      9  C   UNL     1     -34.707  26.993   3.307  0.00  0.00    +0.000 C 
ATOM     10  C   UNL     1     -35.754  25.553   4.939  0.00  0.00    +0.000 C 
ATOM     11  C   UNL     1     -33.656  27.233   4.192  0.00  0.00    +0.036 C 
ATOM     12  C   UNL     1     -34.704  25.792   5.824  0.00  0.00    +0.036 C 
ATOM     13  C   UNL     1     -33.654  26.632   5.450  0.00  0.00    +0.134 C 
BRANCH  13  14
ATOM     14  O   UNL     1     -32.629  26.865   6.316  0.00  0.00    -0.506 OA
ATOM     15  H   UNL     1     -31.749  26.667   6.063  0.00  0.00    +0.292 HD
ENDBRANCH  13  14
ENDBRANCH   6   8
ENDBRANCH   3   6
ENDBRANCH   1   4
BRANCH   1  17
ATOM     16  O   UNL     1     -35.449  21.140   2.825  0.00  0.00    -0.274 OA
ATOM     17  N   UNL     1     -37.019  22.137   1.442  0.00  0.00    -0.298 N 
ATOM     18  C   UNL     1     -35.781  21.567   1.720  0.00  0.00    +0.231 C 
ATOM     19  H   UNL     1     -37.201  22.454   0.527  0.00  0.00    +0.150 HD
BRANCH  18  20
ATOM     20  C   UNL     1     -34.865  21.525   0.493  0.00  0.00    +0.121 C 
BRANCH  20  21
ATOM     21  C   UNL     1     -33.744  20.500   0.618  0.00  0.00    -0.010 C 
ATOM     22  C   UNL     1     -33.965  19.303   1.302  0.00  0.00    -0.003 C 
ATOM     23  C   UNL     1     -32.497  20.758   0.051  0.00  0.00    -0.003 C 
ATOM     24  C   UNL     1     -32.939  18.366   1.417  0.00  0.00    -0.000 C 
ATOM     25  C   UNL     1     -31.470  19.821   0.166  0.00  0.00    -0.000 C 
ATOM     26  C   UNL     1     -31.691  18.625   0.848  0.00  0.00    -0.000 C 
ENDBRANCH  20  21
BRANCH  20  27
ATOM     27  C   UNL     1     -34.367  22.911   0.102  0.00  0.00    -0.010 C 
ATOM     28  C   UNL     1     -34.424  23.321  -1.230  0.00  0.00    -0.003 C 
ATOM     29  C   UNL     1     -33.852  23.767   1.075  0.00  0.00    -0.003 C 
ATOM     30  C   UNL     1     -33.968  24.590  -1.589  0.00  0.00    -0.000 C 
ATOM     31  C   UNL     1     -33.396  25.035   0.717  0.00  0.00    -0.000 C 
ATOM     32  C   UNL     1     -33.454  25.447  -0.615  0.00  0.00    -0.000 C 
ENDBRANCH  20  27
ENDBRANCH  18  20
ENDBRANCH   1  17
BRANCH   1  33
ATOM     33  C   UNL     1     -39.382  21.673   1.990  0.00  0.00    +0.031 C 
BRANCH  33  34
ATOM     34  C   UNL     1     -39.761  22.004   0.539  0.00  0.00    +0.029 C 
BRANCH  34  35
ATOM     35  C   UNL     1     -39.789  20.764  -0.350  0.00  0.00    +0.129 C 
BRANCH  35  36
ATOM     36  N   UNL     1     -38.423  20.303  -0.608  0.00  0.00    -0.240 NA
BRANCH  36  39
ATOM     37  N   UNL     1     -37.274  18.479   0.453  0.00  0.00    -0.370 N 
ATOM     38  N   UNL     1     -38.885  18.089  -1.112  0.00  0.00    -0.370 N 
ATOM     39  C   UNL     1     -38.186  19.043  -0.412  0.00  0.00    +0.189 C 
ATOM     40  H   UNL     1     -36.708  19.056   1.015  0.00  0.00    +0.159 HD
ATOM     41  H   UNL     1     -37.190  17.499   0.509  0.00  0.00    +0.159 HD
ATOM     42  H   UNL     1     -39.570  18.359  -1.765  0.00  0.00    +0.159 HD
ATOM     43  H   UNL     1     -38.701  17.133  -0.960  0.00  0.00    +0.159 HD
ENDBRANCH  36  39
ENDBRANCH  35  36
ENDBRANCH  34  35
ENDBRANCH  33  34
ENDBRANCH   1  33
TORSDOF 13
ENDMDL
MODEL 7
REMARK VINA RESULT:      -6.0      5.784     10.642
REMARK  Name = 5311439
REMARK  13 active torsions:
REMARK  status: ('A' for Active; 'I' for Inactive)
REMARK    1  A    between atoms: C_1  and  C_4
REMARK    2  A    between atoms: C_1  and  N_17
REMARK    3  A    between atoms: C_1  and  C_33
REMARK    4  A    between atoms: N_3  and  C_6
REMARK    5  A    between atoms: C_6  and  C_8
REMARK    6  A    between atoms: C_13  and  O_14
REMARK    7  A    between atoms: C_18  and  C_20
REMARK    8  A    between atoms: C_20  and  C_21
REMARK    9  A    between atoms: C_20  and  C_27
REMARK   10  A    between atoms: C_33  and  C_34
REMARK   11  A    between atoms: C_34  and  C_35
REMARK   12  A    between atoms: C_35  and  N_36
REMARK   13  A    between atoms: N_36  and  C_39
REMARK                            x       y       z     vdW  Elec       q    Type
REMARK                         _______ _______ _______ _____ _____    ______ ____
ROOT
ATOM      1  C   UNL     1     -40.289  26.242   2.752  0.00  0.00    +0.149 C 
ENDROOT
BRANCH   1   4
ATOM      2  O   UNL     1     -39.687  24.115   3.748  0.00  0.00    -0.273 OA
ATOM      3  N   UNL     1     -38.120  25.827   3.739  0.00  0.00    -0.301 N 
ATOM      4  C   UNL     1     -39.361  25.268   3.471  0.00  0.00    +0.241 C 
ATOM      5  H   UNL     1     -37.958  26.762   3.476  0.00  0.00    +0.150 HD
BRANCH   3   6
ATOM      6  C   UNL     1     -37.054  25.096   4.385  0.00  0.00    +0.094 C 
ATOM      7  C   UNL     1     -36.081  26.068   5.050  0.00  0.00    +0.026 C 
BRANCH   6   8
ATOM      8  C   UNL     1     -36.366  24.154   3.421  0.00  0.00    -0.004 C 
ATOM      9  C   UNL     1     -35.908  24.626   2.191  0.00  0.00    +0.000 C 
ATOM     10  C   UNL     1     -36.192  22.812   3.762  0.00  0.00    +0.000 C 
ATOM     11  C   UNL     1     -35.276  23.757   1.302  0.00  0.00    +0.036 C 
ATOM     12  C   UNL     1     -35.560  21.944   2.873  0.00  0.00    +0.036 C 
ATOM     13  C   UNL     1     -35.102  22.416   1.643  0.00  0.00    +0.134 C 
BRANCH  13  14
ATOM     14  O   UNL     1     -34.485  21.567   0.776  0.00  0.00    -0.506 OA
ATOM     15  H   UNL     1     -34.348  20.671   1.015  0.00  0.00    +0.292 HD
ENDBRANCH  13  14
ENDBRANCH   6   8
ENDBRANCH   3   6
ENDBRANCH   1   4
BRANCH   1  17
ATOM     16  O   UNL     1     -41.977  28.552   2.616  0.00  0.00    -0.274 OA
ATOM     17  N   UNL     1     -41.409  26.536   3.608  0.00  0.00    -0.298 N 
ATOM     18  C   UNL     1     -42.176  27.688   3.468  0.00  0.00    +0.231 C 
ATOM     19  H   UNL     1     -41.641  25.896   4.320  0.00  0.00    +0.150 HD
BRANCH  18  20
ATOM     20  C   UNL     1     -43.310  27.766   4.495  0.00  0.00    +0.121 C 
BRANCH  20  21
ATOM     21  C   UNL     1     -44.444  26.789   4.211  0.00  0.00    -0.010 C 
ATOM     22  C   UNL     1     -45.401  26.524   5.192  0.00  0.00    -0.003 C 
ATOM     23  C   UNL     1     -44.524  26.156   2.971  0.00  0.00    -0.003 C 
ATOM     24  C   UNL     1     -46.437  25.629   4.932  0.00  0.00    -0.000 C 
ATOM     25  C   UNL     1     -45.562  25.260   2.710  0.00  0.00    -0.000 C 
ATOM     26  C   UNL     1     -46.518  24.997   3.690  0.00  0.00    -0.000 C 
ENDBRANCH  20  21
BRANCH  20  27
ATOM     27  C   UNL     1     -43.793  29.196   4.708  0.00  0.00    -0.010 C 
ATOM     28  C   UNL     1     -44.594  29.811   3.745  0.00  0.00    -0.003 C 
ATOM     29  C   UNL     1     -43.434  29.889   5.863  0.00  0.00    -0.003 C 
ATOM     30  C   UNL     1     -45.038  31.120   3.940  0.00  0.00    -0.000 C 
ATOM     31  C   UNL     1     -43.877  31.197   6.058  0.00  0.00    -0.000 C 
ATOM     32  C   UNL     1     -44.678  31.813   5.097  0.00  0.00    -0.000 C 
ENDBRANCH  20  27
ENDBRANCH  18  20
ENDBRANCH   1  17
BRANCH   1  33
ATOM     33  C   UNL     1     -40.731  25.738   1.373  0.00  0.00    +0.031 C 
BRANCH  33  34
ATOM     34  C   UNL     1     -39.568  25.353   0.446  0.00  0.00    +0.029 C 
BRANCH  34  35
ATOM     35  C   UNL     1     -39.732  23.954  -0.139  0.00  0.00    +0.129 C 
BRANCH  35  36
ATOM     36  N   UNL     1     -38.883  23.006   0.587  0.00  0.00    -0.240 NA
BRANCH  36  39
ATOM     37  N   UNL     1     -39.096  21.278   2.243  0.00  0.00    -0.370 N 
ATOM     38  N   UNL     1     -40.628  21.482   0.567  0.00  0.00    -0.370 N 
ATOM     39  C   UNL     1     -39.476  21.985   1.122  0.00  0.00    +0.189 C 
ATOM     40  H   UNL     1     -38.285  21.538   2.736  0.00  0.00    +0.159 HD
ATOM     41  H   UNL     1     -39.638  20.515   2.550  0.00  0.00    +0.159 HD
ATOM     42  H   UNL     1     -41.008  21.896  -0.241  0.00  0.00    +0.159 HD
ATOM     43  H   UNL     1     -41.074  20.705   0.977  0.00  0.00    +0.159 HD
ENDBRANCH  36  39
ENDBRANCH  35  36
ENDBRANCH  34  35
ENDBRANCH  33  34
ENDBRANCH   1  33
TORSDOF 13
ENDMDL
MODEL 8
REMARK VINA RESULT:      -6.0      1.743      2.315
REMARK  Name = 5311439
REMARK  13 active torsions:
REMARK  status: ('A' for Active; 'I' for Inactive)
REMARK    1  A    between atoms: C_1  and  C_4
REMARK    2  A    between atoms: C_1  and  N_17
REMARK    3  A    between atoms: C_1  and  C_33
REMARK    4  A    between atoms: N_3  and  C_6
REMARK    5  A    between atoms: C_6  and  C_8
REMARK    6  A    between atoms: C_13  and  O_14
REMARK    7  A    between atoms: C_18  and  C_20
REMARK    8  A    between atoms: C_20  and  C_21
REMARK    9  A    between atoms: C_20  and  C_27
REMARK   10  A    between atoms: C_33  and  C_34
REMARK   11  A    between atoms: C_34  and  C_35
REMARK   12  A    between atoms: C_35  and  N_36
REMARK   13  A    between atoms: N_36  and  C_39
REMARK                            x       y       z     vdW  Elec       q    Type
REMARK                         _______ _______ _______ _____ _____    ______ ____
ROOT
ATOM      1  C   UNL     1     -35.914  22.701   3.680  0.00  0.00    +0.149 C 
ENDROOT
BRANCH   1   4
ATOM      2  O   UNL     1     -37.838  24.153   3.945  0.00  0.00    -0.273 OA
ATOM      3  N   UNL     1     -37.994  22.346   2.497  0.00  0.00    -0.301 N 
ATOM      4  C   UNL     1     -37.345  23.158   3.416  0.00  0.00    +0.241 C 
ATOM      5  H   UNL     1     -37.510  21.571   2.130  0.00  0.00    +0.150 HD
BRANCH   3   6
ATOM      6  C   UNL     1     -39.348  22.588   2.055  0.00  0.00    +0.094 C 
ATOM      7  C   UNL     1     -39.926  21.324   1.421  0.00  0.00    +0.026 C 
BRANCH   6   8
ATOM      8  C   UNL     1     -39.424  23.787   1.135  0.00  0.00    -0.004 C 
ATOM      9  C   UNL     1     -38.656  23.821  -0.030  0.00  0.00    +0.000 C 
ATOM     10  C   UNL     1     -40.258  24.858   1.452  0.00  0.00    +0.000 C 
ATOM     11  C   UNL     1     -38.725  24.926  -0.877  0.00  0.00    +0.036 C 
ATOM     12  C   UNL     1     -40.327  25.963   0.604  0.00  0.00    +0.036 C 
ATOM     13  C   UNL     1     -39.559  25.998  -0.560  0.00  0.00    +0.134 C 
BRANCH  13  14
ATOM     14  O   UNL     1     -39.627  27.077  -1.387  0.00  0.00    -0.506 OA
ATOM     15  H   UNL     1     -39.367  26.996  -2.284  0.00  0.00    +0.292 HD
ENDBRANCH  13  14
ENDBRANCH   6   8
ENDBRANCH   3   6
ENDBRANCH   1   4
BRANCH   1  17
ATOM     16  O   UNL     1     -34.380  22.356   1.287  0.00  0.00    -0.274 OA
ATOM     17  N   UNL     1     -35.685  21.463   2.981  0.00  0.00    -0.298 N 
ATOM     18  C   UNL     1     -34.922  21.390   1.820  0.00  0.00    +0.231 C 
ATOM     19  H   UNL     1     -36.084  20.637   3.340  0.00  0.00    +0.150 HD
BRANCH  18  20
ATOM     20  C   UNL     1     -34.825  19.963   1.271  0.00  0.00    +0.121 C 
BRANCH  20  21
ATOM     21  C   UNL     1     -33.398  19.547   0.933  0.00  0.00    -0.010 C 
ATOM     22  C   UNL     1     -32.616  20.350   0.101  0.00  0.00    -0.003 C 
ATOM     23  C   UNL     1     -32.875  18.364   1.453  0.00  0.00    -0.003 C 
ATOM     24  C   UNL     1     -31.311  19.969  -0.209  0.00  0.00    -0.000 C 
ATOM     25  C   UNL     1     -31.569  17.983   1.143  0.00  0.00    -0.000 C 
ATOM     26  C   UNL     1     -30.787  18.785   0.313  0.00  0.00    -0.000 C 
ENDBRANCH  20  21
BRANCH  20  27
ATOM     27  C   UNL     1     -35.804  19.720   0.129  0.00  0.00    -0.010 C 
ATOM     28  C   UNL     1     -36.527  20.786  -0.407  0.00  0.00    -0.003 C 
ATOM     29  C   UNL     1     -35.978  18.433  -0.380  0.00  0.00    -0.003 C 
ATOM     30  C   UNL     1     -37.423  20.565  -1.454  0.00  0.00    -0.000 C 
ATOM     31  C   UNL     1     -36.873  18.211  -1.426  0.00  0.00    -0.000 C 
ATOM     32  C   UNL     1     -37.596  19.276  -1.963  0.00  0.00    -0.000 C 
ENDBRANCH  20  27
ENDBRANCH  18  20
ENDBRANCH   1  17
BRANCH   1  33
ATOM     33  C   UNL     1     -35.589  22.591   5.175  0.00  0.00    +0.031 C 
BRANCH  33  34
ATOM     34  C   UNL     1     -34.673  23.707   5.699  0.00  0.00    +0.029 C 
BRANCH  34  35
ATOM     35  C   UNL     1     -34.096  24.559   4.573  0.00  0.00    +0.129 C 
BRANCH  35  36
ATOM     36  N   UNL     1     -34.145  25.976   4.942  0.00  0.00    -0.240 NA
BRANCH  36  39
ATOM     37  N   UNL     1     -36.484  26.455   5.209  0.00  0.00    -0.370 N 
ATOM     38  N   UNL     1     -35.228  27.592   3.684  0.00  0.00    -0.370 N 
ATOM     39  C   UNL     1     -35.234  26.617   4.652  0.00  0.00    +0.189 C 
ATOM     40  H   UNL     1     -36.624  25.785   5.917  0.00  0.00    +0.159 HD
ATOM     41  H   UNL     1     -37.236  27.010   4.898  0.00  0.00    +0.159 HD
ATOM     42  H   UNL     1     -34.395  27.808   3.207  0.00  0.00    +0.159 HD
ATOM     43  H   UNL     1     -36.058  28.076   3.467  0.00  0.00    +0.159 HD
ENDBRANCH  36  39
ENDBRANCH  35  36
ENDBRANCH  34  35
ENDBRANCH  33  34
ENDBRANCH   1  33
TORSDOF 13
ENDMDL
MODEL 9
REMARK VINA RESULT:      -6.0      2.593      5.326
REMARK  Name = 5311439
REMARK  13 active torsions:
REMARK  status: ('A' for Active; 'I' for Inactive)
REMARK    1  A    between atoms: C_1  and  C_4
REMARK    2  A    between atoms: C_1  and  N_17
REMARK    3  A    between atoms: C_1  and  C_33
REMARK    4  A    between atoms: N_3  and  C_6
REMARK    5  A    between atoms: C_6  and  C_8
REMARK    6  A    between atoms: C_13  and  O_14
REMARK    7  A    between atoms: C_18  and  C_20
REMARK    8  A    between atoms: C_20  and  C_21
REMARK    9  A    between atoms: C_20  and  C_27
REMARK   10  A    between atoms: C_33  and  C_34
REMARK   11  A    between atoms: C_34  and  C_35
REMARK   12  A    between atoms: C_35  and  N_36
REMARK   13  A    between atoms: N_36  and  C_39
REMARK                            x       y       z     vdW  Elec       q    Type
REMARK                         _______ _______ _______ _____ _____    ______ ____
ROOT
ATOM      1  C   UNL     1     -37.034  20.690   1.946  0.00  0.00    +0.149 C 
ENDROOT
BRANCH   1   4
ATOM      2  O   UNL     1     -34.806  20.261   2.801  0.00  0.00    -0.273 OA
ATOM      3  N   UNL     1     -36.078  21.932   3.790  0.00  0.00    -0.301 N 
ATOM      4  C   UNL     1     -35.848  20.909   2.880  0.00  0.00    +0.241 C 
ATOM      5  H   UNL     1     -36.949  22.390   3.771  0.00  0.00    +0.150 HD
BRANCH   3   6
ATOM      6  C   UNL     1     -35.096  22.354   4.761  0.00  0.00    +0.094 C 
ATOM      7  C   UNL     1     -35.550  21.969   6.167  0.00  0.00    +0.026 C 
BRANCH   6   8
ATOM      8  C   UNL     1     -34.790  23.831   4.633  0.00  0.00    -0.004 C 
ATOM      9  C   UNL     1     -34.854  24.656   5.756  0.00  0.00    +0.000 C 
ATOM     10  C   UNL     1     -34.446  24.367   3.393  0.00  0.00    +0.000 C 
ATOM     11  C   UNL     1     -34.574  26.017   5.638  0.00  0.00    +0.036 C 
ATOM     12  C   UNL     1     -34.166  25.728   3.275  0.00  0.00    +0.036 C 
ATOM     13  C   UNL     1     -34.230  26.553   4.397  0.00  0.00    +0.134 C 
BRANCH  13  14
ATOM     14  O   UNL     1     -33.956  27.881   4.281  0.00  0.00    -0.506 OA
ATOM     15  H   UNL     1     -34.010  28.438   5.034  0.00  0.00    +0.292 HD
ENDBRANCH  13  14
ENDBRANCH   6   8
ENDBRANCH   3   6
ENDBRANCH   1   4
BRANCH   1  17
ATOM     16  O   UNL     1     -35.865  19.810  -0.515  0.00  0.00    -0.274 OA
ATOM     17  N   UNL     1     -36.993  19.338   1.453  0.00  0.00    -0.298 N 
ATOM     18  C   UNL     1     -36.400  19.001   0.241  0.00  0.00    +0.231 C 
ATOM     19  H   UNL     1     -37.400  18.624   1.997  0.00  0.00    +0.150 HD
BRANCH  18  20
ATOM     20  C   UNL     1     -36.483  17.501  -0.056  0.00  0.00    +0.121 C 
BRANCH  20  21
ATOM     21  C   UNL     1     -35.348  17.002  -0.942  0.00  0.00    -0.010 C 
ATOM     22  C   UNL     1     -34.142  16.595  -0.369  0.00  0.00    -0.003 C 
ATOM     23  C   UNL     1     -35.512  16.956  -2.326  0.00  0.00    -0.003 C 
ATOM     24  C   UNL     1     -33.103  16.140  -1.180  0.00  0.00    -0.000 C 
ATOM     25  C   UNL     1     -34.473  16.500  -3.138  0.00  0.00    -0.000 C 
ATOM     26  C   UNL     1     -33.269  16.092  -2.565  0.00  0.00    -0.000 C 
ENDBRANCH  20  21
BRANCH  20  27
ATOM     27  C   UNL     1     -37.861  17.092  -0.565  0.00  0.00    -0.010 C 
ATOM     28  C   UNL     1     -38.344  15.808  -0.311  0.00  0.00    -0.003 C 
ATOM     29  C   UNL     1     -38.636  18.001  -1.284  0.00  0.00    -0.003 C 
ATOM     30  C   UNL     1     -39.606  15.435  -0.776  0.00  0.00    -0.000 C 
ATOM     31  C   UNL     1     -39.897  17.628  -1.749  0.00  0.00    -0.000 C 
ATOM     32  C   UNL     1     -40.382  16.345  -1.495  0.00  0.00    -0.000 C 
ENDBRANCH  20  27
ENDBRANCH  18  20
ENDBRANCH   1  17
BRANCH   1  33
ATOM     33  C   UNL     1     -37.097  21.719   0.811  0.00  0.00    +0.031 C 
BRANCH  33  34
ATOM     34  C   UNL     1     -38.423  22.492   0.742  0.00  0.00    +0.029 C 
BRANCH  34  35
ATOM     35  C   UNL     1     -38.898  22.951   2.117  0.00  0.00    +0.129 C 
BRANCH  35  36
ATOM     36  N   UNL     1     -37.994  23.977   2.642  0.00  0.00    -0.240 NA
BRANCH  36  39
ATOM     37  N   UNL     1     -39.797  24.950   3.896  0.00  0.00    -0.370 N 
ATOM     38  N   UNL     1     -37.813  26.049   3.662  0.00  0.00    -0.370 N 
ATOM     39  C   UNL     1     -38.529  24.916   3.357  0.00  0.00    +0.189 C 
ATOM     40  H   UNL     1     -40.413  24.196   3.751  0.00  0.00    +0.159 HD
ATOM     41  H   UNL     1     -40.085  25.729   4.425  0.00  0.00    +0.159 HD
ATOM     42  H   UNL     1     -36.890  26.152   3.337  0.00  0.00    +0.159 HD
ATOM     43  H   UNL     1     -38.225  26.760   4.205  0.00  0.00    +0.159 HD
ENDBRANCH  36  39
ENDBRANCH  35  36
ENDBRANCH  34  35
ENDBRANCH  33  34
ENDBRANCH   1  33
TORSDOF 13
ENDMDL
