MODEL 1
REMARK VINA RESULT:      -4.3      0.000      0.000
REMARK  Name = 190999
REMARK  6 active torsions:
REMARK  status: ('A' for Active; 'I' for Inactive)
REMARK    1  A    between atoms: N_3  and  C_9
REMARK    2  A    between atoms: C_6  and  O_7
REMARK    3  A    between atoms: C_9  and  S_10
REMARK    4  A    between atoms: S_10  and  P_11
REMARK    5  A    between atoms: P_11  and  O_13
REMARK    6  A    between atoms: P_11  and  O_15
REMARK                            x       y       z     vdW  Elec       q    Type
REMARK                         _______ _______ _______ _____ _____    ______ ____
ROOT
ATOM      1  S   UNL     1     -33.654  27.869   3.266  0.00  0.00    +0.032 S 
ATOM      2  O   UNL     1     -36.012  26.772   2.879  0.00  0.00    -0.258 OA
ATOM      3  N   UNL     1     -34.856  26.259   4.860  0.00  0.00    -0.196 N 
ATOM      4  N   UNL     1     -33.674  26.546   5.501  0.00  0.00    -0.121 NA
ATOM      5  C   UNL     1     -35.053  26.871   3.628  0.00  0.00    +0.313 A 
ATOM      6  C   UNL     1     -32.973  27.361   4.783  0.00  0.00    +0.279 A 
ENDROOT
BRANCH   6   7
ATOM      7  O   UNL     1     -31.764  27.810   5.178  0.00  0.00    -0.451 OA
ATOM      8  C   UNL     1     -31.839  28.537   6.401  0.00  0.00    +0.255 C 
ENDBRANCH   6   7
BRANCH   3   9
ATOM      9  C   UNL     1     -35.781  25.368   5.492  0.00  0.00    +0.199 C 
BRANCH   9  10
ATOM     10  S   UNL     1     -35.145  23.681   5.493  0.00  0.00    -0.004 S 
BRANCH  10  11
ATOM     11  P   UNL     1     -35.763  22.858   3.661  0.00  0.00    +0.395 P 
ATOM     12  O   UNL     1     -35.056  23.542   2.520  0.00  0.00    -0.246 OA
BRANCH  11  13
ATOM     13  O   UNL     1     -35.491  21.254   3.678  0.00  0.00    -0.284 OA
ATOM     14  C   UNL     1     -35.506  20.546   2.450  0.00  0.00    +0.185 C 
ENDBRANCH  11  13
BRANCH  11  15
ATOM     15  O   UNL     1     -37.378  22.948   3.506  0.00  0.00    -0.284 OA
ATOM     16  C   UNL     1     -37.949  23.670   2.428  0.00  0.00    +0.185 C 
ENDBRANCH  11  15
ENDBRANCH  10  11
ENDBRANCH   9  10
ENDBRANCH   3   9
TORSDOF 6
ENDMDL
MODEL 2
REMARK VINA RESULT:      -4.2      2.053      3.341
REMARK  Name = 190999
REMARK  6 active torsions:
REMARK  status: ('A' for Active; 'I' for Inactive)
REMARK    1  A    between atoms: N_3  and  C_9
REMARK    2  A    between atoms: C_6  and  O_7
REMARK    3  A    between atoms: C_9  and  S_10
REMARK    4  A    between atoms: S_10  and  P_11
REMARK    5  A    between atoms: P_11  and  O_13
REMARK    6  A    between atoms: P_11  and  O_15
REMARK                            x       y       z     vdW  Elec       q    Type
REMARK                         _______ _______ _______ _____ _____    ______ ____
ROOT
ATOM      1  S   UNL     1     -32.749  29.288   3.206  0.00  0.00    +0.032 S 
ATOM      2  O   UNL     1     -31.481  27.674   4.849  0.00  0.00    -0.258 OA
ATOM      3  N   UNL     1     -33.735  27.223   4.363  0.00  0.00    -0.196 N 
ATOM      4  N   UNL     1     -34.779  27.721   3.619  0.00  0.00    -0.121 NA
ATOM      5  C   UNL     1     -32.536  27.920   4.287  0.00  0.00    +0.313 A 
ATOM      6  C   UNL     1     -34.396  28.778   2.982  0.00  0.00    +0.279 A 
ENDROOT
BRANCH   6   7
ATOM      7  O   UNL     1     -35.225  29.470   2.172  0.00  0.00    -0.451 OA
ATOM      8  C   UNL     1     -36.159  28.619   1.514  0.00  0.00    +0.255 C 
ENDBRANCH   6   7
BRANCH   3   9
ATOM      9  C   UNL     1     -33.953  26.045   5.149  0.00  0.00    +0.199 C 
BRANCH   9  10
ATOM     10  S   UNL     1     -35.712  25.787   5.441  0.00  0.00    -0.004 S 
BRANCH  10  11
ATOM     11  P   UNL     1     -36.139  23.905   4.609  0.00  0.00    +0.395 P 
ATOM     12  O   UNL     1     -37.447  23.952   3.862  0.00  0.00    -0.246 OA
BRANCH  11  13
ATOM     13  O   UNL     1     -34.902  23.449   3.656  0.00  0.00    -0.284 OA
ATOM     14  C   UNL     1     -35.190  22.890   2.386  0.00  0.00    +0.185 C 
ENDBRANCH  11  13
BRANCH  11  15
ATOM     15  O   UNL     1     -36.147  22.757   5.761  0.00  0.00    -0.284 OA
ATOM     16  C   UNL     1     -34.971  22.017   6.035  0.00  0.00    +0.185 C 
ENDBRANCH  11  15
ENDBRANCH  10  11
ENDBRANCH   9  10
ENDBRANCH   3   9
TORSDOF 6
ENDMDL
MODEL 3
REMARK VINA RESULT:      -4.2      1.894      2.027
REMARK  Name = 190999
REMARK  6 active torsions:
REMARK  status: ('A' for Active; 'I' for Inactive)
REMARK    1  A    between atoms: N_3  and  C_9
REMARK    2  A    between atoms: C_6  and  O_7
REMARK    3  A    between atoms: C_9  and  S_10
REMARK    4  A    between atoms: S_10  and  P_11
REMARK    5  A    between atoms: P_11  and  O_13
REMARK    6  A    between atoms: P_11  and  O_15
REMARK                            x       y       z     vdW  Elec       q    Type
REMARK                         _______ _______ _______ _____ _____    ______ ____
ROOT
ATOM      1  S   UNL     1     -32.169  29.227   3.864  0.00  0.00    +0.032 S 
ATOM      2  O   UNL     1     -33.935  28.581   2.026  0.00  0.00    -0.258 OA
ATOM      3  N   UNL     1     -33.855  27.298   3.993  0.00  0.00    -0.196 N 
ATOM      4  N   UNL     1     -33.166  27.222   5.181  0.00  0.00    -0.121 NA
ATOM      5  C   UNL     1     -33.476  28.315   3.125  0.00  0.00    +0.313 A 
ATOM      6  C   UNL     1     -32.277  28.158   5.232  0.00  0.00    +0.279 A 
ENDROOT
BRANCH   6   7
ATOM      7  O   UNL     1     -31.458  28.316   6.292  0.00  0.00    -0.451 OA
ATOM      8  C   UNL     1     -31.438  29.664   6.754  0.00  0.00    +0.255 C 
ENDBRANCH   6   7
BRANCH   3   9
ATOM      9  C   UNL     1     -34.891  26.343   3.738  0.00  0.00    +0.199 C 
BRANCH   9  10
ATOM     10  S   UNL     1     -34.296  24.665   4.015  0.00  0.00    -0.004 S 
BRANCH  10  11
ATOM     11  P   UNL     1     -36.024  23.515   4.345  0.00  0.00    +0.395 P 
ATOM     12  O   UNL     1     -36.121  22.417   3.318  0.00  0.00    -0.246 OA
BRANCH  11  13
ATOM     13  O   UNL     1     -35.997  22.934   5.864  0.00  0.00    -0.284 OA
ATOM     14  C   UNL     1     -35.251  21.759   6.132  0.00  0.00    +0.185 C 
ENDBRANCH  11  13
BRANCH  11  15
ATOM     15  O   UNL     1     -37.350  24.457   4.343  0.00  0.00    -0.284 OA
ATOM     16  C   UNL     1     -38.131  24.581   3.168  0.00  0.00    +0.185 C 
ENDBRANCH  11  15
ENDBRANCH  10  11
ENDBRANCH   9  10
ENDBRANCH   3   9
TORSDOF 6
ENDMDL
MODEL 4
REMARK VINA RESULT:      -4.2      2.193      2.814
REMARK  Name = 190999
REMARK  6 active torsions:
REMARK  status: ('A' for Active; 'I' for Inactive)
REMARK    1  A    between atoms: N_3  and  C_9
REMARK    2  A    between atoms: C_6  and  O_7
REMARK    3  A    between atoms: C_9  and  S_10
REMARK    4  A    between atoms: S_10  and  P_11
REMARK    5  A    between atoms: P_11  and  O_13
REMARK    6  A    between atoms: P_11  and  O_15
REMARK                            x       y       z     vdW  Elec       q    Type
REMARK                         _______ _______ _______ _____ _____    ______ ____
ROOT
ATOM      1  S   UNL     1     -31.747  28.714   5.749  0.00  0.00    +0.032 S 
ATOM      2  O   UNL     1     -32.543  26.896   7.474  0.00  0.00    -0.258 OA
ATOM      3  N   UNL     1     -33.531  26.917   5.341  0.00  0.00    -0.196 N 
ATOM      4  N   UNL     1     -33.477  27.611   4.156  0.00  0.00    -0.121 NA
ATOM      5  C   UNL     1     -32.675  27.348   6.347  0.00  0.00    +0.313 A 
ATOM      6  C   UNL     1     -32.599  28.555   4.241  0.00  0.00    +0.279 A 
ENDROOT
BRANCH   6   7
ATOM      7  O   UNL     1     -32.340  29.392   3.215  0.00  0.00    -0.451 OA
ATOM      8  C   UNL     1     -33.173  30.548   3.247  0.00  0.00    +0.255 C 
ENDBRANCH   6   7
BRANCH   3   9
ATOM      9  C   UNL     1     -34.448  25.824   5.456  0.00  0.00    +0.199 C 
BRANCH   9  10
ATOM     10  S   UNL     1     -34.463  24.840   3.946  0.00  0.00    -0.004 S 
BRANCH  10  11
ATOM     11  P   UNL     1     -35.970  23.406   4.236  0.00  0.00    +0.395 P 
ATOM     12  O   UNL     1     -35.732  22.215   3.344  0.00  0.00    -0.246 OA
BRANCH  11  13
ATOM     13  O   UNL     1     -36.021  22.994   5.809  0.00  0.00    -0.284 OA
ATOM     14  C   UNL     1     -35.160  21.969   6.274  0.00  0.00    +0.185 C 
ENDBRANCH  11  13
BRANCH  11  15
ATOM     15  O   UNL     1     -37.439  24.057   3.986  0.00  0.00    -0.284 OA
ATOM     16  C   UNL     1     -37.554  25.379   3.487  0.00  0.00    +0.185 C 
ENDBRANCH  11  15
ENDBRANCH  10  11
ENDBRANCH   9  10
ENDBRANCH   3   9
TORSDOF 6
ENDMDL
MODEL 5
REMARK VINA RESULT:      -4.2      3.194      4.886
REMARK  Name = 190999
REMARK  6 active torsions:
REMARK  status: ('A' for Active; 'I' for Inactive)
REMARK    1  A    between atoms: N_3  and  C_9
REMARK    2  A    between atoms: C_6  and  O_7
REMARK    3  A    between atoms: C_9  and  S_10
REMARK    4  A    between atoms: S_10  and  P_11
REMARK    5  A    between atoms: P_11  and  O_13
REMARK    6  A    between atoms: P_11  and  O_15
REMARK                            x       y       z     vdW  Elec       q    Type
REMARK                         _______ _______ _______ _____ _____    ______ ____
ROOT
ATOM      1  S   UNL     1     -34.841  24.856   5.584  0.00  0.00    +0.032 S 
ATOM      2  O   UNL     1     -35.027  27.143   4.301  0.00  0.00    -0.258 OA
ATOM      3  N   UNL     1     -36.571  25.447   3.786  0.00  0.00    -0.196 N 
ATOM      4  N   UNL     1     -36.885  24.158   4.143  0.00  0.00    -0.121 NA
ATOM      5  C   UNL     1     -35.491  26.024   4.445  0.00  0.00    +0.313 A 
ATOM      6  C   UNL     1     -36.070  23.745   5.057  0.00  0.00    +0.279 A 
ENDROOT
BRANCH   6   7
ATOM      7  O   UNL     1     -36.154  22.510   5.592  0.00  0.00    -0.451 OA
ATOM      8  C   UNL     1     -34.901  22.067   6.107  0.00  0.00    +0.255 C 
ENDBRANCH   6   7
BRANCH   3   9
ATOM      9  C   UNL     1     -37.359  26.093   2.780  0.00  0.00    +0.199 C 
BRANCH   9  10
ATOM     10  S   UNL     1     -37.991  24.893   1.594  0.00  0.00    -0.004 S 
BRANCH  10  11
ATOM     11  P   UNL     1     -39.949  24.471   2.227  0.00  0.00    +0.395 P 
ATOM     12  O   UNL     1     -40.052  24.609   3.724  0.00  0.00    -0.246 OA
BRANCH  11  13
ATOM     13  O   UNL     1     -40.986  25.452   1.447  0.00  0.00    -0.284 OA
ATOM     14  C   UNL     1     -40.551  26.104   0.266  0.00  0.00    +0.185 C 
ENDBRANCH  11  13
BRANCH  11  15
ATOM     15  O   UNL     1     -40.408  22.992   1.729  0.00  0.00    -0.284 OA
ATOM     16  C   UNL     1     -39.576  21.871   1.971  0.00  0.00    +0.185 C 
ENDBRANCH  11  15
ENDBRANCH  10  11
ENDBRANCH   9  10
ENDBRANCH   3   9
TORSDOF 6
ENDMDL
MODEL 6
REMARK VINA RESULT:      -4.2      2.518      5.668
REMARK  Name = 190999
REMARK  6 active torsions:
REMARK  status: ('A' for Active; 'I' for Inactive)
REMARK    1  A    between atoms: N_3  and  C_9
REMARK    2  A    between atoms: C_6  and  O_7
REMARK    3  A    between atoms: C_9  and  S_10
REMARK    4  A    between atoms: S_10  and  P_11
REMARK    5  A    between atoms: P_11  and  O_13
REMARK    6  A    between atoms: P_11  and  O_15
REMARK                            x       y       z     vdW  Elec       q    Type
REMARK                         _______ _______ _______ _____ _____    ______ ____
ROOT
ATOM      1  S   UNL     1     -37.599  22.420   2.275  0.00  0.00    +0.032 S 
ATOM      2  O   UNL     1     -35.458  21.626   3.578  0.00  0.00    -0.258 OA
ATOM      3  N   UNL     1     -36.516  23.606   4.275  0.00  0.00    -0.196 N 
ATOM      4  N   UNL     1     -37.591  24.401   3.955  0.00  0.00    -0.121 NA
ATOM      5  C   UNL     1     -36.331  22.474   3.489  0.00  0.00    +0.313 A 
ATOM      6  C   UNL     1     -38.224  23.897   2.948  0.00  0.00    +0.279 A 
ENDROOT
BRANCH   6   7
ATOM      7  O   UNL     1     -39.324  24.478   2.426  0.00  0.00    -0.451 OA
ATOM      8  C   UNL     1     -39.420  25.854   2.781  0.00  0.00    +0.255 C 
ENDBRANCH   6   7
BRANCH   3   9
ATOM      9  C   UNL     1     -35.678  23.990   5.370  0.00  0.00    +0.199 C 
BRANCH   9  10
ATOM     10  S   UNL     1     -35.641  25.783   5.548  0.00  0.00    -0.004 S 
BRANCH  10  11
ATOM     11  P   UNL     1     -34.184  26.443   4.185  0.00  0.00    +0.395 P 
ATOM     12  O   UNL     1     -33.156  25.363   3.960  0.00  0.00    -0.246 OA
BRANCH  11  13
ATOM     13  O   UNL     1     -34.911  26.894   2.802  0.00  0.00    -0.284 OA
ATOM     14  C   UNL     1     -35.122  25.922   1.792  0.00  0.00    +0.185 C 
ENDBRANCH  11  13
BRANCH  11  15
ATOM     15  O   UNL     1     -33.499  27.824   4.700  0.00  0.00    -0.284 OA
ATOM     16  C   UNL     1     -32.218  28.202   4.225  0.00  0.00    +0.185 C 
ENDBRANCH  11  15
ENDBRANCH  10  11
ENDBRANCH   9  10
ENDBRANCH   3   9
TORSDOF 6
ENDMDL
MODEL 7
REMARK VINA RESULT:      -4.1      2.580      3.073
REMARK  Name = 190999
REMARK  6 active torsions:
REMARK  status: ('A' for Active; 'I' for Inactive)
REMARK    1  A    between atoms: N_3  and  C_9
REMARK    2  A    between atoms: C_6  and  O_7
REMARK    3  A    between atoms: C_9  and  S_10
REMARK    4  A    between atoms: S_10  and  P_11
REMARK    5  A    between atoms: P_11  and  O_13
REMARK    6  A    between atoms: P_11  and  O_15
REMARK                            x       y       z     vdW  Elec       q    Type
REMARK                         _______ _______ _______ _____ _____    ______ ____
ROOT
ATOM      1  S   UNL     1     -32.161  28.136   2.098  0.00  0.00    +0.032 S 
ATOM      2  O   UNL     1     -33.540  29.028   4.151  0.00  0.00    -0.258 OA
ATOM      3  N   UNL     1     -33.200  26.711   3.959  0.00  0.00    -0.196 N 
ATOM      4  N   UNL     1     -32.593  25.794   3.134  0.00  0.00    -0.121 NA
ATOM      5  C   UNL     1     -33.090  28.045   3.586  0.00  0.00    +0.313 A 
ATOM      6  C   UNL     1     -32.026  26.403   2.145  0.00  0.00    +0.279 A 
ENDROOT
BRANCH   6   7
ATOM      7  O   UNL     1     -31.354  25.740   1.181  0.00  0.00    -0.451 OA
ATOM      8  C   UNL     1     -32.233  25.043   0.303  0.00  0.00    +0.255 C 
ENDBRANCH   6   7
BRANCH   3   9
ATOM      9  C   UNL     1     -33.890  26.238   5.122  0.00  0.00    +0.199 C 
BRANCH   9  10
ATOM     10  S   UNL     1     -35.649  26.040   4.785  0.00  0.00    -0.004 S 
BRANCH  10  11
ATOM     11  P   UNL     1     -35.929  23.976   4.507  0.00  0.00    +0.395 P 
ATOM     12  O   UNL     1     -34.885  23.432   3.567  0.00  0.00    -0.246 OA
BRANCH  11  13
ATOM     13  O   UNL     1     -35.899  23.233   5.954  0.00  0.00    -0.284 OA
ATOM     14  C   UNL     1     -35.371  21.921   6.037  0.00  0.00    +0.185 C 
ENDBRANCH  11  13
BRANCH  11  15
ATOM     15  O   UNL     1     -37.434  23.667   3.975  0.00  0.00    -0.284 OA
ATOM     16  C   UNL     1     -37.628  22.899   2.800  0.00  0.00    +0.185 C 
ENDBRANCH  11  15
ENDBRANCH  10  11
ENDBRANCH   9  10
ENDBRANCH   3   9
TORSDOF 6
ENDMDL
MODEL 8
REMARK VINA RESULT:      -4.1      1.055      1.950
REMARK  Name = 190999
REMARK  6 active torsions:
REMARK  status: ('A' for Active; 'I' for Inactive)
REMARK    1  A    between atoms: N_3  and  C_9
REMARK    2  A    between atoms: C_6  and  O_7
REMARK    3  A    between atoms: C_9  and  S_10
REMARK    4  A    between atoms: S_10  and  P_11
REMARK    5  A    between atoms: P_11  and  O_13
REMARK    6  A    between atoms: P_11  and  O_15
REMARK                            x       y       z     vdW  Elec       q    Type
REMARK                         _______ _______ _______ _____ _____    ______ ____
ROOT
ATOM      1  S   UNL     1     -34.409  27.438   3.057  0.00  0.00    +0.032 S 
ATOM      2  O   UNL     1     -36.748  26.254   3.258  0.00  0.00    -0.258 OA
ATOM      3  N   UNL     1     -35.062  25.657   4.783  0.00  0.00    -0.196 N 
ATOM      4  N   UNL     1     -33.755  25.957   5.087  0.00  0.00    -0.121 NA
ATOM      5  C   UNL     1     -35.619  26.346   3.712  0.00  0.00    +0.313 A 
ATOM      6  C   UNL     1     -33.311  26.856   4.273  0.00  0.00    +0.279 A 
ENDROOT
BRANCH   6   7
ATOM      7  O   UNL     1     -32.052  27.336   4.348  0.00  0.00    -0.451 OA
ATOM      8  C   UNL     1     -32.032  28.737   4.608  0.00  0.00    +0.255 C 
ENDBRANCH   6   7
BRANCH   3   9
ATOM      9  C   UNL     1     -35.744  24.675   5.572  0.00  0.00    +0.199 C 
BRANCH   9  10
ATOM     10  S   UNL     1     -35.011  23.046   5.338  0.00  0.00    -0.004 S 
BRANCH  10  11
ATOM     11  P   UNL     1     -35.784  22.349   3.513  0.00  0.00    +0.395 P 
ATOM     12  O   UNL     1     -37.243  22.711   3.395  0.00  0.00    -0.246 OA
BRANCH  11  13
ATOM     13  O   UNL     1     -34.899  22.957   2.291  0.00  0.00    -0.284 OA
ATOM     14  C   UNL     1     -35.561  23.659   1.253  0.00  0.00    +0.185 C 
ENDBRANCH  11  13
BRANCH  11  15
ATOM     15  O   UNL     1     -35.551  20.747   3.365  0.00  0.00    -0.284 OA
ATOM     16  C   UNL     1     -35.008  20.215   2.169  0.00  0.00    +0.185 C 
ENDBRANCH  11  15
ENDBRANCH  10  11
ENDBRANCH   9  10
ENDBRANCH   3   9
TORSDOF 6
ENDMDL
MODEL 9
REMARK VINA RESULT:      -4.1      3.137      4.357
REMARK  Name = 190999
REMARK  6 active torsions:
REMARK  status: ('A' for Active; 'I' for Inactive)
REMARK    1  A    between atoms: N_3  and  C_9
REMARK    2  A    between atoms: C_6  and  O_7
REMARK    3  A    between atoms: C_9  and  S_10
REMARK    4  A    between atoms: S_10  and  P_11
REMARK    5  A    between atoms: P_11  and  O_13
REMARK    6  A    between atoms: P_11  and  O_15
REMARK                            x       y       z     vdW  Elec       q    Type
REMARK                         _______ _______ _______ _____ _____    ______ ____
ROOT
ATOM      1  S   UNL     1     -34.727  25.361   5.501  0.00  0.00    +0.032 S 
ATOM      2  O   UNL     1     -35.067  27.392   3.866  0.00  0.00    -0.258 OA
ATOM      3  N   UNL     1     -36.586  25.603   3.751  0.00  0.00    -0.196 N 
ATOM      4  N   UNL     1     -36.837  24.387   4.341  0.00  0.00    -0.121 NA
ATOM      5  C   UNL     1     -35.486  26.304   4.228  0.00  0.00    +0.313 A 
ATOM      6  C   UNL     1     -35.953  24.152   5.254  0.00  0.00    +0.279 A 
ENDROOT
BRANCH   6   7
ATOM      7  O   UNL     1     -35.964  23.024   5.993  0.00  0.00    -0.451 OA
ATOM      8  C   UNL     1     -35.218  21.977   5.379  0.00  0.00    +0.255 C 
ENDBRANCH   6   7
BRANCH   3   9
ATOM      9  C   UNL     1     -37.457  26.052   2.706  0.00  0.00    +0.199 C 
BRANCH   9  10
ATOM     10  S   UNL     1     -39.158  25.557   3.034  0.00  0.00    -0.004 S 
BRANCH  10  11
ATOM     11  P   UNL     1     -39.570  24.041   1.639  0.00  0.00    +0.395 P 
ATOM     12  O   UNL     1     -38.843  24.313   0.347  0.00  0.00    -0.246 OA
BRANCH  11  13
ATOM     13  O   UNL     1     -39.167  22.601   2.279  0.00  0.00    -0.284 OA
ATOM     14  C   UNL     1     -39.583  21.419   1.618  0.00  0.00    +0.185 C 
ENDBRANCH  11  13
BRANCH  11  15
ATOM     15  O   UNL     1     -41.173  23.895   1.406  0.00  0.00    -0.284 OA
ATOM     16  C   UNL     1     -41.764  24.379   0.212  0.00  0.00    +0.185 C 
ENDBRANCH  11  15
ENDBRANCH  10  11
ENDBRANCH   9  10
ENDBRANCH   3   9
TORSDOF 6
ENDMDL
