MODEL 1
REMARK VINA RESULT:      -6.3      0.000      0.000
REMARK  Name = 191888
REMARK  10 active torsions:
REMARK  status: ('A' for Active; 'I' for Inactive)
REMARK    1  A    between atoms: S_1  and  C_4
REMARK    2  A    between atoms: S_1  and  N_17
REMARK    3  A    between atoms: C_7  and  N_14
REMARK    4  A    between atoms: N_17  and  C_19
REMARK    5  A    between atoms: C_19  and  C_21
REMARK    6  A    between atoms: C_19  and  C_24
REMARK    7  A    between atoms: C_21  and  O_22
REMARK    8  A    between atoms: C_24  and  C_25
REMARK    9  A    between atoms: C_25  and  C_27
REMARK   10  A    between atoms: C_27  and  O_28
REMARK                            x       y       z     vdW  Elec       q    Type
REMARK                         _______ _______ _______ _____ _____    ______ ____
ROOT
ATOM      1  S   UNL     1     -35.782  21.028   2.182  0.00  0.00    +0.061 S 
ATOM      2  O   UNL     1     -36.615  20.002   1.587  0.00  0.00    -0.153 OA
ATOM      3  O   UNL     1     -35.290  20.875   3.537  0.00  0.00    -0.153 OA
ENDROOT
BRANCH   1   4
ATOM      4  C   UNL     1     -34.368  21.250   1.142  0.00  0.00    +0.122 C 
ATOM      5  C   UNL     1     -33.420  20.242   0.941  0.00  0.00    +0.020 C 
ATOM      6  C   UNL     1     -32.316  20.501   0.093  0.00  0.00    +0.015 C 
ATOM      7  C   UNL     1     -31.359  19.494  -0.115  0.00  0.00    +0.048 C 
ATOM      8  C   UNL     1     -34.247  22.492   0.530  0.00  0.00    +0.020 C 
ATOM      9  C   UNL     1     -33.533  18.984   1.555  0.00  0.00    +0.001 C 
ATOM     10  C   UNL     1     -32.202  21.758  -0.522  0.00  0.00    +0.001 C 
ATOM     11  C   UNL     1     -33.163  22.747  -0.304  0.00  0.00    +0.001 C 
ATOM     12  C   UNL     1     -31.488  18.250   0.503  0.00  0.00    +0.015 C 
ATOM     13  C   UNL     1     -32.574  17.995   1.336  0.00  0.00    +0.001 C 
BRANCH   7  14
ATOM     14  N   UNL     1     -30.236  19.700  -0.954  0.00  0.00    -0.304 N 
ATOM     15  C   UNL     1     -28.990  20.177  -0.396  0.00  0.00    +0.112 C 
ATOM     16  C   UNL     1     -30.325  19.422  -2.370  0.00  0.00    +0.112 C 
ENDBRANCH   7  14
ENDBRANCH   1   4
BRANCH   1  17
ATOM     17  N   UNL     1     -36.557  22.535   2.045  0.00  0.00    -0.170 NA
ATOM     18  H   UNL     1     -37.460  22.362   1.604  0.00  0.00    +0.149 HD
BRANCH  17  19
ATOM     19  C   UNL     1     -36.820  23.342   3.257  0.00  0.00    +0.174 C 
BRANCH  19  21
ATOM     20  O   UNL     1     -38.821  24.015   2.050  0.00  0.00    -0.249 OA
ATOM     21  C   UNL     1     -38.121  24.081   3.052  0.00  0.00    +0.330 C 
BRANCH  21  22
ATOM     22  O   UNL     1     -38.458  24.834   4.131  0.00  0.00    -0.479 OA
ATOM     23  H   UNL     1     -38.602  24.425   4.963  0.00  0.00    +0.295 HD
ENDBRANCH  21  22
ENDBRANCH  19  21
BRANCH  19  24
ATOM     24  C   UNL     1     -35.621  24.242   3.579  0.00  0.00    +0.040 C 
BRANCH  24  25
ATOM     25  C   UNL     1     -35.280  24.418   5.061  0.00  0.00    +0.111 C 
BRANCH  25  27
ATOM     26  O   UNL     1     -34.257  26.411   5.962  0.00  0.00    -0.250 OA
ATOM     27  C   UNL     1     -35.251  25.856   5.514  0.00  0.00    +0.314 C 
BRANCH  27  28
ATOM     28  O   UNL     1     -36.455  26.468   5.393  0.00  0.00    -0.480 OA
ATOM     29  H   UNL     1     -36.978  26.328   4.628  0.00  0.00    +0.295 HD
ENDBRANCH  27  28
ENDBRANCH  25  27
ENDBRANCH  24  25
ENDBRANCH  19  24
ENDBRANCH  17  19
ENDBRANCH   1  17
TORSDOF 10
ENDMDL
MODEL 2
REMARK VINA RESULT:      -6.3      1.384      2.007
REMARK  Name = 191888
REMARK  10 active torsions:
REMARK  status: ('A' for Active; 'I' for Inactive)
REMARK    1  A    between atoms: S_1  and  C_4
REMARK    2  A    between atoms: S_1  and  N_17
REMARK    3  A    between atoms: C_7  and  N_14
REMARK    4  A    between atoms: N_17  and  C_19
REMARK    5  A    between atoms: C_19  and  C_21
REMARK    6  A    between atoms: C_19  and  C_24
REMARK    7  A    between atoms: C_21  and  O_22
REMARK    8  A    between atoms: C_24  and  C_25
REMARK    9  A    between atoms: C_25  and  C_27
REMARK   10  A    between atoms: C_27  and  O_28
REMARK                            x       y       z     vdW  Elec       q    Type
REMARK                         _______ _______ _______ _____ _____    ______ ____
ROOT
ATOM      1  S   UNL     1     -35.546  21.008   1.773  0.00  0.00    +0.061 S 
ATOM      2  O   UNL     1     -36.577  20.509   0.882  0.00  0.00    -0.153 OA
ATOM      3  O   UNL     1     -35.222  20.288   2.989  0.00  0.00    -0.153 OA
ENDROOT
BRANCH   1   4
ATOM      4  C   UNL     1     -34.048  21.152   0.844  0.00  0.00    +0.122 C 
ATOM      5  C   UNL     1     -33.125  20.107   0.744  0.00  0.00    +0.020 C 
ATOM      6  C   UNL     1     -31.949  20.304  -0.020  0.00  0.00    +0.015 C 
ATOM      7  C   UNL     1     -31.016  19.259  -0.126  0.00  0.00    +0.048 C 
ATOM      8  C   UNL     1     -33.834  22.371   0.213  0.00  0.00    +0.020 C 
ATOM      9  C   UNL     1     -33.332  18.870   1.378  0.00  0.00    +0.001 C 
ATOM     10  C   UNL     1     -31.741  21.539  -0.654  0.00  0.00    +0.001 C 
ATOM     11  C   UNL     1     -32.678  22.566  -0.538  0.00  0.00    +0.001 C 
ATOM     12  C   UNL     1     -31.239  18.037   0.511  0.00  0.00    +0.015 C 
ATOM     13  C   UNL     1     -32.395  17.844   1.261  0.00  0.00    +0.001 C 
BRANCH   7  14
ATOM     14  N   UNL     1     -29.824  19.403  -0.877  0.00  0.00    -0.304 N 
ATOM     15  C   UNL     1     -29.820  19.126  -2.296  0.00  0.00    +0.112 C 
ATOM     16  C   UNL     1     -28.606  19.840  -0.231  0.00  0.00    +0.112 C 
ENDBRANCH   7  14
ENDBRANCH   1   4
BRANCH   1  17
ATOM     17  N   UNL     1     -35.874  22.629   2.163  0.00  0.00    -0.170 NA
ATOM     18  H   UNL     1     -36.416  23.015   1.390  0.00  0.00    +0.149 HD
BRANCH  17  19
ATOM     19  C   UNL     1     -36.609  22.955   3.405  0.00  0.00    +0.174 C 
BRANCH  19  21
ATOM     20  O   UNL     1     -38.573  24.370   3.646  0.00  0.00    -0.249 OA
ATOM     21  C   UNL     1     -37.956  23.519   3.017  0.00  0.00    +0.330 C 
BRANCH  21  22
ATOM     22  O   UNL     1     -38.418  22.987   1.856  0.00  0.00    -0.479 OA
ATOM     23  H   UNL     1     -39.229  22.516   1.846  0.00  0.00    +0.295 HD
ENDBRANCH  21  22
ENDBRANCH  19  21
BRANCH  19  24
ATOM     24  C   UNL     1     -35.772  23.872   4.306  0.00  0.00    +0.040 C 
BRANCH  24  25
ATOM     25  C   UNL     1     -34.779  23.181   5.244  0.00  0.00    +0.111 C 
BRANCH  25  27
ATOM     26  O   UNL     1     -36.238  22.101   6.837  0.00  0.00    -0.250 OA
ATOM     27  C   UNL     1     -35.360  22.006   5.990  0.00  0.00    +0.314 C 
BRANCH  27  28
ATOM     28  O   UNL     1     -34.791  20.827   5.637  0.00  0.00    -0.480 OA
ATOM     29  H   UNL     1     -34.357  20.745   4.810  0.00  0.00    +0.295 HD
ENDBRANCH  27  28
ENDBRANCH  25  27
ENDBRANCH  24  25
ENDBRANCH  19  24
ENDBRANCH  17  19
ENDBRANCH   1  17
TORSDOF 10
ENDMDL
MODEL 3
REMARK VINA RESULT:      -6.1      3.485      5.836
REMARK  Name = 191888
REMARK  10 active torsions:
REMARK  status: ('A' for Active; 'I' for Inactive)
REMARK    1  A    between atoms: S_1  and  C_4
REMARK    2  A    between atoms: S_1  and  N_17
REMARK    3  A    between atoms: C_7  and  N_14
REMARK    4  A    between atoms: N_17  and  C_19
REMARK    5  A    between atoms: C_19  and  C_21
REMARK    6  A    between atoms: C_19  and  C_24
REMARK    7  A    between atoms: C_21  and  O_22
REMARK    8  A    between atoms: C_24  and  C_25
REMARK    9  A    between atoms: C_25  and  C_27
REMARK   10  A    between atoms: C_27  and  O_28
REMARK                            x       y       z     vdW  Elec       q    Type
REMARK                         _______ _______ _______ _____ _____    ______ ____
ROOT
ATOM      1  S   UNL     1     -33.954  26.426   4.670  0.00  0.00    +0.061 S 
ATOM      2  O   UNL     1     -33.866  26.654   6.099  0.00  0.00    -0.153 OA
ATOM      3  O   UNL     1     -32.776  26.556   3.836  0.00  0.00    -0.153 OA
ENDROOT
BRANCH   1   4
ATOM      4  C   UNL     1     -34.587  24.794   4.418  0.00  0.00    +0.122 C 
ATOM      5  C   UNL     1     -34.571  24.168   3.167  0.00  0.00    +0.020 C 
ATOM      6  C   UNL     1     -35.097  22.859   3.050  0.00  0.00    +0.015 C 
ATOM      7  C   UNL     1     -35.084  22.224   1.797  0.00  0.00    +0.048 C 
ATOM      8  C   UNL     1     -35.106  24.158   5.539  0.00  0.00    +0.020 C 
ATOM      9  C   UNL     1     -34.047  24.802   2.028  0.00  0.00    +0.001 C 
ATOM     10  C   UNL     1     -35.620  22.225   4.188  0.00  0.00    +0.001 C 
ATOM     11  C   UNL     1     -35.624  22.871   5.425  0.00  0.00    +0.001 C 
ATOM     12  C   UNL     1     -34.560  22.869   0.676  0.00  0.00    +0.015 C 
ATOM     13  C   UNL     1     -34.043  24.155   0.792  0.00  0.00    +0.001 C 
BRANCH   7  14
ATOM     14  N   UNL     1     -35.598  20.915   1.625  0.00  0.00    -0.304 N 
ATOM     15  C   UNL     1     -37.014  20.712   1.409  0.00  0.00    +0.112 C 
ATOM     16  C   UNL     1     -34.708  19.775   1.649  0.00  0.00    +0.112 C 
ENDBRANCH   7  14
ENDBRANCH   1   4
BRANCH   1  17
ATOM     17  N   UNL     1     -35.197  27.387   4.020  0.00  0.00    -0.170 NA
ATOM     18  H   UNL     1     -35.365  28.141   4.686  0.00  0.00    +0.149 HD
BRANCH  17  19
ATOM     19  C   UNL     1     -35.024  28.019   2.693  0.00  0.00    +0.174 C 
BRANCH  19  21
ATOM     20  O   UNL     1     -33.353  29.786   2.676  0.00  0.00    -0.249 OA
ATOM     21  C   UNL     1     -34.498  29.419   2.907  0.00  0.00    +0.330 C 
BRANCH  21  22
ATOM     22  O   UNL     1     -35.456  30.259   3.376  0.00  0.00    -0.479 OA
ATOM     23  H   UNL     1     -35.388  30.611   4.243  0.00  0.00    +0.295 HD
ENDBRANCH  21  22
ENDBRANCH  19  21
BRANCH  19  24
ATOM     24  C   UNL     1     -36.325  27.944   1.885  0.00  0.00    +0.040 C 
BRANCH  24  25
ATOM     25  C   UNL     1     -36.950  26.556   1.728  0.00  0.00    +0.111 C 
BRANCH  25  27
ATOM     26  O   UNL     1     -39.324  26.489   2.169  0.00  0.00    -0.250 OA
ATOM     27  C   UNL     1     -38.179  26.340   2.575  0.00  0.00    +0.314 C 
BRANCH  27  28
ATOM     28  O   UNL     1     -37.882  25.981   3.849  0.00  0.00    -0.480 OA
ATOM     29  H   UNL     1     -38.484  25.456   4.341  0.00  0.00    +0.295 HD
ENDBRANCH  27  28
ENDBRANCH  25  27
ENDBRANCH  24  25
ENDBRANCH  19  24
ENDBRANCH  17  19
ENDBRANCH   1  17
TORSDOF 10
ENDMDL
MODEL 4
REMARK VINA RESULT:      -6.1      3.699      6.092
REMARK  Name = 191888
REMARK  10 active torsions:
REMARK  status: ('A' for Active; 'I' for Inactive)
REMARK    1  A    between atoms: S_1  and  C_4
REMARK    2  A    between atoms: S_1  and  N_17
REMARK    3  A    between atoms: C_7  and  N_14
REMARK    4  A    between atoms: N_17  and  C_19
REMARK    5  A    between atoms: C_19  and  C_21
REMARK    6  A    between atoms: C_19  and  C_24
REMARK    7  A    between atoms: C_21  and  O_22
REMARK    8  A    between atoms: C_24  and  C_25
REMARK    9  A    between atoms: C_25  and  C_27
REMARK   10  A    between atoms: C_27  and  O_28
REMARK                            x       y       z     vdW  Elec       q    Type
REMARK                         _______ _______ _______ _____ _____    ______ ____
ROOT
ATOM      1  S   UNL     1     -34.407  26.238   4.834  0.00  0.00    +0.061 S 
ATOM      2  O   UNL     1     -35.371  27.043   4.109  0.00  0.00    -0.153 OA
ATOM      3  O   UNL     1     -34.250  26.401   6.266  0.00  0.00    -0.153 OA
ENDROOT
BRANCH   1   4
ATOM      4  C   UNL     1     -34.795  24.537   4.548  0.00  0.00    +0.122 C 
ATOM      5  C   UNL     1     -34.806  23.975   3.267  0.00  0.00    +0.020 C 
ATOM      6  C   UNL     1     -35.127  22.603   3.124  0.00  0.00    +0.015 C 
ATOM      7  C   UNL     1     -35.140  22.032   1.841  0.00  0.00    +0.048 C 
ATOM      8  C   UNL     1     -35.092  23.778   5.674  0.00  0.00    +0.020 C 
ATOM      9  C   UNL     1     -34.507  24.733   2.123  0.00  0.00    +0.001 C 
ATOM     10  C   UNL     1     -35.426  21.845   4.267  0.00  0.00    +0.001 C 
ATOM     11  C   UNL     1     -35.408  22.430   5.534  0.00  0.00    +0.001 C 
ATOM     12  C   UNL     1     -34.840  22.800   0.715  0.00  0.00    +0.015 C 
ATOM     13  C   UNL     1     -34.524  24.148   0.856  0.00  0.00    +0.001 C 
BRANCH   7  14
ATOM     14  N   UNL     1     -35.455  20.665   1.642  0.00  0.00    -0.304 N 
ATOM     15  C   UNL     1     -36.829  20.255   1.453  0.00  0.00    +0.112 C 
ATOM     16  C   UNL     1     -34.403  19.673   1.611  0.00  0.00    +0.112 C 
ENDBRANCH   7  14
ENDBRANCH   1   4
BRANCH   1  17
ATOM     17  N   UNL     1     -32.883  26.379   4.094  0.00  0.00    -0.170 NA
ATOM     18  H   UNL     1     -32.764  25.554   3.505  0.00  0.00    +0.149 HD
BRANCH  17  19
ATOM     19  C   UNL     1     -32.578  27.555   3.249  0.00  0.00    +0.174 C 
BRANCH  19  21
ATOM     20  O   UNL     1     -30.870  27.965   1.567  0.00  0.00    -0.249 OA
ATOM     21  C   UNL     1     -31.385  27.215   2.388  0.00  0.00    +0.330 C 
BRANCH  21  22
ATOM     22  O   UNL     1     -30.913  25.966   2.636  0.00  0.00    -0.479 OA
ATOM     23  H   UNL     1     -31.439  25.217   2.430  0.00  0.00    +0.295 HD
ENDBRANCH  21  22
ENDBRANCH  19  21
BRANCH  19  24
ATOM     24  C   UNL     1     -32.403  28.810   4.113  0.00  0.00    +0.040 C 
BRANCH  24  25
ATOM     25  C   UNL     1     -31.164  28.850   5.011  0.00  0.00    +0.111 C 
BRANCH  25  27
ATOM     26  O   UNL     1     -31.625  29.570   7.270  0.00  0.00    -0.250 OA
ATOM     27  C   UNL     1     -31.464  28.653   6.476  0.00  0.00    +0.314 C 
BRANCH  27  28
ATOM     28  O   UNL     1     -31.519  27.345   6.829  0.00  0.00    -0.480 OA
ATOM     29  H   UNL     1     -32.347  26.909   6.885  0.00  0.00    +0.295 HD
ENDBRANCH  27  28
ENDBRANCH  25  27
ENDBRANCH  24  25
ENDBRANCH  19  24
ENDBRANCH  17  19
ENDBRANCH   1  17
TORSDOF 10
ENDMDL
MODEL 5
REMARK VINA RESULT:      -6.1      2.468      4.627
REMARK  Name = 191888
REMARK  10 active torsions:
REMARK  status: ('A' for Active; 'I' for Inactive)
REMARK    1  A    between atoms: S_1  and  C_4
REMARK    2  A    between atoms: S_1  and  N_17
REMARK    3  A    between atoms: C_7  and  N_14
REMARK    4  A    between atoms: N_17  and  C_19
REMARK    5  A    between atoms: C_19  and  C_21
REMARK    6  A    between atoms: C_19  and  C_24
REMARK    7  A    between atoms: C_21  and  O_22
REMARK    8  A    between atoms: C_24  and  C_25
REMARK    9  A    between atoms: C_25  and  C_27
REMARK   10  A    between atoms: C_27  and  O_28
REMARK                            x       y       z     vdW  Elec       q    Type
REMARK                         _______ _______ _______ _____ _____    ______ ____
ROOT
ATOM      1  S   UNL     1     -36.140  24.658   4.824  0.00  0.00    +0.061 S 
ATOM      2  O   UNL     1     -35.922  23.505   5.676  0.00  0.00    -0.153 OA
ATOM      3  O   UNL     1     -35.731  25.978   5.263  0.00  0.00    -0.153 OA
ENDROOT
BRANCH   1   4
ATOM      4  C   UNL     1     -35.330  24.354   3.281  0.00  0.00    +0.122 C 
ATOM      5  C   UNL     1     -35.212  23.071   2.736  0.00  0.00    +0.020 C 
ATOM      6  C   UNL     1     -34.548  22.913   1.495  0.00  0.00    +0.015 C 
ATOM      7  C   UNL     1     -34.426  21.629   0.941  0.00  0.00    +0.048 C 
ATOM      8  C   UNL     1     -34.811  25.467   2.632  0.00  0.00    +0.020 C 
ATOM      9  C   UNL     1     -35.733  21.939   3.384  0.00  0.00    +0.001 C 
ATOM     10  C   UNL     1     -34.027  24.044   0.847  0.00  0.00    +0.001 C 
ATOM     11  C   UNL     1     -34.158  25.313   1.412  0.00  0.00    +0.001 C 
ATOM     12  C   UNL     1     -34.950  20.515   1.599  0.00  0.00    +0.015 C 
ATOM     13  C   UNL     1     -35.603  20.671   2.818  0.00  0.00    +0.001 C 
BRANCH   7  14
ATOM     14  N   UNL     1     -33.771  21.415  -0.297  0.00  0.00    -0.304 N 
ATOM     15  C   UNL     1     -34.520  21.464  -1.534  0.00  0.00    +0.112 C 
ATOM     16  C   UNL     1     -32.348  21.159  -0.333  0.00  0.00    +0.112 C 
ENDBRANCH   7  14
ENDBRANCH   1   4
BRANCH   1  17
ATOM     17  N   UNL     1     -37.773  24.714   4.356  0.00  0.00    -0.170 NA
ATOM     18  H   UNL     1     -38.178  25.539   4.798  0.00  0.00    +0.149 HD
BRANCH  17  19
ATOM     19  C   UNL     1     -38.128  24.779   2.922  0.00  0.00    +0.174 C 
BRANCH  19  21
ATOM     20  O   UNL     1     -38.139  26.909   1.747  0.00  0.00    -0.249 OA
ATOM     21  C   UNL     1     -38.598  26.183   2.620  0.00  0.00    +0.330 C 
BRANCH  21  22
ATOM     22  O   UNL     1     -39.624  26.564   3.424  0.00  0.00    -0.479 OA
ATOM     23  H   UNL     1     -40.352  27.033   3.065  0.00  0.00    +0.295 HD
ENDBRANCH  21  22
ENDBRANCH  19  21
BRANCH  19  24
ATOM     24  C   UNL     1     -39.136  23.680   2.563  0.00  0.00    +0.040 C 
BRANCH  24  25
ATOM     25  C   UNL     1     -38.710  22.695   1.472  0.00  0.00    +0.111 C 
BRANCH  25  27
ATOM     26  O   UNL     1     -40.412  21.151   2.213  0.00  0.00    -0.250 OA
ATOM     27  C   UNL     1     -39.405  21.359   1.550  0.00  0.00    +0.314 C 
BRANCH  27  28
ATOM     28  O   UNL     1     -38.783  20.400   0.820  0.00  0.00    -0.480 OA
ATOM     29  H   UNL     1     -38.142  19.847   1.222  0.00  0.00    +0.295 HD
ENDBRANCH  27  28
ENDBRANCH  25  27
ENDBRANCH  24  25
ENDBRANCH  19  24
ENDBRANCH  17  19
ENDBRANCH   1  17
TORSDOF 10
ENDMDL
MODEL 6
REMARK VINA RESULT:      -6.0      2.017      3.727
REMARK  Name = 191888
REMARK  10 active torsions:
REMARK  status: ('A' for Active; 'I' for Inactive)
REMARK    1  A    between atoms: S_1  and  C_4
REMARK    2  A    between atoms: S_1  and  N_17
REMARK    3  A    between atoms: C_7  and  N_14
REMARK    4  A    between atoms: N_17  and  C_19
REMARK    5  A    between atoms: C_19  and  C_21
REMARK    6  A    between atoms: C_19  and  C_24
REMARK    7  A    between atoms: C_21  and  O_22
REMARK    8  A    between atoms: C_24  and  C_25
REMARK    9  A    between atoms: C_25  and  C_27
REMARK   10  A    between atoms: C_27  and  O_28
REMARK                            x       y       z     vdW  Elec       q    Type
REMARK                         _______ _______ _______ _____ _____    ______ ____
ROOT
ATOM      1  S   UNL     1     -37.335  23.782   2.934  0.00  0.00    +0.061 S 
ATOM      2  O   UNL     1     -36.876  25.031   2.359  0.00  0.00    -0.153 OA
ATOM      3  O   UNL     1     -38.740  23.428   2.886  0.00  0.00    -0.153 OA
ENDROOT
BRANCH   1   4
ATOM      4  C   UNL     1     -36.446  22.466   2.155  0.00  0.00    +0.122 C 
ATOM      5  C   UNL     1     -35.283  22.686   1.409  0.00  0.00    +0.020 C 
ATOM      6  C   UNL     1     -34.630  21.577   0.817  0.00  0.00    +0.015 C 
ATOM      7  C   UNL     1     -33.462  21.789   0.067  0.00  0.00    +0.048 C 
ATOM      8  C   UNL     1     -36.968  21.190   2.324  0.00  0.00    +0.020 C 
ATOM      9  C   UNL     1     -34.747  23.972   1.233  0.00  0.00    +0.001 C 
ATOM     10  C   UNL     1     -35.165  20.291   0.994  0.00  0.00    +0.001 C 
ATOM     11  C   UNL     1     -36.327  20.099   1.743  0.00  0.00    +0.001 C 
ATOM     12  C   UNL     1     -32.944  23.074  -0.097  0.00  0.00    +0.015 C 
ATOM     13  C   UNL     1     -33.585  24.163   0.485  0.00  0.00    +0.001 C 
BRANCH   7  14
ATOM     14  N   UNL     1     -32.770  20.715  -0.546  0.00  0.00    -0.304 N 
ATOM     15  C   UNL     1     -31.772  19.975   0.195  0.00  0.00    +0.112 C 
ATOM     16  C   UNL     1     -33.068  20.344  -1.911  0.00  0.00    +0.112 C 
ENDBRANCH   7  14
ENDBRANCH   1   4
BRANCH   1  17
ATOM     17  N   UNL     1     -36.793  23.667   4.541  0.00  0.00    -0.170 NA
ATOM     18  H   UNL     1     -37.438  23.044   5.026  0.00  0.00    +0.149 HD
BRANCH  17  19
ATOM     19  C   UNL     1     -35.427  23.174   4.826  0.00  0.00    +0.174 C 
BRANCH  19  21
ATOM     20  O   UNL     1     -36.045  21.998   6.863  0.00  0.00    -0.249 OA
ATOM     21  C   UNL     1     -35.543  21.982   5.746  0.00  0.00    +0.330 C 
BRANCH  21  22
ATOM     22  O   UNL     1     -35.038  20.852   5.187  0.00  0.00    -0.479 OA
ATOM     23  H   UNL     1     -34.342  20.389   5.613  0.00  0.00    +0.295 HD
ENDBRANCH  21  22
ENDBRANCH  19  21
BRANCH  19  24
ATOM     24  C   UNL     1     -34.544  24.308   5.362  0.00  0.00    +0.040 C 
BRANCH  24  25
ATOM     25  C   UNL     1     -34.010  25.302   4.327  0.00  0.00    +0.111 C 
BRANCH  25  27
ATOM     26  O   UNL     1     -34.099  27.699   4.047  0.00  0.00    -0.250 OA
ATOM     27  C   UNL     1     -34.649  26.665   4.403  0.00  0.00    +0.314 C 
BRANCH  27  28
ATOM     28  O   UNL     1     -35.899  26.631   4.928  0.00  0.00    -0.480 OA
ATOM     29  H   UNL     1     -36.595  26.216   4.457  0.00  0.00    +0.295 HD
ENDBRANCH  27  28
ENDBRANCH  25  27
ENDBRANCH  24  25
ENDBRANCH  19  24
ENDBRANCH  17  19
ENDBRANCH   1  17
TORSDOF 10
ENDMDL
MODEL 7
REMARK VINA RESULT:      -5.9      4.034      7.035
REMARK  Name = 191888
REMARK  10 active torsions:
REMARK  status: ('A' for Active; 'I' for Inactive)
REMARK    1  A    between atoms: S_1  and  C_4
REMARK    2  A    between atoms: S_1  and  N_17
REMARK    3  A    between atoms: C_7  and  N_14
REMARK    4  A    between atoms: N_17  and  C_19
REMARK    5  A    between atoms: C_19  and  C_21
REMARK    6  A    between atoms: C_19  and  C_24
REMARK    7  A    between atoms: C_21  and  O_22
REMARK    8  A    between atoms: C_24  and  C_25
REMARK    9  A    between atoms: C_25  and  C_27
REMARK   10  A    between atoms: C_27  and  O_28
REMARK                            x       y       z     vdW  Elec       q    Type
REMARK                         _______ _______ _______ _____ _____    ______ ____
ROOT
ATOM      1  S   UNL     1     -35.563  24.184   4.447  0.00  0.00    +0.061 S 
ATOM      2  O   UNL     1     -34.689  23.238   5.113  0.00  0.00    -0.153 OA
ATOM      3  O   UNL     1     -36.670  24.785   5.165  0.00  0.00    -0.153 OA
ENDROOT
BRANCH   1   4
ATOM      4  C   UNL     1     -34.565  25.509   3.834  0.00  0.00    +0.122 C 
ATOM      5  C   UNL     1     -33.793  26.317   4.676  0.00  0.00    +0.020 C 
ATOM      6  C   UNL     1     -33.021  27.358   4.105  0.00  0.00    +0.015 C 
ATOM      7  C   UNL     1     -32.242  28.173   4.943  0.00  0.00    +0.048 C 
ATOM      8  C   UNL     1     -34.589  25.709   2.460  0.00  0.00    +0.020 C 
ATOM      9  C   UNL     1     -33.762  26.123   6.066  0.00  0.00    +0.001 C 
ATOM     10  C   UNL     1     -33.051  27.552   2.715  0.00  0.00    +0.001 C 
ATOM     11  C   UNL     1     -33.830  26.732   1.898  0.00  0.00    +0.001 C 
ATOM     12  C   UNL     1     -32.224  27.965   6.323  0.00  0.00    +0.015 C 
ATOM     13  C   UNL     1     -32.982  26.942   6.883  0.00  0.00    +0.001 C 
BRANCH   7  14
ATOM     14  N   UNL     1     -31.452  29.228   4.425  0.00  0.00    -0.304 N 
ATOM     15  C   UNL     1     -32.005  30.559   4.302  0.00  0.00    +0.112 C 
ATOM     16  C   UNL     1     -30.083  28.984   4.028  0.00  0.00    +0.112 C 
ENDBRANCH   7  14
ENDBRANCH   1   4
BRANCH   1  17
ATOM     17  N   UNL     1     -36.151  23.494   3.009  0.00  0.00    -0.170 NA
ATOM     18  H   UNL     1     -35.340  23.306   2.419  0.00  0.00    +0.149 HD
BRANCH  17  19
ATOM     19  C   UNL     1     -36.942  22.245   3.058  0.00  0.00    +0.174 C 
BRANCH  19  21
ATOM     20  O   UNL     1     -34.962  21.259   2.048  0.00  0.00    -0.249 OA
ATOM     21  C   UNL     1     -36.077  21.123   2.536  0.00  0.00    +0.330 C 
BRANCH  21  22
ATOM     22  O   UNL     1     -36.669  19.909   2.683  0.00  0.00    -0.479 OA
ATOM     23  H   UNL     1     -37.577  19.855   2.909  0.00  0.00    +0.295 HD
ENDBRANCH  21  22
ENDBRANCH  19  21
BRANCH  19  24
ATOM     24  C   UNL     1     -38.274  22.419   2.318  0.00  0.00    +0.040 C 
BRANCH  24  25
ATOM     25  C   UNL     1     -38.590  23.827   1.807  0.00  0.00    +0.111 C 
BRANCH  25  27
ATOM     26  O   UNL     1     -40.664  24.975   2.267  0.00  0.00    -0.250 OA
ATOM     27  C   UNL     1     -39.575  24.582   2.664  0.00  0.00    +0.314 C 
BRANCH  27  28
ATOM     28  O   UNL     1     -39.119  24.798   3.922  0.00  0.00    -0.480 OA
ATOM     29  H   UNL     1     -39.697  24.702   4.654  0.00  0.00    +0.295 HD
ENDBRANCH  27  28
ENDBRANCH  25  27
ENDBRANCH  24  25
ENDBRANCH  19  24
ENDBRANCH  17  19
ENDBRANCH   1  17
TORSDOF 10
ENDMDL
MODEL 8
REMARK VINA RESULT:      -5.9      3.517      5.702
REMARK  Name = 191888
REMARK  10 active torsions:
REMARK  status: ('A' for Active; 'I' for Inactive)
REMARK    1  A    between atoms: S_1  and  C_4
REMARK    2  A    between atoms: S_1  and  N_17
REMARK    3  A    between atoms: C_7  and  N_14
REMARK    4  A    between atoms: N_17  and  C_19
REMARK    5  A    between atoms: C_19  and  C_21
REMARK    6  A    between atoms: C_19  and  C_24
REMARK    7  A    between atoms: C_21  and  O_22
REMARK    8  A    between atoms: C_24  and  C_25
REMARK    9  A    between atoms: C_25  and  C_27
REMARK   10  A    between atoms: C_27  and  O_28
REMARK                            x       y       z     vdW  Elec       q    Type
REMARK                         _______ _______ _______ _____ _____    ______ ____
ROOT
ATOM      1  S   UNL     1     -36.828  22.157   2.582  0.00  0.00    +0.061 S 
ATOM      2  O   UNL     1     -38.190  22.320   2.113  0.00  0.00    -0.153 OA
ATOM      3  O   UNL     1     -36.179  20.862   2.503  0.00  0.00    -0.153 OA
ENDROOT
BRANCH   1   4
ATOM      4  C   UNL     1     -35.808  23.299   1.698  0.00  0.00    +0.122 C 
ATOM      5  C   UNL     1     -36.126  24.656   1.585  0.00  0.00    +0.020 C 
ATOM      6  C   UNL     1     -35.255  25.505   0.859  0.00  0.00    +0.015 C 
ATOM      7  C   UNL     1     -35.567  26.870   0.741  0.00  0.00    +0.048 C 
ATOM      8  C   UNL     1     -34.661  22.773   1.115  0.00  0.00    +0.020 C 
ATOM      9  C   UNL     1     -37.281  25.198   2.171  0.00  0.00    +0.001 C 
ATOM     10  C   UNL     1     -34.099  24.964   0.274  0.00  0.00    +0.001 C 
ATOM     11  C   UNL     1     -33.805  23.606   0.402  0.00  0.00    +0.001 C 
ATOM     12  C   UNL     1     -36.720  27.391   1.330  0.00  0.00    +0.015 C 
ATOM     13  C   UNL     1     -37.575  26.556   2.044  0.00  0.00    +0.001 C 
BRANCH   7  14
ATOM     14  N   UNL     1     -34.731  27.762   0.027  0.00  0.00    -0.304 N 
ATOM     15  C   UNL     1     -34.941  27.982  -1.387  0.00  0.00    +0.112 C 
ATOM     16  C   UNL     1     -33.670  28.470   0.710  0.00  0.00    +0.112 C 
ENDBRANCH   7  14
ENDBRANCH   1   4
BRANCH   1  17
ATOM     17  N   UNL     1     -36.705  22.738   4.174  0.00  0.00    -0.170 NA
ATOM     18  H   UNL     1     -37.233  22.094   4.764  0.00  0.00    +0.149 HD
BRANCH  17  19
ATOM     19  C   UNL     1     -35.375  22.899   4.801  0.00  0.00    +0.174 C 
BRANCH  19  21
ATOM     20  O   UNL     1     -35.255  22.160   7.115  0.00  0.00    -0.249 OA
ATOM     21  C   UNL     1     -35.260  21.891   5.920  0.00  0.00    +0.330 C 
BRANCH  21  22
ATOM     22  O   UNL     1     -35.182  20.617   5.457  0.00  0.00    -0.479 OA
ATOM     23  H   UNL     1     -35.406  20.427   4.566  0.00  0.00    +0.295 HD
ENDBRANCH  21  22
ENDBRANCH  19  21
BRANCH  19  24
ATOM     24  C   UNL     1     -35.151  24.354   5.230  0.00  0.00    +0.040 C 
BRANCH  24  25
ATOM     25  C   UNL     1     -34.033  25.112   4.510  0.00  0.00    +0.111 C 
BRANCH  25  27
ATOM     26  O   UNL     1     -34.642  27.420   4.144  0.00  0.00    -0.250 OA
ATOM     27  C   UNL     1     -34.017  26.593   4.795  0.00  0.00    +0.314 C 
BRANCH  27  28
ATOM     28  O   UNL     1     -33.218  26.918   5.841  0.00  0.00    -0.480 OA
ATOM     29  H   UNL     1     -32.461  27.453   5.704  0.00  0.00    +0.295 HD
ENDBRANCH  27  28
ENDBRANCH  25  27
ENDBRANCH  24  25
ENDBRANCH  19  24
ENDBRANCH  17  19
ENDBRANCH   1  17
TORSDOF 10
ENDMDL
MODEL 9
REMARK VINA RESULT:      -5.8      4.455      6.218
REMARK  Name = 191888
REMARK  10 active torsions:
REMARK  status: ('A' for Active; 'I' for Inactive)
REMARK    1  A    between atoms: S_1  and  C_4
REMARK    2  A    between atoms: S_1  and  N_17
REMARK    3  A    between atoms: C_7  and  N_14
REMARK    4  A    between atoms: N_17  and  C_19
REMARK    5  A    between atoms: C_19  and  C_21
REMARK    6  A    between atoms: C_19  and  C_24
REMARK    7  A    between atoms: C_21  and  O_22
REMARK    8  A    between atoms: C_24  and  C_25
REMARK    9  A    between atoms: C_25  and  C_27
REMARK   10  A    between atoms: C_27  and  O_28
REMARK                            x       y       z     vdW  Elec       q    Type
REMARK                         _______ _______ _______ _____ _____    ______ ____
ROOT
ATOM      1  S   UNL     1     -36.184  23.301   4.066  0.00  0.00    +0.061 S 
ATOM      2  O   UNL     1     -35.823  22.593   2.852  0.00  0.00    -0.153 OA
ATOM      3  O   UNL     1     -36.228  22.600   5.334  0.00  0.00    -0.153 OA
ENDROOT
BRANCH   1   4
ATOM      4  C   UNL     1     -35.060  24.651   4.262  0.00  0.00    +0.122 C 
ATOM      5  C   UNL     1     -34.318  25.171   3.196  0.00  0.00    +0.020 C 
ATOM      6  C   UNL     1     -33.438  26.254   3.438  0.00  0.00    +0.015 C 
ATOM      7  C   UNL     1     -32.691  26.782   2.372  0.00  0.00    +0.048 C 
ATOM      8  C   UNL     1     -34.950  25.175   5.544  0.00  0.00    +0.020 C 
ATOM      9  C   UNL     1     -34.422  24.649   1.896  0.00  0.00    +0.001 C 
ATOM     10  C   UNL     1     -33.334  26.777   4.736  0.00  0.00    +0.001 C 
ATOM     11  C   UNL     1     -34.086  26.240   5.783  0.00  0.00    +0.001 C 
ATOM     12  C   UNL     1     -32.807  26.250   1.087  0.00  0.00    +0.015 C 
ATOM     13  C   UNL     1     -33.671  25.186   0.850  0.00  0.00    +0.001 C 
BRANCH   7  14
ATOM     14  N   UNL     1     -31.797  27.865   2.559  0.00  0.00    -0.304 N 
ATOM     15  C   UNL     1     -32.268  29.227   2.438  0.00  0.00    +0.112 C 
ATOM     16  C   UNL     1     -30.410  27.615   2.886  0.00  0.00    +0.112 C 
ENDBRANCH   7  14
ENDBRANCH   1   4
BRANCH   1  17
ATOM     17  N   UNL     1     -37.662  24.107   3.831  0.00  0.00    -0.170 NA
ATOM     18  H   UNL     1     -37.687  24.877   4.500  0.00  0.00    +0.149 HD
BRANCH  17  19
ATOM     19  C   UNL     1     -37.987  24.681   2.507  0.00  0.00    +0.174 C 
BRANCH  19  21
ATOM     20  O   UNL     1     -37.324  27.000   2.192  0.00  0.00    -0.249 OA
ATOM     21  C   UNL     1     -38.102  26.179   2.662  0.00  0.00    +0.330 C 
BRANCH  21  22
ATOM     22  O   UNL     1     -39.199  26.537   3.379  0.00  0.00    -0.479 OA
ATOM     23  H   UNL     1     -39.743  27.242   3.084  0.00  0.00    +0.295 HD
ENDBRANCH  21  22
ENDBRANCH  19  21
BRANCH  19  24
ATOM     24  C   UNL     1     -39.231  24.006   1.915  0.00  0.00    +0.040 C 
BRANCH  24  25
ATOM     25  C   UNL     1     -38.990  22.737   1.093  0.00  0.00    +0.111 C 
BRANCH  25  27
ATOM     26  O   UNL     1     -40.464  21.048   1.990  0.00  0.00    -0.250 OA
ATOM     27  C   UNL     1     -39.324  21.462   1.826  0.00  0.00    +0.314 C 
BRANCH  27  28
ATOM     28  O   UNL     1     -38.226  20.828   2.306  0.00  0.00    -0.480 OA
ATOM     29  H   UNL     1     -37.372  21.175   2.134  0.00  0.00    +0.295 HD
ENDBRANCH  27  28
ENDBRANCH  25  27
ENDBRANCH  24  25
ENDBRANCH  19  24
ENDBRANCH  17  19
ENDBRANCH   1  17
TORSDOF 10
ENDMDL
