MODEL 1
REMARK VINA RESULT:      -7.4      0.000      0.000
REMARK  Name = 196887
REMARK  7 active torsions:
REMARK  status: ('A' for Active; 'I' for Inactive)
REMARK    1  A    between atoms: N_3  and  C1*_15
REMARK    2  A    between atoms: N_4  and  C_26
REMARK    3  A    between atoms: C2*_16  and  O2*_19
REMARK    4  A    between atoms: C3*_17  and  O3*_21
REMARK    5  A    between atoms: C4*_18  and  C5*_23
REMARK    6  A    between atoms: C5*_23  and  O5*_24
REMARK    7  A    between atoms: C_26  and  C_27
REMARK                            x       y       z     vdW  Elec       q    Type
REMARK                         _______ _______ _______ _____ _____    ______ ____
ROOT
ATOM      1  O   UNL     1     -36.305  22.801  -0.090  0.00  0.00    -0.246 OA
ATOM      2  O   UNL     1     -35.196  20.625   3.852  0.00  0.00    -0.267 OA
ATOM      3  N   UNL     1     -36.224  24.024   1.871  0.00  0.00    -0.240 N 
ATOM      4  N   UNL     1     -35.750  21.690   1.868  0.00  0.00    -0.244 N 
ATOM      5  N   UNL     1     -36.133  25.273   3.916  0.00  0.00    -0.226 NA
ATOM      6  C   UNL     1     -35.999  24.083   3.274  0.00  0.00    +0.153 A 
ATOM      7  C   UNL     1     -36.109  22.842   1.130  0.00  0.00    +0.337 A 
ATOM      8  C   UNL     1     -35.648  22.928   3.957  0.00  0.00    +0.087 A 
ATOM      9  C   UNL     1     -35.508  21.647   3.247  0.00  0.00    +0.267 A 
ATOM     10  C   UNL     1     -35.429  22.992   5.336  0.00  0.00    -0.013 C 
ATOM     11  C   UNL     1     -35.562  24.203   6.000  0.00  0.00    +0.017 C 
ATOM     12  C   UNL     1     -35.914  25.308   5.250  0.00  0.00    +0.100 C 
ATOM     13  C   UNL     1     -35.048  21.818   6.182  0.00  0.00    +0.031 C 
ENDROOT
BRANCH   3  15
ATOM     14  O4* UNL     1     -35.385  25.933   0.815  0.00  0.00    -0.331 OA
ATOM     15  C1* UNL     1     -36.584  25.250   1.217  0.00  0.00    +0.239 C 
ATOM     16  C2* UNL     1     -37.336  26.200   2.134  0.00  0.00    +0.190 C 
ATOM     17  C3* UNL     1     -36.935  27.551   1.583  0.00  0.00    +0.171 C 
ATOM     18  C4* UNL     1     -35.479  27.322   1.201  0.00  0.00    +0.176 C 
BRANCH  16  19
ATOM     19  O2* UNL     1     -38.733  25.997   2.097  0.00  0.00    -0.378 OA
ATOM     20  H2* UNL     1     -39.107  26.163   2.976  0.00  0.00    +0.211 HD
ENDBRANCH  16  19
BRANCH  17  21
ATOM     21  O3* UNL     1     -37.663  27.835   0.389  0.00  0.00    -0.379 OA
ATOM     22  H3* UNL     1     -37.789  27.016  -0.116  0.00  0.00    +0.211 HD
ENDBRANCH  17  21
BRANCH  18  23
ATOM     23  C5* UNL     1     -34.510  27.560   2.352  0.00  0.00    +0.169 C 
BRANCH  23  24
ATOM     24  O5* UNL     1     -35.188  28.269   3.375  0.00  0.00    -0.379 OA
ATOM     25  H5* UNL     1     -35.875  28.827   2.980  0.00  0.00    +0.211 HD
ENDBRANCH  23  24
ENDBRANCH  18  23
ENDBRANCH   3  15
BRANCH   4  26
ATOM     26  C   UNL     1     -35.625  20.450   1.107  0.00  0.00    +0.140 C 
BRANCH  26  27
ATOM     27  C   UNL     1     -34.190  20.090   0.850  0.00  0.00    +0.001 C 
ATOM     28  C   UNL     1     -33.378  20.966   0.138  0.00  0.00    -0.002 C 
ATOM     29  C   UNL     1     -33.688  18.885   1.327  0.00  0.00    -0.002 C 
ATOM     30  C   UNL     1     -32.045  20.631  -0.100  0.00  0.00    -0.000 C 
ATOM     31  C   UNL     1     -32.354  18.550   1.089  0.00  0.00    -0.000 C 
ATOM     32  C   UNL     1     -31.533  19.424   0.375  0.00  0.00    -0.000 C 
ENDBRANCH  26  27
ENDBRANCH   4  26
TORSDOF 7
ENDMDL
MODEL 2
REMARK VINA RESULT:      -7.4      1.888      2.884
REMARK  Name = 196887
REMARK  7 active torsions:
REMARK  status: ('A' for Active; 'I' for Inactive)
REMARK    1  A    between atoms: N_3  and  C1*_15
REMARK    2  A    between atoms: N_4  and  C_26
REMARK    3  A    between atoms: C2*_16  and  O2*_19
REMARK    4  A    between atoms: C3*_17  and  O3*_21
REMARK    5  A    between atoms: C4*_18  and  C5*_23
REMARK    6  A    between atoms: C5*_23  and  O5*_24
REMARK    7  A    between atoms: C_26  and  C_27
REMARK                            x       y       z     vdW  Elec       q    Type
REMARK                         _______ _______ _______ _____ _____    ______ ____
ROOT
ATOM      1  O   UNL     1     -36.999  21.787   0.038  0.00  0.00    -0.246 OA
ATOM      2  O   UNL     1     -34.977  20.625   4.046  0.00  0.00    -0.267 OA
ATOM      3  N   UNL     1     -36.950  23.341   1.751  0.00  0.00    -0.240 N 
ATOM      4  N   UNL     1     -35.984  21.182   2.032  0.00  0.00    -0.244 N 
ATOM      5  N   UNL     1     -36.886  24.936   3.540  0.00  0.00    -0.226 NA
ATOM      6  C   UNL     1     -36.575  23.697   3.075  0.00  0.00    +0.153 A 
ATOM      7  C   UNL     1     -36.670  22.088   1.191  0.00  0.00    +0.337 A 
ATOM      8  C   UNL     1     -35.903  22.776   3.865  0.00  0.00    +0.087 A 
ATOM      9  C   UNL     1     -35.573  21.440   3.347  0.00  0.00    +0.267 A 
ATOM     10  C   UNL     1     -35.538  23.133   5.167  0.00  0.00    -0.013 C 
ATOM     11  C   UNL     1     -35.851  24.395   5.649  0.00  0.00    +0.017 C 
ATOM     12  C   UNL     1     -36.521  25.255   4.802  0.00  0.00    +0.100 C 
ATOM     13  C   UNL     1     -34.813  22.229   6.113  0.00  0.00    +0.031 C 
ENDROOT
BRANCH   3  15
ATOM     14  O4* UNL     1     -39.051  24.238   1.257  0.00  0.00    -0.331 OA
ATOM     15  C1* UNL     1     -37.644  24.333   0.980  0.00  0.00    +0.239 C 
ATOM     16  C2* UNL     1     -37.482  24.126  -0.516  0.00  0.00    +0.190 C 
ATOM     17  C3* UNL     1     -38.781  24.688  -1.053  0.00  0.00    +0.171 C 
ATOM     18  C4* UNL     1     -39.781  24.255   0.010  0.00  0.00    +0.176 C 
BRANCH  16  19
ATOM     19  O2* UNL     1     -36.351  24.793  -1.037  0.00  0.00    -0.378 OA
ATOM     20  H2* UNL     1     -35.626  24.159  -1.149  0.00  0.00    +0.211 HD
ENDBRANCH  16  19
BRANCH  17  21
ATOM     21  O3* UNL     1     -38.737  26.115  -1.060  0.00  0.00    -0.379 OA
ATOM     22  H3* UNL     1     -38.675  26.432  -1.975  0.00  0.00    +0.211 HD
ENDBRANCH  17  21
BRANCH  18  23
ATOM     23  C5* UNL     1     -40.346  22.861  -0.227  0.00  0.00    +0.169 C 
BRANCH  23  24
ATOM     24  O5* UNL     1     -40.437  22.191   1.020  0.00  0.00    -0.379 OA
ATOM     25  H5* UNL     1     -40.517  21.237   0.868  0.00  0.00    +0.211 HD
ENDBRANCH  23  24
ENDBRANCH  18  23
ENDBRANCH   3  15
BRANCH   4  26
ATOM     26  C   UNL     1     -35.685  19.872   1.461  0.00  0.00    +0.140 C 
BRANCH  26  27
ATOM     27  C   UNL     1     -34.238  19.741   1.080  0.00  0.00    +0.001 C 
ATOM     28  C   UNL     1     -33.631  20.745   0.333  0.00  0.00    -0.002 C 
ATOM     29  C   UNL     1     -33.521  18.620   1.478  0.00  0.00    -0.002 C 
ATOM     30  C   UNL     1     -32.287  20.623  -0.021  0.00  0.00    -0.000 C 
ATOM     31  C   UNL     1     -32.177  18.498   1.125  0.00  0.00    -0.000 C 
ATOM     32  C   UNL     1     -31.559  19.500   0.375  0.00  0.00    -0.000 C 
ENDBRANCH  26  27
ENDBRANCH   4  26
TORSDOF 7
ENDMDL
MODEL 3
REMARK VINA RESULT:      -7.2      2.766      4.625
REMARK  Name = 196887
REMARK  7 active torsions:
REMARK  status: ('A' for Active; 'I' for Inactive)
REMARK    1  A    between atoms: N_3  and  C1*_15
REMARK    2  A    between atoms: N_4  and  C_26
REMARK    3  A    between atoms: C2*_16  and  O2*_19
REMARK    4  A    between atoms: C3*_17  and  O3*_21
REMARK    5  A    between atoms: C4*_18  and  C5*_23
REMARK    6  A    between atoms: C5*_23  and  O5*_24
REMARK    7  A    between atoms: C_26  and  C_27
REMARK                            x       y       z     vdW  Elec       q    Type
REMARK                         _______ _______ _______ _____ _____    ______ ____
ROOT
ATOM      1  O   UNL     1     -35.392  23.409   1.983  0.00  0.00    -0.246 OA
ATOM      2  O   UNL     1     -31.902  24.057  -1.001  0.00  0.00    -0.267 OA
ATOM      3  N   UNL     1     -33.915  25.148   2.360  0.00  0.00    -0.240 N 
ATOM      4  N   UNL     1     -33.654  23.711   0.478  0.00  0.00    -0.244 N 
ATOM      5  N   UNL     1     -32.371  26.945   2.730  0.00  0.00    -0.226 NA
ATOM      6  C   UNL     1     -32.766  25.890   1.970  0.00  0.00    +0.153 A 
ATOM      7  C   UNL     1     -34.392  24.047   1.637  0.00  0.00    +0.337 A 
ATOM      8  C   UNL     1     -32.074  25.524   0.825  0.00  0.00    +0.087 A 
ATOM      9  C   UNL     1     -32.514  24.380   0.013  0.00  0.00    +0.267 A 
ATOM     10  C   UNL     1     -30.945  26.258   0.448  0.00  0.00    -0.013 C 
ATOM     11  C   UNL     1     -30.535  27.337   1.217  0.00  0.00    +0.017 C 
ATOM     12  C   UNL     1     -31.277  27.638   2.342  0.00  0.00    +0.100 C 
ATOM     13  C   UNL     1     -30.116  25.962  -0.762  0.00  0.00    +0.031 C 
ENDROOT
BRANCH   3  15
ATOM     14  O4* UNL     1     -34.223  24.698   4.633  0.00  0.00    -0.331 OA
ATOM     15  C1* UNL     1     -34.591  25.572   3.553  0.00  0.00    +0.239 C 
ATOM     16  C2* UNL     1     -36.102  25.488   3.425  0.00  0.00    +0.190 C 
ATOM     17  C3* UNL     1     -36.523  25.216   4.853  0.00  0.00    +0.171 C 
ATOM     18  C4* UNL     1     -35.414  24.296   5.344  0.00  0.00    +0.176 C 
BRANCH  16  19
ATOM     19  O2* UNL     1     -36.670  26.677   2.914  0.00  0.00    -0.378 OA
ATOM     20  H2* UNL     1     -36.127  27.434   3.180  0.00  0.00    +0.211 HD
ENDBRANCH  16  19
BRANCH  17  21
ATOM     21  O3* UNL     1     -36.471  26.418   5.622  0.00  0.00    -0.379 OA
ATOM     22  H3* UNL     1     -35.636  26.449   6.116  0.00  0.00    +0.211 HD
ENDBRANCH  17  21
BRANCH  18  23
ATOM     23  C5* UNL     1     -35.673  22.826   5.042  0.00  0.00    +0.169 C 
BRANCH  23  24
ATOM     24  O5* UNL     1     -36.113  22.190   6.230  0.00  0.00    -0.379 OA
ATOM     25  H5* UNL     1     -35.371  22.117   6.850  0.00  0.00    +0.211 HD
ENDBRANCH  23  24
ENDBRANCH  18  23
ENDBRANCH   3  15
BRANCH   4  26
ATOM     26  C   UNL     1     -34.142  22.566  -0.287  0.00  0.00    +0.140 C 
BRANCH  26  27
ATOM     27  C   UNL     1     -33.548  21.274   0.195  0.00  0.00    +0.001 C 
ATOM     28  C   UNL     1     -34.291  20.443   1.026  0.00  0.00    -0.002 C 
ATOM     29  C   UNL     1     -32.261  20.922  -0.195  0.00  0.00    -0.002 C 
ATOM     30  C   UNL     1     -33.738  19.243   1.473  0.00  0.00    -0.000 C 
ATOM     31  C   UNL     1     -31.708  19.722   0.252  0.00  0.00    -0.000 C 
ATOM     32  C   UNL     1     -32.447  18.882   1.086  0.00  0.00    -0.000 C 
ENDBRANCH  26  27
ENDBRANCH   4  26
TORSDOF 7
ENDMDL
MODEL 4
REMARK VINA RESULT:      -6.7      3.012      6.215
REMARK  Name = 196887
REMARK  7 active torsions:
REMARK  status: ('A' for Active; 'I' for Inactive)
REMARK    1  A    between atoms: N_3  and  C1*_15
REMARK    2  A    between atoms: N_4  and  C_26
REMARK    3  A    between atoms: C2*_16  and  O2*_19
REMARK    4  A    between atoms: C3*_17  and  O3*_21
REMARK    5  A    between atoms: C4*_18  and  C5*_23
REMARK    6  A    between atoms: C5*_23  and  O5*_24
REMARK    7  A    between atoms: C_26  and  C_27
REMARK                            x       y       z     vdW  Elec       q    Type
REMARK                         _______ _______ _______ _____ _____    ______ ____
ROOT
ATOM      1  O   UNL     1     -37.640  22.613   1.225  0.00  0.00    -0.246 OA
ATOM      2  O   UNL     1     -33.618  20.306   1.276  0.00  0.00    -0.267 OA
ATOM      3  N   UNL     1     -37.585  20.455   0.395  0.00  0.00    -0.240 N 
ATOM      4  N   UNL     1     -35.617  21.481   1.260  0.00  0.00    -0.244 N 
ATOM      5  N   UNL     1     -37.504  18.216  -0.461  0.00  0.00    -0.226 NA
ATOM      6  C   UNL     1     -36.856  19.269   0.104  0.00  0.00    +0.153 A 
ATOM      7  C   UNL     1     -36.998  21.586   0.975  0.00  0.00    +0.337 A 
ATOM      8  C   UNL     1     -35.502  19.210   0.401  0.00  0.00    +0.087 A 
ATOM      9  C   UNL     1     -34.816  20.358   1.012  0.00  0.00    +0.267 A 
ATOM     10  C   UNL     1     -34.791  18.041   0.112  0.00  0.00    -0.013 C 
ATOM     11  C   UNL     1     -35.445  16.961  -0.463  0.00  0.00    +0.017 C 
ATOM     12  C   UNL     1     -36.793  17.098  -0.729  0.00  0.00    +0.100 C 
ATOM     13  C   UNL     1     -33.332  17.857   0.384  0.00  0.00    +0.031 C 
ENDROOT
BRANCH   3  15
ATOM     14  O4* UNL     1     -39.137  20.866  -1.304  0.00  0.00    -0.331 OA
ATOM     15  C1* UNL     1     -38.982  20.458   0.066  0.00  0.00    +0.239 C 
ATOM     16  C2* UNL     1     -39.774  21.447   0.904  0.00  0.00    +0.190 C 
ATOM     17  C3* UNL     1     -40.891  21.835  -0.041  0.00  0.00    +0.171 C 
ATOM     18  C4* UNL     1     -40.177  21.866  -1.386  0.00  0.00    +0.176 C 
BRANCH  16  19
ATOM     19  O2* UNL     1     -40.257  20.877   2.103  0.00  0.00    -0.378 OA
ATOM     20  H2* UNL     1     -39.863  20.000   2.225  0.00  0.00    +0.211 HD
ENDBRANCH  16  19
BRANCH  17  21
ATOM     21  O3* UNL     1     -41.878  20.805  -0.090  0.00  0.00    -0.379 OA
ATOM     22  H3* UNL     1     -41.464  19.951   0.113  0.00  0.00    +0.211 HD
ENDBRANCH  17  21
BRANCH  18  23
ATOM     23  C5* UNL     1     -39.523  23.207  -1.690  0.00  0.00    +0.169 C 
BRANCH  23  24
ATOM     24  O5* UNL     1     -38.148  22.989  -1.959  0.00  0.00    -0.379 OA
ATOM     25  H5* UNL     1     -37.934  23.331  -2.840  0.00  0.00    +0.211 HD
ENDBRANCH  23  24
ENDBRANCH  18  23
ENDBRANCH   3  15
BRANCH   4  26
ATOM     26  C   UNL     1     -34.993  22.653   1.867  0.00  0.00    +0.140 C 
BRANCH  26  27
ATOM     27  C   UNL     1     -35.155  22.667   3.360  0.00  0.00    +0.001 C 
ATOM     28  C   UNL     1     -35.291  23.881   4.025  0.00  0.00    -0.002 C 
ATOM     29  C   UNL     1     -35.168  21.468   4.061  0.00  0.00    -0.002 C 
ATOM     30  C   UNL     1     -35.441  23.894   5.412  0.00  0.00    -0.000 C 
ATOM     31  C   UNL     1     -35.319  21.481   5.448  0.00  0.00    -0.000 C 
ATOM     32  C   UNL     1     -35.455  22.694   6.124  0.00  0.00    -0.000 C 
ENDBRANCH  26  27
ENDBRANCH   4  26
TORSDOF 7
ENDMDL
MODEL 5
REMARK VINA RESULT:      -6.6      3.237      7.543
REMARK  Name = 196887
REMARK  7 active torsions:
REMARK  status: ('A' for Active; 'I' for Inactive)
REMARK    1  A    between atoms: N_3  and  C1*_15
REMARK    2  A    between atoms: N_4  and  C_26
REMARK    3  A    between atoms: C2*_16  and  O2*_19
REMARK    4  A    between atoms: C3*_17  and  O3*_21
REMARK    5  A    between atoms: C4*_18  and  C5*_23
REMARK    6  A    between atoms: C5*_23  and  O5*_24
REMARK    7  A    between atoms: C_26  and  C_27
REMARK                            x       y       z     vdW  Elec       q    Type
REMARK                         _______ _______ _______ _____ _____    ______ ____
ROOT
ATOM      1  O   UNL     1     -38.246  24.485   3.478  0.00  0.00    -0.246 OA
ATOM      2  O   UNL     1     -39.887  26.846  -0.160  0.00  0.00    -0.267 OA
ATOM      3  N   UNL     1     -36.942  26.159   2.559  0.00  0.00    -0.240 N 
ATOM      4  N   UNL     1     -39.088  25.649   1.659  0.00  0.00    -0.244 N 
ATOM      5  N   UNL     1     -35.608  27.901   1.591  0.00  0.00    -0.226 NA
ATOM      6  C   UNL     1     -36.761  27.180   1.586  0.00  0.00    +0.153 A 
ATOM      7  C   UNL     1     -38.097  25.369   2.628  0.00  0.00    +0.337 A 
ATOM      8  C   UNL     1     -37.760  27.421   0.655  0.00  0.00    +0.087 A 
ATOM      9  C   UNL     1     -39.002  26.632   0.664  0.00  0.00    +0.267 A 
ATOM     10  C   UNL     1     -37.575  28.426  -0.299  0.00  0.00    -0.013 C 
ATOM     11  C   UNL     1     -36.402  29.166  -0.302  0.00  0.00    +0.017 C 
ATOM     12  C   UNL     1     -35.455  28.867   0.657  0.00  0.00    +0.100 C 
ATOM     13  C   UNL     1     -38.576  28.777  -1.354  0.00  0.00    +0.031 C 
ENDROOT
BRANCH   3  15
ATOM     14  O4* UNL     1     -35.044  24.880   3.030  0.00  0.00    -0.331 OA
ATOM     15  C1* UNL     1     -35.875  25.955   3.497  0.00  0.00    +0.239 C 
ATOM     16  C2* UNL     1     -36.379  25.548   4.871  0.00  0.00    +0.190 C 
ATOM     17  C3* UNL     1     -35.237  24.697   5.384  0.00  0.00    +0.171 C 
ATOM     18  C4* UNL     1     -34.787  23.971   4.124  0.00  0.00    +0.176 C 
BRANCH  16  19
ATOM     19  O2* UNL     1     -36.639  26.658   5.705  0.00  0.00    -0.378 OA
ATOM     20  H2* UNL     1     -37.429  27.122   5.389  0.00  0.00    +0.211 HD
ENDBRANCH  16  19
BRANCH  17  21
ATOM     21  O3* UNL     1     -34.160  25.525   5.822  0.00  0.00    -0.379 OA
ATOM     22  H3* UNL     1     -33.884  25.253   6.711  0.00  0.00    +0.211 HD
ENDBRANCH  17  21
BRANCH  18  23
ATOM     23  C5* UNL     1     -35.560  22.685   3.861  0.00  0.00    +0.169 C 
BRANCH  23  24
ATOM     24  O5* UNL     1     -36.378  22.410   4.986  0.00  0.00    -0.379 OA
ATOM     25  H5* UNL     1     -35.909  21.809   5.586  0.00  0.00    +0.211 HD
ENDBRANCH  23  24
ENDBRANCH  18  23
ENDBRANCH   3  15
BRANCH   4  26
ATOM     26  C   UNL     1     -40.298  24.834   1.720  0.00  0.00    +0.140 C 
BRANCH  26  27
ATOM     27  C   UNL     1     -41.470  25.606   2.256  0.00  0.00    +0.001 C 
ATOM     28  C   UNL     1     -42.691  25.547   1.593  0.00  0.00    -0.002 C 
ATOM     29  C   UNL     1     -41.322  26.369   3.407  0.00  0.00    -0.002 C 
ATOM     30  C   UNL     1     -43.779  26.264   2.090  0.00  0.00    -0.000 C 
ATOM     31  C   UNL     1     -42.410  27.087   3.904  0.00  0.00    -0.000 C 
ATOM     32  C   UNL     1     -43.640  27.034   3.245  0.00  0.00    -0.000 C 
ENDBRANCH  26  27
ENDBRANCH   4  26
TORSDOF 7
ENDMDL
MODEL 6
REMARK VINA RESULT:      -6.6      2.269      3.897
REMARK  Name = 196887
REMARK  7 active torsions:
REMARK  status: ('A' for Active; 'I' for Inactive)
REMARK    1  A    between atoms: N_3  and  C1*_15
REMARK    2  A    between atoms: N_4  and  C_26
REMARK    3  A    between atoms: C2*_16  and  O2*_19
REMARK    4  A    between atoms: C3*_17  and  O3*_21
REMARK    5  A    between atoms: C4*_18  and  C5*_23
REMARK    6  A    between atoms: C5*_23  and  O5*_24
REMARK    7  A    between atoms: C_26  and  C_27
REMARK                            x       y       z     vdW  Elec       q    Type
REMARK                         _______ _______ _______ _____ _____    ______ ____
ROOT
ATOM      1  O   UNL     1     -36.879  22.495   1.007  0.00  0.00    -0.246 OA
ATOM      2  O   UNL     1     -32.609  24.183   0.360  0.00  0.00    -0.267 OA
ATOM      3  N   UNL     1     -36.178  24.275   2.307  0.00  0.00    -0.240 N 
ATOM      4  N   UNL     1     -34.740  23.320   0.666  0.00  0.00    -0.244 N 
ATOM      5  N   UNL     1     -35.430  26.121   3.642  0.00  0.00    -0.226 NA
ATOM      6  C   UNL     1     -35.172  25.216   2.662  0.00  0.00    +0.153 A 
ATOM      7  C   UNL     1     -35.998  23.308   1.310  0.00  0.00    +0.337 A 
ATOM      8  C   UNL     1     -33.952  25.191   2.003  0.00  0.00    +0.087 A 
ATOM      9  C   UNL     1     -33.689  24.204   0.944  0.00  0.00    +0.267 A 
ATOM     10  C   UNL     1     -32.968  26.118   2.357  0.00  0.00    -0.013 C 
ATOM     11  C   UNL     1     -33.222  27.046   3.356  0.00  0.00    +0.017 C 
ATOM     12  C   UNL     1     -34.461  27.007   3.965  0.00  0.00    +0.100 C 
ATOM     13  C   UNL     1     -31.615  26.191   1.722  0.00  0.00    +0.031 C 
ENDROOT
BRANCH   3  15
ATOM     14  O4* UNL     1     -37.986  23.029   3.108  0.00  0.00    -0.331 OA
ATOM     15  C1* UNL     1     -37.420  24.348   3.022  0.00  0.00    +0.239 C 
ATOM     16  C2* UNL     1     -38.448  25.214   2.315  0.00  0.00    +0.190 C 
ATOM     17  C3* UNL     1     -39.749  24.568   2.740  0.00  0.00    +0.171 C 
ATOM     18  C4* UNL     1     -39.384  23.089   2.749  0.00  0.00    +0.176 C 
BRANCH  16  19
ATOM     19  O2* UNL     1     -38.372  26.571   2.700  0.00  0.00    -0.378 OA
ATOM     20  H2* UNL     1     -38.960  26.727   3.455  0.00  0.00    +0.211 HD
ENDBRANCH  16  19
BRANCH  17  21
ATOM     21  O3* UNL     1     -40.077  24.948   4.076  0.00  0.00    -0.379 OA
ATOM     22  H3* UNL     1     -39.808  24.244   4.688  0.00  0.00    +0.211 HD
ENDBRANCH  17  21
BRANCH  18  23
ATOM     23  C5* UNL     1     -39.553  22.419   1.392  0.00  0.00    +0.169 C 
BRANCH  23  24
ATOM     24  O5* UNL     1     -39.568  21.014   1.580  0.00  0.00    -0.379 OA
ATOM     25  H5* UNL     1     -40.434  20.744   1.922  0.00  0.00    +0.211 HD
ENDBRANCH  23  24
ENDBRANCH  18  23
ENDBRANCH   3  15
BRANCH   4  26
ATOM     26  C   UNL     1     -34.540  22.318  -0.377  0.00  0.00    +0.140 C 
BRANCH  26  27
ATOM     27  C   UNL     1     -33.766  21.132   0.124  0.00  0.00    +0.001 C 
ATOM     28  C   UNL     1     -34.365  20.246   1.013  0.00  0.00    -0.002 C 
ATOM     29  C   UNL     1     -32.460  20.932  -0.306  0.00  0.00    -0.002 C 
ATOM     30  C   UNL     1     -33.646  19.145   1.478  0.00  0.00    -0.000 C 
ATOM     31  C   UNL     1     -31.741  19.830   0.159  0.00  0.00    -0.000 C 
ATOM     32  C   UNL     1     -32.334  18.937   1.051  0.00  0.00    -0.000 C 
ENDBRANCH  26  27
ENDBRANCH   4  26
TORSDOF 7
ENDMDL
MODEL 7
REMARK VINA RESULT:      -6.6      2.096      6.219
REMARK  Name = 196887
REMARK  7 active torsions:
REMARK  status: ('A' for Active; 'I' for Inactive)
REMARK    1  A    between atoms: N_3  and  C1*_15
REMARK    2  A    between atoms: N_4  and  C_26
REMARK    3  A    between atoms: C2*_16  and  O2*_19
REMARK    4  A    between atoms: C3*_17  and  O3*_21
REMARK    5  A    between atoms: C4*_18  and  C5*_23
REMARK    6  A    between atoms: C5*_23  and  O5*_24
REMARK    7  A    between atoms: C_26  and  C_27
REMARK                            x       y       z     vdW  Elec       q    Type
REMARK                         _______ _______ _______ _____ _____    ______ ____
ROOT
ATOM      1  O   UNL     1     -36.602  22.680   0.015  0.00  0.00    -0.246 OA
ATOM      2  O   UNL     1     -35.456  25.767   3.280  0.00  0.00    -0.267 OA
ATOM      3  N   UNL     1     -36.083  21.916   2.135  0.00  0.00    -0.240 N 
ATOM      4  N   UNL     1     -36.030  24.243   1.629  0.00  0.00    -0.244 N 
ATOM      5  N   UNL     1     -35.542  21.146   4.342  0.00  0.00    -0.226 NA
ATOM      6  C   UNL     1     -35.694  22.184   3.477  0.00  0.00    +0.153 A 
ATOM      7  C   UNL     1     -36.262  22.923   1.179  0.00  0.00    +0.337 A 
ATOM      8  C   UNL     1     -35.478  23.495   3.875  0.00  0.00    +0.087 A 
ATOM      9  C   UNL     1     -35.646  24.606   2.927  0.00  0.00    +0.267 A 
ATOM     10  C   UNL     1     -35.095  23.751   5.195  0.00  0.00    -0.013 C 
ATOM     11  C   UNL     1     -34.939  22.699   6.085  0.00  0.00    +0.017 C 
ATOM     12  C   UNL     1     -35.172  21.423   5.612  0.00  0.00    +0.100 C 
ATOM     13  C   UNL     1     -34.832  25.119   5.742  0.00  0.00    +0.031 C 
ENDROOT
BRANCH   3  15
ATOM     14  O4* UNL     1     -35.048  19.981   1.328  0.00  0.00    -0.331 OA
ATOM     15  C1* UNL     1     -36.293  20.541   1.780  0.00  0.00    +0.239 C 
ATOM     16  C2* UNL     1     -37.279  20.380   0.636  0.00  0.00    +0.190 C 
ATOM     17  C3* UNL     1     -36.785  19.115  -0.029  0.00  0.00    +0.171 C 
ATOM     18  C4* UNL     1     -35.274  19.253   0.101  0.00  0.00    +0.176 C 
BRANCH  16  19
ATOM     19  O2* UNL     1     -38.615  20.265   1.084  0.00  0.00    -0.378 OA
ATOM     20  H2* UNL     1     -39.191  20.062   0.331  0.00  0.00    +0.211 HD
ENDBRANCH  16  19
BRANCH  17  21
ATOM     21  O3* UNL     1     -37.187  17.970   0.722  0.00  0.00    -0.379 OA
ATOM     22  H3* UNL     1     -37.268  18.210   1.659  0.00  0.00    +0.211 HD
ENDBRANCH  17  21
BRANCH  18  23
ATOM     23  C5* UNL     1     -34.641  20.040  -1.039  0.00  0.00    +0.169 C 
BRANCH  23  24
ATOM     24  O5* UNL     1     -33.887  21.107  -0.489  0.00  0.00    -0.379 OA
ATOM     25  H5* UNL     1     -33.715  21.769  -1.177  0.00  0.00    +0.211 HD
ENDBRANCH  23  24
ENDBRANCH  18  23
ENDBRANCH   3  15
BRANCH   4  26
ATOM     26  C   UNL     1     -36.215  25.302   0.642  0.00  0.00    +0.140 C 
BRANCH  26  27
ATOM     27  C   UNL     1     -37.665  25.640   0.444  0.00  0.00    +0.001 C 
ATOM     28  C   UNL     1     -38.466  25.906   1.550  0.00  0.00    -0.002 C 
ATOM     29  C   UNL     1     -38.192  25.684  -0.841  0.00  0.00    -0.002 C 
ATOM     30  C   UNL     1     -39.813  26.219   1.366  0.00  0.00    -0.000 C 
ATOM     31  C   UNL     1     -39.539  25.998  -1.025  0.00  0.00    -0.000 C 
ATOM     32  C   UNL     1     -40.349  26.266   0.079  0.00  0.00    -0.000 C 
ENDBRANCH  26  27
ENDBRANCH   4  26
TORSDOF 7
ENDMDL
MODEL 8
REMARK VINA RESULT:      -6.5      2.459      3.893
REMARK  Name = 196887
REMARK  7 active torsions:
REMARK  status: ('A' for Active; 'I' for Inactive)
REMARK    1  A    between atoms: N_3  and  C1*_15
REMARK    2  A    between atoms: N_4  and  C_26
REMARK    3  A    between atoms: C2*_16  and  O2*_19
REMARK    4  A    between atoms: C3*_17  and  O3*_21
REMARK    5  A    between atoms: C4*_18  and  C5*_23
REMARK    6  A    between atoms: C5*_23  and  O5*_24
REMARK    7  A    between atoms: C_26  and  C_27
REMARK                            x       y       z     vdW  Elec       q    Type
REMARK                         _______ _______ _______ _____ _____    ______ ____
ROOT
ATOM      1  O   UNL     1     -35.311  21.992   3.516  0.00  0.00    -0.246 OA
ATOM      2  O   UNL     1     -38.519  20.445   0.547  0.00  0.00    -0.267 OA
ATOM      3  N   UNL     1     -37.113  23.354   3.016  0.00  0.00    -0.240 N 
ATOM      4  N   UNL     1     -36.900  21.197   2.027  0.00  0.00    -0.244 N 
ATOM      5  N   UNL     1     -38.990  24.747   2.484  0.00  0.00    -0.226 NA
ATOM      6  C   UNL     1     -38.329  23.572   2.313  0.00  0.00    +0.153 A 
ATOM      7  C   UNL     1     -36.367  22.174   2.899  0.00  0.00    +0.337 A 
ATOM      8  C   UNL     1     -38.815  22.586   1.468  0.00  0.00    +0.087 A 
ATOM      9  C   UNL     1     -38.088  21.319   1.293  0.00  0.00    +0.267 A 
ATOM     10  C   UNL     1     -40.011  22.807   0.779  0.00  0.00    -0.013 C 
ATOM     11  C   UNL     1     -40.693  24.003   0.949  0.00  0.00    +0.017 C 
ATOM     12  C   UNL     1     -40.145  24.935   1.806  0.00  0.00    +0.100 C 
ATOM     13  C   UNL     1     -40.635  21.823  -0.159  0.00  0.00    +0.031 C 
ENDROOT
BRANCH   3  15
ATOM     14  O4* UNL     1     -36.127  25.473   3.067  0.00  0.00    -0.331 OA
ATOM     15  C1* UNL     1     -36.658  24.409   3.876  0.00  0.00    +0.239 C 
ATOM     16  C2* UNL     1     -35.535  23.966   4.798  0.00  0.00    +0.190 C 
ATOM     17  C3* UNL     1     -34.759  25.250   4.988  0.00  0.00    +0.171 C 
ATOM     18  C4* UNL     1     -34.854  25.889   3.609  0.00  0.00    +0.176 C 
BRANCH  16  19
ATOM     19  O2* UNL     1     -36.012  23.440   6.020  0.00  0.00    -0.378 OA
ATOM     20  H2* UNL     1     -36.197  24.167   6.634  0.00  0.00    +0.211 HD
ENDBRANCH  16  19
BRANCH  17  21
ATOM     21  O3* UNL     1     -35.431  26.103   5.914  0.00  0.00    -0.379 OA
ATOM     22  H3* UNL     1     -35.320  25.755   6.813  0.00  0.00    +0.211 HD
ENDBRANCH  17  21
BRANCH  18  23
ATOM     23  C5* UNL     1     -33.760  25.429   2.654  0.00  0.00    +0.169 C 
BRANCH  23  24
ATOM     24  O5* UNL     1     -32.502  25.786   3.202  0.00  0.00    -0.379 OA
ATOM     25  H5* UNL     1     -32.526  25.673   4.164  0.00  0.00    +0.211 HD
ENDBRANCH  23  24
ENDBRANCH  18  23
ENDBRANCH   3  15
BRANCH   4  26
ATOM     26  C   UNL     1     -36.133  19.962   1.897  0.00  0.00    +0.140 C 
BRANCH  26  27
ATOM     27  C   UNL     1     -34.850  20.173   1.145  0.00  0.00    +0.001 C 
ATOM     28  C   UNL     1     -34.787  21.147   0.155  0.00  0.00    -0.002 C 
ATOM     29  C   UNL     1     -33.741  19.393   1.446  0.00  0.00    -0.002 C 
ATOM     30  C   UNL     1     -33.595  21.343  -0.544  0.00  0.00    -0.000 C 
ATOM     31  C   UNL     1     -32.549  19.589   0.747  0.00  0.00    -0.000 C 
ATOM     32  C   UNL     1     -32.476  20.564  -0.248  0.00  0.00    -0.000 C 
ENDBRANCH  26  27
ENDBRANCH   4  26
TORSDOF 7
ENDMDL
MODEL 9
REMARK VINA RESULT:      -6.3      2.449      5.584
REMARK  Name = 196887
REMARK  7 active torsions:
REMARK  status: ('A' for Active; 'I' for Inactive)
REMARK    1  A    between atoms: N_3  and  C1*_15
REMARK    2  A    between atoms: N_4  and  C_26
REMARK    3  A    between atoms: C2*_16  and  O2*_19
REMARK    4  A    between atoms: C3*_17  and  O3*_21
REMARK    5  A    between atoms: C4*_18  and  C5*_23
REMARK    6  A    between atoms: C5*_23  and  O5*_24
REMARK    7  A    between atoms: C_26  and  C_27
REMARK                            x       y       z     vdW  Elec       q    Type
REMARK                         _______ _______ _______ _____ _____    ______ ____
ROOT
ATOM      1  O   UNL     1     -35.835  22.415  -0.151  0.00  0.00    -0.246 OA
ATOM      2  O   UNL     1     -34.845  25.575   3.095  0.00  0.00    -0.267 OA
ATOM      3  N   UNL     1     -35.703  21.738   2.056  0.00  0.00    -0.240 N 
ATOM      4  N   UNL     1     -35.337  24.013   1.453  0.00  0.00    -0.244 N 
ATOM      5  N   UNL     1     -35.563  21.059   4.352  0.00  0.00    -0.226 NA
ATOM      6  C   UNL     1     -35.482  22.050   3.426  0.00  0.00    +0.153 A 
ATOM      7  C   UNL     1     -35.639  22.696   1.037  0.00  0.00    +0.337 A 
ATOM      8  C   UNL     1     -35.188  23.356   3.789  0.00  0.00    +0.087 A 
ATOM      9  C   UNL     1     -35.104  24.418   2.774  0.00  0.00    +0.267 A 
ATOM     10  C   UNL     1     -34.971  23.657   5.137  0.00  0.00    -0.013 C 
ATOM     11  C   UNL     1     -35.052  22.651   6.089  0.00  0.00    +0.017 C 
ATOM     12  C   UNL     1     -35.349  21.377   5.648  0.00  0.00    +0.100 C 
ATOM     13  C   UNL     1     -34.646  25.023   5.651  0.00  0.00    +0.031 C 
ENDROOT
BRANCH   3  15
ATOM     14  O4* UNL     1     -34.796  19.714   1.319  0.00  0.00    -0.331 OA
ATOM     15  C1* UNL     1     -36.003  20.370   1.740  0.00  0.00    +0.239 C 
ATOM     16  C2* UNL     1     -36.988  20.242   0.591  0.00  0.00    +0.190 C 
ATOM     17  C3* UNL     1     -36.575  18.926  -0.031  0.00  0.00    +0.171 C 
ATOM     18  C4* UNL     1     -35.060  18.966   0.111  0.00  0.00    +0.176 C 
BRANCH  16  19
ATOM     19  O2* UNL     1     -38.332  20.232   1.027  0.00  0.00    -0.378 OA
ATOM     20  H2* UNL     1     -38.873  20.758   0.418  0.00  0.00    +0.211 HD
ENDBRANCH  16  19
BRANCH  17  21
ATOM     21  O3* UNL     1     -37.062  17.835   0.750  0.00  0.00    -0.379 OA
ATOM     22  H3* UNL     1     -36.810  16.998   0.329  0.00  0.00    +0.211 HD
ENDBRANCH  17  21
BRANCH  18  23
ATOM     23  C5* UNL     1     -34.365  19.672  -1.045  0.00  0.00    +0.169 C 
BRANCH  23  24
ATOM     24  O5* UNL     1     -32.963  19.539  -0.880  0.00  0.00    -0.379 OA
ATOM     25  H5* UNL     1     -32.510  20.202  -1.422  0.00  0.00    +0.211 HD
ENDBRANCH  23  24
ENDBRANCH  18  23
ENDBRANCH   3  15
BRANCH   4  26
ATOM     26  C   UNL     1     -35.269  25.022   0.400  0.00  0.00    +0.140 C 
BRANCH  26  27
ATOM     27  C   UNL     1     -33.853  25.411   0.084  0.00  0.00    +0.001 C 
ATOM     28  C   UNL     1     -33.480  26.749   0.143  0.00  0.00    -0.002 C 
ATOM     29  C   UNL     1     -32.932  24.431  -0.262  0.00  0.00    -0.002 C 
ATOM     30  C   UNL     1     -32.164  27.111  -0.150  0.00  0.00    -0.000 C 
ATOM     31  C   UNL     1     -31.617  24.792  -0.556  0.00  0.00    -0.000 C 
ATOM     32  C   UNL     1     -31.233  26.133  -0.499  0.00  0.00    -0.000 C 
ENDBRANCH  26  27
ENDBRANCH   4  26
TORSDOF 7
ENDMDL
