MODEL 1
REMARK VINA RESULT:      -5.3      0.000      0.000
REMARK  Name = 5487773
REMARK  7 active torsions:
REMARK  status: ('A' for Active; 'I' for Inactive)
REMARK    1  A    between atoms: C_1  and  C_6
REMARK    2  A    between atoms: C_1  and  C_13
REMARK    3  A    between atoms: C_1  and  O_14
REMARK    4  A    between atoms: O_14  and  C_15
REMARK    5  A    between atoms: C_15  and  C_17
REMARK    6  A    between atoms: C_15  and  C_18
REMARK    7  A    between atoms: C_18  and  O_19
REMARK                            x       y       z     vdW  Elec       q    Type
REMARK                         _______ _______ _______ _____ _____    ______ ____
ROOT
ATOM      1  C   UNL     1     -36.616  24.241   3.488  0.00  0.00    +0.208 C 
ENDROOT
BRANCH   1   6
ATOM      2  O   UNL     1     -34.310  25.192   2.109  0.00  0.00    -0.270 OA
ATOM      3  O   UNL     1     -32.672  27.451   5.783  0.00  0.00    -0.252 OA
ATOM      4  N   UNL     1     -33.482  26.327   3.938  0.00  0.00    -0.236 N 
ATOM      5  N   UNL     1     -34.651  26.291   5.961  0.00  0.00    -0.267 N 
ATOM      6  C   UNL     1     -35.572  25.100   4.121  0.00  0.00    +0.081 C 
ATOM      7  C   UNL     1     -34.413  25.531   3.286  0.00  0.00    +0.253 C 
ATOM      8  C   UNL     1     -35.617  25.504   5.397  0.00  0.00    +0.068 C 
ATOM      9  C   UNL     1     -33.539  26.743   5.270  0.00  0.00    +0.310 C 
ATOM     10  H   UNL     1     -32.706  26.628   3.411  0.00  0.00    +0.159 HD
ATOM     11  H   UNL     1     -34.752  26.550   6.906  0.00  0.00    +0.156 HD
ENDBRANCH   1   6
BRANCH   1  13
ATOM     12  O   UNL     1     -39.017  24.458   3.714  0.00  0.00    -0.285 OA
ATOM     13  C   UNL     1     -37.925  24.991   3.545  0.00  0.00    +0.241 C 
ENDBRANCH   1  13
BRANCH   1  14
ATOM     14  O   UNL     1     -36.717  23.033   4.210  0.00  0.00    -0.336 OA
BRANCH  14  15
ATOM     15  C   UNL     1     -35.548  22.231   4.072  0.00  0.00    +0.209 C 
BRANCH  15  17
ATOM     16  O   UNL     1     -35.118  20.186   2.839  0.00  0.00    -0.286 OA
ATOM     17  C   UNL     1     -35.769  21.218   2.969  0.00  0.00    +0.239 C 
ENDBRANCH  15  17
BRANCH  15  18
ATOM     18  C   UNL     1     -35.278  21.524   5.392  0.00  0.00    +0.175 C 
BRANCH  18  19
ATOM     19  O   UNL     1     -36.138  22.039   6.397  0.00  0.00    -0.379 OA
ATOM     20  H   UNL     1     -37.042  22.099   6.050  0.00  0.00    +0.211 HD
ENDBRANCH  18  19
ENDBRANCH  15  18
ENDBRANCH  14  15
ENDBRANCH   1  14
TORSDOF 7
ENDMDL
MODEL 2
REMARK VINA RESULT:      -5.3      1.640      3.025
REMARK  Name = 5487773
REMARK  7 active torsions:
REMARK  status: ('A' for Active; 'I' for Inactive)
REMARK    1  A    between atoms: C_1  and  C_6
REMARK    2  A    between atoms: C_1  and  C_13
REMARK    3  A    between atoms: C_1  and  O_14
REMARK    4  A    between atoms: O_14  and  C_15
REMARK    5  A    between atoms: C_15  and  C_17
REMARK    6  A    between atoms: C_15  and  C_18
REMARK    7  A    between atoms: C_18  and  O_19
REMARK                            x       y       z     vdW  Elec       q    Type
REMARK                         _______ _______ _______ _____ _____    ______ ____
ROOT
ATOM      1  C   UNL     1     -35.893  22.852   4.058  0.00  0.00    +0.208 C 
ENDROOT
BRANCH   1   6
ATOM      2  O   UNL     1     -37.543  25.122   4.560  0.00  0.00    -0.270 OA
ATOM      3  O   UNL     1     -34.064  28.123   4.136  0.00  0.00    -0.252 OA
ATOM      4  N   UNL     1     -35.812  26.632   4.352  0.00  0.00    -0.236 N 
ATOM      5  N   UNL     1     -33.653  25.874   3.873  0.00  0.00    -0.267 N 
ATOM      6  C   UNL     1     -35.384  24.256   4.075  0.00  0.00    +0.081 C 
ATOM      7  C   UNL     1     -36.354  25.354   4.352  0.00  0.00    +0.253 C 
ATOM      8  C   UNL     1     -34.104  24.583   3.854  0.00  0.00    +0.068 C 
ATOM      9  C   UNL     1     -34.475  26.962   4.121  0.00  0.00    +0.310 C 
ATOM     10  H   UNL     1     -36.430  27.378   4.534  0.00  0.00    +0.159 HD
ATOM     11  H   UNL     1     -32.698  26.039   3.702  0.00  0.00    +0.156 HD
ENDBRANCH   1   6
BRANCH   1  13
ATOM     12  O   UNL     1     -36.014  22.228   6.394  0.00  0.00    -0.285 OA
ATOM     13  C   UNL     1     -35.420  22.176   5.322  0.00  0.00    +0.241 C 
ENDBRANCH   1  13
BRANCH   1  14
ATOM     14  O   UNL     1     -35.372  22.188   2.928  0.00  0.00    -0.336 OA
BRANCH  14  15
ATOM     15  C   UNL     1     -36.374  21.940   1.946  0.00  0.00    +0.209 C 
BRANCH  15  17
ATOM     16  O   UNL     1     -38.780  21.745   2.199  0.00  0.00    -0.286 OA
ATOM     17  C   UNL     1     -37.729  22.293   2.521  0.00  0.00    +0.239 C 
ENDBRANCH  15  17
BRANCH  15  18
ATOM     18  C   UNL     1     -36.330  20.470   1.561  0.00  0.00    +0.175 C 
BRANCH  18  19
ATOM     19  O   UNL     1     -36.804  19.676   2.638  0.00  0.00    -0.379 OA
ATOM     20  H   UNL     1     -37.212  18.868   2.290  0.00  0.00    +0.211 HD
ENDBRANCH  18  19
ENDBRANCH  15  18
ENDBRANCH  14  15
ENDBRANCH   1  14
TORSDOF 7
ENDMDL
MODEL 3
REMARK VINA RESULT:      -5.3      2.282      5.322
REMARK  Name = 5487773
REMARK  7 active torsions:
REMARK  status: ('A' for Active; 'I' for Inactive)
REMARK    1  A    between atoms: C_1  and  C_6
REMARK    2  A    between atoms: C_1  and  C_13
REMARK    3  A    between atoms: C_1  and  O_14
REMARK    4  A    between atoms: O_14  and  C_15
REMARK    5  A    between atoms: C_15  and  C_17
REMARK    6  A    between atoms: C_15  and  C_18
REMARK    7  A    between atoms: C_18  and  O_19
REMARK                            x       y       z     vdW  Elec       q    Type
REMARK                         _______ _______ _______ _____ _____    ______ ____
ROOT
ATOM      1  C   UNL     1     -34.855  24.881   5.441  0.00  0.00    +0.208 C 
ENDROOT
BRANCH   1   6
ATOM      2  O   UNL     1     -35.823  22.378   6.401  0.00  0.00    -0.270 OA
ATOM      3  O   UNL     1     -35.762  20.409   2.229  0.00  0.00    -0.252 OA
ATOM      4  N   UNL     1     -35.799  21.383   4.320  0.00  0.00    -0.236 N 
ATOM      5  N   UNL     1     -35.092  22.599   2.454  0.00  0.00    -0.267 N 
ATOM      6  C   UNL     1     -35.091  23.696   4.564  0.00  0.00    +0.081 C 
ATOM      7  C   UNL     1     -35.602  22.444   5.194  0.00  0.00    +0.253 C 
ATOM      8  C   UNL     1     -34.870  23.694   3.243  0.00  0.00    +0.068 C 
ATOM      9  C   UNL     1     -35.565  21.392   2.944  0.00  0.00    +0.310 C 
ATOM     10  H   UNL     1     -36.137  20.543   4.709  0.00  0.00    +0.159 HD
ATOM     11  H   UNL     1     -34.906  22.672   1.490  0.00  0.00    +0.156 HD
ENDBRANCH   1   6
BRANCH   1  13
ATOM     12  O   UNL     1     -37.060  25.567   4.712  0.00  0.00    -0.285 OA
ATOM     13  C   UNL     1     -35.971  25.867   5.191  0.00  0.00    +0.241 C 
ENDBRANCH   1  13
BRANCH   1  14
ATOM     14  O   UNL     1     -33.612  25.458   5.106  0.00  0.00    -0.336 OA
BRANCH  14  15
ATOM     15  C   UNL     1     -33.545  26.832   5.477  0.00  0.00    +0.209 C 
BRANCH  15  17
ATOM     16  O   UNL     1     -31.879  27.085   3.731  0.00  0.00    -0.286 OA
ATOM     17  C   UNL     1     -32.749  27.588   4.435  0.00  0.00    +0.239 C 
ENDBRANCH  15  17
BRANCH  15  18
ATOM     18  C   UNL     1     -32.873  26.942   6.836  0.00  0.00    +0.175 C 
BRANCH  18  19
ATOM     19  O   UNL     1     -31.511  27.305   6.671  0.00  0.00    -0.379 OA
ATOM     20  H   UNL     1     -30.998  26.994   7.434  0.00  0.00    +0.211 HD
ENDBRANCH  18  19
ENDBRANCH  15  18
ENDBRANCH  14  15
ENDBRANCH   1  14
TORSDOF 7
ENDMDL
MODEL 4
REMARK VINA RESULT:      -5.2      1.428      2.013
REMARK  Name = 5487773
REMARK  7 active torsions:
REMARK  status: ('A' for Active; 'I' for Inactive)
REMARK    1  A    between atoms: C_1  and  C_6
REMARK    2  A    between atoms: C_1  and  C_13
REMARK    3  A    between atoms: C_1  and  O_14
REMARK    4  A    between atoms: O_14  and  C_15
REMARK    5  A    between atoms: C_15  and  C_17
REMARK    6  A    between atoms: C_15  and  C_18
REMARK    7  A    between atoms: C_18  and  O_19
REMARK                            x       y       z     vdW  Elec       q    Type
REMARK                         _______ _______ _______ _____ _____    ______ ____
ROOT
ATOM      1  C   UNL     1     -37.175  24.334   2.998  0.00  0.00    +0.208 C 
ENDROOT
BRANCH   1   6
ATOM      2  O   UNL     1     -34.418  24.331   2.275  0.00  0.00    -0.270 OA
ATOM      3  O   UNL     1     -33.108  26.605   6.070  0.00  0.00    -0.252 OA
ATOM      4  N   UNL     1     -33.751  25.469   4.168  0.00  0.00    -0.236 N 
ATOM      5  N   UNL     1     -35.335  26.115   5.760  0.00  0.00    -0.267 N 
ATOM      6  C   UNL     1     -36.102  24.948   3.835  0.00  0.00    +0.081 C 
ATOM      7  C   UNL     1     -34.696  24.878   3.340  0.00  0.00    +0.253 C 
ATOM      8  C   UNL     1     -36.331  25.557   5.006  0.00  0.00    +0.068 C 
ATOM      9  C   UNL     1     -34.001  26.102   5.387  0.00  0.00    +0.310 C 
ATOM     10  H   UNL     1     -32.814  25.439   3.865  0.00  0.00    +0.159 HD
ATOM     11  H   UNL     1     -35.579  26.546   6.611  0.00  0.00    +0.156 HD
ENDBRANCH   1   6
BRANCH   1  13
ATOM     12  O   UNL     1     -39.509  24.480   3.628  0.00  0.00    -0.285 OA
ATOM     13  C   UNL     1     -38.468  25.048   3.312  0.00  0.00    +0.241 C 
ENDBRANCH   1  13
BRANCH   1  14
ATOM     14  O   UNL     1     -37.285  22.965   3.324  0.00  0.00    -0.336 OA
BRANCH  14  15
ATOM     15  C   UNL     1     -36.981  22.127   2.213  0.00  0.00    +0.209 C 
BRANCH  15  17
ATOM     16  O   UNL     1     -39.312  21.453   2.271  0.00  0.00    -0.286 OA
ATOM     17  C   UNL     1     -38.271  21.585   1.634  0.00  0.00    +0.239 C 
ENDBRANCH  15  17
BRANCH  15  18
ATOM     18  C   UNL     1     -36.095  20.985   2.687  0.00  0.00    +0.175 C 
BRANCH  18  19
ATOM     19  O   UNL     1     -36.820  19.765   2.644  0.00  0.00    -0.379 OA
ATOM     20  H   UNL     1     -36.857  19.444   1.729  0.00  0.00    +0.211 HD
ENDBRANCH  18  19
ENDBRANCH  15  18
ENDBRANCH  14  15
ENDBRANCH   1  14
TORSDOF 7
ENDMDL
MODEL 5
REMARK VINA RESULT:      -5.2      3.046      5.047
REMARK  Name = 5487773
REMARK  7 active torsions:
REMARK  status: ('A' for Active; 'I' for Inactive)
REMARK    1  A    between atoms: C_1  and  C_6
REMARK    2  A    between atoms: C_1  and  C_13
REMARK    3  A    between atoms: C_1  and  O_14
REMARK    4  A    between atoms: O_14  and  C_15
REMARK    5  A    between atoms: C_15  and  C_17
REMARK    6  A    between atoms: C_15  and  C_18
REMARK    7  A    between atoms: C_18  and  O_19
REMARK                            x       y       z     vdW  Elec       q    Type
REMARK                         _______ _______ _______ _____ _____    ______ ____
ROOT
ATOM      1  C   UNL     1     -36.507  22.838   3.269  0.00  0.00    +0.208 C 
ENDROOT
BRANCH   1   6
ATOM      2  O   UNL     1     -37.546  25.493   3.285  0.00  0.00    -0.270 OA
ATOM      3  O   UNL     1     -41.539  24.265   1.326  0.00  0.00    -0.252 OA
ATOM      4  N   UNL     1     -39.546  24.892   2.304  0.00  0.00    -0.236 N 
ATOM      5  N   UNL     1     -39.944  22.659   1.739  0.00  0.00    -0.267 N 
ATOM      6  C   UNL     1     -37.857  23.200   2.744  0.00  0.00    +0.081 C 
ATOM      7  C   UNL     1     -38.280  24.629   2.811  0.00  0.00    +0.253 C 
ATOM      8  C   UNL     1     -38.710  22.311   2.216  0.00  0.00    +0.068 C 
ATOM      9  C   UNL     1     -40.427  23.958   1.756  0.00  0.00    +0.310 C 
ATOM     10  H   UNL     1     -39.851  25.828   2.334  0.00  0.00    +0.159 HD
ATOM     11  H   UNL     1     -40.517  21.952   1.365  0.00  0.00    +0.156 HD
ENDBRANCH   1   6
BRANCH   1  13
ATOM     12  O   UNL     1     -35.615  20.596   3.074  0.00  0.00    -0.285 OA
ATOM     13  C   UNL     1     -36.039  21.610   2.528  0.00  0.00    +0.241 C 
ENDBRANCH   1  13
BRANCH   1  14
ATOM     14  O   UNL     1     -36.611  22.563   4.649  0.00  0.00    -0.336 OA
BRANCH  14  15
ATOM     15  C   UNL     1     -35.586  23.208   5.400  0.00  0.00    +0.209 C 
BRANCH  15  17
ATOM     16  O   UNL     1     -33.734  24.651   4.784  0.00  0.00    -0.286 OA
ATOM     17  C   UNL     1     -34.606  23.856   4.445  0.00  0.00    +0.239 C 
ENDBRANCH  15  17
BRANCH  15  18
ATOM     18  C   UNL     1     -34.879  22.172   6.258  0.00  0.00    +0.175 C 
BRANCH  18  19
ATOM     19  O   UNL     1     -35.351  20.873   5.930  0.00  0.00    -0.379 OA
ATOM     20  H   UNL     1     -35.703  20.876   5.026  0.00  0.00    +0.211 HD
ENDBRANCH  18  19
ENDBRANCH  15  18
ENDBRANCH  14  15
ENDBRANCH   1  14
TORSDOF 7
ENDMDL
MODEL 6
REMARK VINA RESULT:      -5.2      2.900      5.648
REMARK  Name = 5487773
REMARK  7 active torsions:
REMARK  status: ('A' for Active; 'I' for Inactive)
REMARK    1  A    between atoms: C_1  and  C_6
REMARK    2  A    between atoms: C_1  and  C_13
REMARK    3  A    between atoms: C_1  and  O_14
REMARK    4  A    between atoms: O_14  and  C_15
REMARK    5  A    between atoms: C_15  and  C_17
REMARK    6  A    between atoms: C_15  and  C_18
REMARK    7  A    between atoms: C_18  and  O_19
REMARK                            x       y       z     vdW  Elec       q    Type
REMARK                         _______ _______ _______ _____ _____    ______ ____
ROOT
ATOM      1  C   UNL     1     -35.304  23.026   4.258  0.00  0.00    +0.208 C 
ENDROOT
BRANCH   1   6
ATOM      2  O   UNL     1     -35.222  20.441   3.057  0.00  0.00    -0.270 OA
ATOM      3  O   UNL     1     -39.364  20.896   1.076  0.00  0.00    -0.252 OA
ATOM      4  N   UNL     1     -37.292  20.656   2.063  0.00  0.00    -0.236 N 
ATOM      5  N   UNL     1     -38.526  22.620   2.350  0.00  0.00    -0.267 N 
ATOM      6  C   UNL     1     -36.402  22.474   3.409  0.00  0.00    +0.081 C 
ATOM      7  C   UNL     1     -36.233  21.105   2.841  0.00  0.00    +0.253 C 
ATOM      8  C   UNL     1     -37.530  23.140   3.129  0.00  0.00    +0.068 C 
ATOM      9  C   UNL     1     -38.464  21.360   1.777  0.00  0.00    +0.310 C 
ATOM     10  H   UNL     1     -37.209  19.754   1.675  0.00  0.00    +0.159 HD
ATOM     11  H   UNL     1     -39.327  23.169   2.187  0.00  0.00    +0.156 HD
ENDBRANCH   1   6
BRANCH   1  13
ATOM     12  O   UNL     1     -36.046  22.224   6.418  0.00  0.00    -0.285 OA
ATOM     13  C   UNL     1     -35.224  22.184   5.508  0.00  0.00    +0.241 C 
ENDBRANCH   1  13
BRANCH   1  14
ATOM     14  O   UNL     1     -35.609  24.362   4.589  0.00  0.00    -0.336 OA
BRANCH  14  15
ATOM     15  C   UNL     1     -34.490  25.225   4.411  0.00  0.00    +0.209 C 
BRANCH  15  17
ATOM     16  O   UNL     1     -33.161  26.586   5.919  0.00  0.00    -0.286 OA
ATOM     17  C   UNL     1     -34.118  25.837   5.745  0.00  0.00    +0.239 C 
ENDBRANCH  15  17
BRANCH  15  18
ATOM     18  C   UNL     1     -34.861  26.313   3.416  0.00  0.00    +0.175 C 
BRANCH  18  19
ATOM     19  O   UNL     1     -35.392  27.434   4.107  0.00  0.00    -0.379 OA
ATOM     20  H   UNL     1     -35.415  27.247   5.058  0.00  0.00    +0.211 HD
ENDBRANCH  18  19
ENDBRANCH  15  18
ENDBRANCH  14  15
ENDBRANCH   1  14
TORSDOF 7
ENDMDL
MODEL 7
REMARK VINA RESULT:      -5.2      3.305      5.375
REMARK  Name = 5487773
REMARK  7 active torsions:
REMARK  status: ('A' for Active; 'I' for Inactive)
REMARK    1  A    between atoms: C_1  and  C_6
REMARK    2  A    between atoms: C_1  and  C_13
REMARK    3  A    between atoms: C_1  and  O_14
REMARK    4  A    between atoms: O_14  and  C_15
REMARK    5  A    between atoms: C_15  and  C_17
REMARK    6  A    between atoms: C_15  and  C_18
REMARK    7  A    between atoms: C_18  and  O_19
REMARK                            x       y       z     vdW  Elec       q    Type
REMARK                         _______ _______ _______ _____ _____    ______ ____
ROOT
ATOM      1  C   UNL     1     -35.866  23.457   2.995  0.00  0.00    +0.208 C 
ENDROOT
BRANCH   1   6
ATOM      2  O   UNL     1     -38.398  24.763   2.892  0.00  0.00    -0.270 OA
ATOM      3  O   UNL     1     -40.635  20.975   1.500  0.00  0.00    -0.252 OA
ATOM      4  N   UNL     1     -39.527  22.876   2.194  0.00  0.00    -0.236 N 
ATOM      5  N   UNL     1     -38.366  20.873   1.874  0.00  0.00    -0.267 N 
ATOM      6  C   UNL     1     -37.132  22.774   2.592  0.00  0.00    +0.081 C 
ATOM      7  C   UNL     1     -38.391  23.574   2.579  0.00  0.00    +0.253 C 
ATOM      8  C   UNL     1     -37.199  21.483   2.241  0.00  0.00    +0.068 C 
ATOM      9  C   UNL     1     -39.586  21.529   1.831  0.00  0.00    +0.310 C 
ATOM     10  H   UNL     1     -40.374  23.380   2.175  0.00  0.00    +0.159 HD
ATOM     11  H   UNL     1     -38.339  19.920   1.629  0.00  0.00    +0.156 HD
ENDBRANCH   1   6
BRANCH   1  13
ATOM     12  O   UNL     1     -35.231  24.042   0.733  0.00  0.00    -0.285 OA
ATOM     13  C   UNL     1     -34.956  23.485   1.792  0.00  0.00    +0.241 C 
ENDBRANCH   1  13
BRANCH   1  14
ATOM     14  O   UNL     1     -35.265  22.727   4.042  0.00  0.00    -0.336 OA
BRANCH  14  15
ATOM     15  C   UNL     1     -35.649  23.219   5.323  0.00  0.00    +0.209 C 
BRANCH  15  17
ATOM     16  O   UNL     1     -35.443  25.586   5.814  0.00  0.00    -0.286 OA
ATOM     17  C   UNL     1     -34.902  24.505   5.605  0.00  0.00    +0.239 C 
ENDBRANCH  15  17
BRANCH  15  18
ATOM     18  C   UNL     1     -35.311  22.171   6.372  0.00  0.00    +0.175 C 
BRANCH  18  19
ATOM     19  O   UNL     1     -35.345  20.878   5.789  0.00  0.00    -0.379 OA
ATOM     20  H   UNL     1     -34.452  20.628   5.504  0.00  0.00    +0.211 HD
ENDBRANCH  18  19
ENDBRANCH  15  18
ENDBRANCH  14  15
ENDBRANCH   1  14
TORSDOF 7
ENDMDL
MODEL 8
REMARK VINA RESULT:      -5.1      1.936      3.664
REMARK  Name = 5487773
REMARK  7 active torsions:
REMARK  status: ('A' for Active; 'I' for Inactive)
REMARK    1  A    between atoms: C_1  and  C_6
REMARK    2  A    between atoms: C_1  and  C_13
REMARK    3  A    between atoms: C_1  and  O_14
REMARK    4  A    between atoms: O_14  and  C_15
REMARK    5  A    between atoms: C_15  and  C_17
REMARK    6  A    between atoms: C_15  and  C_18
REMARK    7  A    between atoms: C_18  and  O_19
REMARK                            x       y       z     vdW  Elec       q    Type
REMARK                         _______ _______ _______ _____ _____    ______ ____
ROOT
ATOM      1  C   UNL     1     -36.569  22.514   3.270  0.00  0.00    +0.208 C 
ENDROOT
BRANCH   1   6
ATOM      2  O   UNL     1     -35.932  22.777   6.036  0.00  0.00    -0.270 OA
ATOM      3  O   UNL     1     -33.860  26.863   5.482  0.00  0.00    -0.252 OA
ATOM      4  N   UNL     1     -34.892  24.819   5.772  0.00  0.00    -0.236 N 
ATOM      5  N   UNL     1     -34.757  25.795   3.652  0.00  0.00    -0.267 N 
ATOM      6  C   UNL     1     -35.842  23.687   3.842  0.00  0.00    +0.081 C 
ATOM      7  C   UNL     1     -35.571  23.700   5.309  0.00  0.00    +0.253 C 
ATOM      8  C   UNL     1     -35.422  24.728   3.112  0.00  0.00    +0.068 C 
ATOM      9  C   UNL     1     -34.458  25.899   5.001  0.00  0.00    +0.310 C 
ATOM     10  H   UNL     1     -34.698  24.855   6.737  0.00  0.00    +0.159 HD
ATOM     11  H   UNL     1     -34.479  26.524   3.053  0.00  0.00    +0.156 HD
ENDBRANCH   1   6
BRANCH   1  13
ATOM     12  O   UNL     1     -35.280  20.466   3.199  0.00  0.00    -0.285 OA
ATOM     13  C   UNL     1     -35.538  21.563   2.713  0.00  0.00    +0.241 C 
ENDBRANCH   1  13
BRANCH   1  14
ATOM     14  O   UNL     1     -37.423  22.963   2.240  0.00  0.00    -0.336 OA
BRANCH  14  15
ATOM     15  C   UNL     1     -38.797  22.794   2.576  0.00  0.00    +0.209 C 
BRANCH  15  17
ATOM     16  O   UNL     1     -40.389  21.141   1.787  0.00  0.00    -0.286 OA
ATOM     17  C   UNL     1     -39.452  21.897   1.547  0.00  0.00    +0.239 C 
ENDBRANCH  15  17
BRANCH  15  18
ATOM     18  C   UNL     1     -39.470  24.157   2.593  0.00  0.00    +0.175 C 
BRANCH  18  19
ATOM     19  O   UNL     1     -39.273  24.775   3.855  0.00  0.00    -0.379 OA
ATOM     20  H   UNL     1     -39.303  25.740   3.752  0.00  0.00    +0.211 HD
ENDBRANCH  18  19
ENDBRANCH  15  18
ENDBRANCH  14  15
ENDBRANCH   1  14
TORSDOF 7
ENDMDL
MODEL 9
REMARK VINA RESULT:      -5.0      2.539      4.938
REMARK  Name = 5487773
REMARK  7 active torsions:
REMARK  status: ('A' for Active; 'I' for Inactive)
REMARK    1  A    between atoms: C_1  and  C_6
REMARK    2  A    between atoms: C_1  and  C_13
REMARK    3  A    between atoms: C_1  and  O_14
REMARK    4  A    between atoms: O_14  and  C_15
REMARK    5  A    between atoms: C_15  and  C_17
REMARK    6  A    between atoms: C_15  and  C_18
REMARK    7  A    between atoms: C_18  and  O_19
REMARK                            x       y       z     vdW  Elec       q    Type
REMARK                         _______ _______ _______ _____ _____    ______ ____
ROOT
ATOM      1  C   UNL     1     -37.061  25.855   3.546  0.00  0.00    +0.208 C 
ENDROOT
BRANCH   1   6
ATOM      2  O   UNL     1     -35.369  25.668   5.832  0.00  0.00    -0.270 OA
ATOM      3  O   UNL     1     -35.144  21.062   5.666  0.00  0.00    -0.252 OA
ATOM      4  N   UNL     1     -35.250  23.365   5.761  0.00  0.00    -0.236 N 
ATOM      5  N   UNL     1     -36.385  22.189   4.089  0.00  0.00    -0.267 N 
ATOM      6  C   UNL     1     -36.559  24.561   4.098  0.00  0.00    +0.081 C 
ATOM      7  C   UNL     1     -35.680  24.603   5.302  0.00  0.00    +0.253 C 
ATOM      8  C   UNL     1     -36.854  23.365   3.571  0.00  0.00    +0.068 C 
ATOM      9  C   UNL     1     -35.564  22.124   5.204  0.00  0.00    +0.310 C 
ATOM     10  H   UNL     1     -34.669  23.362   6.557  0.00  0.00    +0.159 HD
ATOM     11  H   UNL     1     -36.643  21.348   3.649  0.00  0.00    +0.156 HD
ENDBRANCH   1   6
BRANCH   1  13
ATOM     12  O   UNL     1     -39.190  26.503   2.592  0.00  0.00    -0.285 OA
ATOM     13  C   UNL     1     -38.452  25.616   3.011  0.00  0.00    +0.241 C 
ENDBRANCH   1  13
BRANCH   1  14
ATOM     14  O   UNL     1     -36.205  26.272   2.505  0.00  0.00    -0.336 OA
BRANCH  14  15
ATOM     15  C   UNL     1     -35.675  27.573   2.740  0.00  0.00    +0.209 C 
BRANCH  15  17
ATOM     16  O   UNL     1     -37.101  28.761   1.176  0.00  0.00    -0.286 OA
ATOM     17  C   UNL     1     -35.972  28.453   1.544  0.00  0.00    +0.239 C 
ENDBRANCH  15  17
BRANCH  15  18
ATOM     18  C   UNL     1     -34.174  27.462   2.954  0.00  0.00    +0.175 C 
BRANCH  18  19
ATOM     19  O   UNL     1     -33.870  27.641   4.329  0.00  0.00    -0.379 OA
ATOM     20  H   UNL     1     -33.652  26.783   4.726  0.00  0.00    +0.211 HD
ENDBRANCH  18  19
ENDBRANCH  15  18
ENDBRANCH  14  15
ENDBRANCH   1  14
TORSDOF 7
ENDMDL
