MODEL 1
REMARK VINA RESULT:      -7.1      0.000      0.000
REMARK  Name = 192081
REMARK  6 active torsions:
REMARK  status: ('A' for Active; 'I' for Inactive)
REMARK    1  A    between atoms: N_1  and  S_11
REMARK    2  A    between atoms: C_4  and  C_23
REMARK    3  A    between atoms: S_11  and  C_14
REMARK    4  A    between atoms: C_19  and  N_20
REMARK    5  A    between atoms: C_23  and  C_24
REMARK    6  A    between atoms: C_24  and  S_25
REMARK                            x       y       z     vdW  Elec       q    Type
REMARK                         _______ _______ _______ _____ _____    ______ ____
ROOT
ATOM      1  N   UNL     1     -35.715  21.184   1.435  0.00  0.00    -0.139 N 
ATOM      2  N   UNL     1     -36.382  23.362   2.053  0.00  0.00    -0.336 NA
ATOM      3  N   UNL     1     -35.430  21.858   3.678  0.00  0.00    -0.336 NA
ATOM      4  C   UNL     1     -36.100  24.075   4.334  0.00  0.00    +0.100 C 
ATOM      5  C   UNL     1     -36.493  24.286   3.028  0.00  0.00    +0.107 C 
ATOM      6  C   UNL     1     -35.571  22.830   4.604  0.00  0.00    +0.107 C 
ATOM      7  C   UNL     1     -35.850  22.195   2.449  0.00  0.00    +0.218 C 
ATOM      8  C   UNL     1     -37.082  25.596   2.616  0.00  0.00    +0.063 C 
ATOM      9  C   UNL     1     -35.110  22.487   5.982  0.00  0.00    +0.063 C 
ATOM     10  H   UNL     1     -36.252  20.360   1.467  0.00  0.00    +0.188 HD
ENDROOT
BRANCH   1  11
ATOM     11  S   UNL     1     -34.585  21.457   0.164  0.00  0.00    +0.083 S 
ATOM     12  O   UNL     1     -35.238  21.134  -1.100  0.00  0.00    -0.149 OA
ATOM     13  O   UNL     1     -33.979  22.773   0.324  0.00  0.00    -0.149 OA
BRANCH  11  14
ATOM     14  C   UNL     1     -33.368  20.240   0.459  0.00  0.00    +0.126 C 
ATOM     15  C   UNL     1     -33.656  19.149   1.278  0.00  0.00    +0.021 C 
ATOM     16  C   UNL     1     -32.106  20.360  -0.124  0.00  0.00    +0.021 C 
ATOM     17  C   UNL     1     -32.684  18.178   1.513  0.00  0.00    +0.015 C 
ATOM     18  C   UNL     1     -31.134  19.389   0.112  0.00  0.00    +0.015 C 
ATOM     19  C   UNL     1     -31.423  18.298   0.931  0.00  0.00    +0.042 C 
BRANCH  19  20
ATOM     20  N   UNL     1     -30.440  17.314   1.169  0.00  0.00    -0.357 N 
ATOM     21  H   UNL     1     -30.672  16.359   1.105  0.00  0.00    +0.142 HD
ATOM     22  H   UNL     1     -29.521  17.583   1.400  0.00  0.00    +0.142 HD
ENDBRANCH  19  20
ENDBRANCH  11  14
ENDBRANCH   1  11
BRANCH   4  23
ATOM     23  C   UNL     1     -36.240  25.120   5.383  0.00  0.00    +0.039 C 
BRANCH  23  24
ATOM     24  C   UNL     1     -34.908  25.625   5.950  0.00  0.00    +0.159 C 
BRANCH  24  25
ATOM     25  S   UNL     1     -33.931  26.458   4.739  0.00  0.00    +0.023 S 
ATOM     26  O   UNL     1     -32.898  27.190   5.768  0.00  0.00    -0.069 OA
ATOM     27  O   UNL     1     -34.744  27.472   4.094  0.00  0.00    -0.069 OA
ATOM     28  O   UNL     1     -33.198  25.469   3.969  0.00  0.00    -0.069 OA
ENDBRANCH  24  25
ENDBRANCH  23  24
ENDBRANCH   4  23
TORSDOF 6
ENDMDL
MODEL 2
REMARK VINA RESULT:      -7.0      1.437      1.816
REMARK  Name = 192081
REMARK  6 active torsions:
REMARK  status: ('A' for Active; 'I' for Inactive)
REMARK    1  A    between atoms: N_1  and  S_11
REMARK    2  A    between atoms: C_4  and  C_23
REMARK    3  A    between atoms: S_11  and  C_14
REMARK    4  A    between atoms: C_19  and  N_20
REMARK    5  A    between atoms: C_23  and  C_24
REMARK    6  A    between atoms: C_24  and  S_25
REMARK                            x       y       z     vdW  Elec       q    Type
REMARK                         _______ _______ _______ _____ _____    ______ ____
ROOT
ATOM      1  N   UNL     1     -36.445  19.850   2.030  0.00  0.00    -0.139 N 
ATOM      2  N   UNL     1     -37.322  22.020   2.331  0.00  0.00    -0.336 NA
ATOM      3  N   UNL     1     -35.574  21.187   3.767  0.00  0.00    -0.336 NA
ATOM      4  C   UNL     1     -36.449  23.406   4.095  0.00  0.00    +0.100 C 
ATOM      5  C   UNL     1     -37.295  23.173   3.030  0.00  0.00    +0.107 C 
ATOM      6  C   UNL     1     -35.602  22.367   4.423  0.00  0.00    +0.107 C 
ATOM      7  C   UNL     1     -36.448  21.093   2.752  0.00  0.00    +0.218 C 
ATOM      8  C   UNL     1     -38.259  24.224   2.584  0.00  0.00    +0.063 C 
ATOM      9  C   UNL     1     -34.640  22.504   5.556  0.00  0.00    +0.063 C 
ATOM     10  H   UNL     1     -36.747  19.016   2.457  0.00  0.00    +0.188 HD
ENDROOT
BRANCH   1  11
ATOM     11  S   UNL     1     -35.899  19.862   0.396  0.00  0.00    +0.083 S 
ATOM     12  O   UNL     1     -36.935  19.255  -0.432  0.00  0.00    -0.149 OA
ATOM     13  O   UNL     1     -35.417  21.194   0.054  0.00  0.00    -0.149 OA
BRANCH  11  14
ATOM     14  C   UNL     1     -34.539  18.767   0.434  0.00  0.00    +0.126 C 
ATOM     15  C   UNL     1     -34.572  17.588  -0.310  0.00  0.00    +0.021 C 
ATOM     16  C   UNL     1     -33.421  19.071   1.210  0.00  0.00    +0.021 C 
ATOM     17  C   UNL     1     -33.486  16.714  -0.280  0.00  0.00    +0.015 C 
ATOM     18  C   UNL     1     -32.335  18.197   1.240  0.00  0.00    +0.015 C 
ATOM     19  C   UNL     1     -32.367  17.018   0.496  0.00  0.00    +0.042 C 
BRANCH  19  20
ATOM     20  N   UNL     1     -31.269  16.134   0.525  0.00  0.00    -0.357 N 
ATOM     21  H   UNL     1     -30.914  15.760  -0.314  0.00  0.00    +0.142 HD
ATOM     22  H   UNL     1     -30.857  15.889   1.386  0.00  0.00    +0.142 HD
ENDBRANCH  19  20
ENDBRANCH  11  14
ENDBRANCH   1  11
BRANCH   4  23
ATOM     23  C   UNL     1     -36.451  24.692   4.843  0.00  0.00    +0.039 C 
BRANCH  23  24
ATOM     24  C   UNL     1     -35.776  25.852   4.102  0.00  0.00    +0.159 C 
BRANCH  24  25
ATOM     25  S   UNL     1     -34.172  26.219   4.741  0.00  0.00    +0.023 S 
ATOM     26  O   UNL     1     -34.036  27.722   4.121  0.00  0.00    -0.069 OA
ATOM     27  O   UNL     1     -33.199  25.358   4.093  0.00  0.00    -0.069 OA
ATOM     28  O   UNL     1     -34.256  26.318   6.186  0.00  0.00    -0.069 OA
ENDBRANCH  24  25
ENDBRANCH  23  24
ENDBRANCH   4  23
TORSDOF 6
ENDMDL
MODEL 3
REMARK VINA RESULT:      -6.7      2.261      2.524
REMARK  Name = 192081
REMARK  6 active torsions:
REMARK  status: ('A' for Active; 'I' for Inactive)
REMARK    1  A    between atoms: N_1  and  S_11
REMARK    2  A    between atoms: C_4  and  C_23
REMARK    3  A    between atoms: S_11  and  C_14
REMARK    4  A    between atoms: C_19  and  N_20
REMARK    5  A    between atoms: C_23  and  C_24
REMARK    6  A    between atoms: C_24  and  S_25
REMARK                            x       y       z     vdW  Elec       q    Type
REMARK                         _______ _______ _______ _____ _____    ______ ____
ROOT
ATOM      1  N   UNL     1     -36.157  19.916   1.787  0.00  0.00    -0.139 N 
ATOM      2  N   UNL     1     -36.456  22.236   2.098  0.00  0.00    -0.336 NA
ATOM      3  N   UNL     1     -35.565  20.861   3.866  0.00  0.00    -0.336 NA
ATOM      4  C   UNL     1     -35.859  23.226   4.209  0.00  0.00    +0.100 C 
ATOM      5  C   UNL     1     -36.344  23.300   2.919  0.00  0.00    +0.107 C 
ATOM      6  C   UNL     1     -35.481  21.968   4.634  0.00  0.00    +0.107 C 
ATOM      7  C   UNL     1     -36.053  21.074   2.634  0.00  0.00    +0.218 C 
ATOM      8  C   UNL     1     -36.786  24.608   2.350  0.00  0.00    +0.063 C 
ATOM      9  C   UNL     1     -34.940  21.766   6.010  0.00  0.00    +0.063 C 
ATOM     10  H   UNL     1     -36.796  19.196   1.990  0.00  0.00    +0.188 HD
ENDROOT
BRANCH   1  11
ATOM     11  S   UNL     1     -35.129  19.826   0.407  0.00  0.00    +0.083 S 
ATOM     12  O   UNL     1     -35.789  20.520  -0.694  0.00  0.00    -0.149 OA
ATOM     13  O   UNL     1     -33.777  20.225   0.779  0.00  0.00    -0.149 OA
BRANCH  11  14
ATOM     14  C   UNL     1     -35.127  18.120   0.035  0.00  0.00    +0.126 C 
ATOM     15  C   UNL     1     -36.295  17.502  -0.410  0.00  0.00    +0.021 C 
ATOM     16  C   UNL     1     -33.957  17.376   0.184  0.00  0.00    +0.021 C 
ATOM     17  C   UNL     1     -36.293  16.140  -0.707  0.00  0.00    +0.015 C 
ATOM     18  C   UNL     1     -33.955  16.014  -0.112  0.00  0.00    +0.015 C 
ATOM     19  C   UNL     1     -35.123  15.395  -0.558  0.00  0.00    +0.042 C 
BRANCH  19  20
ATOM     20  N   UNL     1     -35.122  14.017  -0.860  0.00  0.00    -0.357 N 
ATOM     21  H   UNL     1     -35.129  13.353  -0.133  0.00  0.00    +0.142 HD
ATOM     22  H   UNL     1     -35.113  13.720  -1.799  0.00  0.00    +0.142 HD
ENDBRANCH  19  20
ENDBRANCH  11  14
ENDBRANCH   1  11
BRANCH   4  23
ATOM     23  C   UNL     1     -35.751  24.423   5.086  0.00  0.00    +0.039 C 
BRANCH  23  24
ATOM     24  C   UNL     1     -34.312  24.870   5.367  0.00  0.00    +0.159 C 
BRANCH  24  25
ATOM     25  S   UNL     1     -33.926  26.417   4.612  0.00  0.00    +0.023 S 
ATOM     26  O   UNL     1     -33.271  27.135   5.922  0.00  0.00    -0.069 OA
ATOM     27  O   UNL     1     -35.164  27.099   4.277  0.00  0.00    -0.069 OA
ATOM     28  O   UNL     1     -32.883  26.208   3.625  0.00  0.00    -0.069 OA
ENDBRANCH  24  25
ENDBRANCH  23  24
ENDBRANCH   4  23
TORSDOF 6
ENDMDL
MODEL 4
REMARK VINA RESULT:      -6.3      2.529      2.884
REMARK  Name = 192081
REMARK  6 active torsions:
REMARK  status: ('A' for Active; 'I' for Inactive)
REMARK    1  A    between atoms: N_1  and  S_11
REMARK    2  A    between atoms: C_4  and  C_23
REMARK    3  A    between atoms: S_11  and  C_14
REMARK    4  A    between atoms: C_19  and  N_20
REMARK    5  A    between atoms: C_23  and  C_24
REMARK    6  A    between atoms: C_24  and  S_25
REMARK                            x       y       z     vdW  Elec       q    Type
REMARK                         _______ _______ _______ _____ _____    ______ ____
ROOT
ATOM      1  N   UNL     1     -35.523  19.895   2.157  0.00  0.00    -0.139 N 
ATOM      2  N   UNL     1     -35.770  22.241   2.213  0.00  0.00    -0.336 NA
ATOM      3  N   UNL     1     -35.423  20.992   4.244  0.00  0.00    -0.336 NA
ATOM      4  C   UNL     1     -35.671  23.385   4.328  0.00  0.00    +0.100 C 
ATOM      5  C   UNL     1     -35.813  23.366   2.956  0.00  0.00    +0.107 C 
ATOM      6  C   UNL     1     -35.477  22.156   4.925  0.00  0.00    +0.107 C 
ATOM      7  C   UNL     1     -35.575  21.116   2.916  0.00  0.00    +0.218 C 
ATOM      8  C   UNL     1     -36.030  24.636   2.199  0.00  0.00    +0.063 C 
ATOM      9  C   UNL     1     -35.308  22.052   6.405  0.00  0.00    +0.063 C 
ATOM     10  H   UNL     1     -36.229  19.215   2.243  0.00  0.00    +0.188 HD
ENDROOT
BRANCH   1  11
ATOM     11  S   UNL     1     -34.188  19.658   1.094  0.00  0.00    +0.083 S 
ATOM     12  O   UNL     1     -33.740  20.967   0.632  0.00  0.00    -0.149 OA
ATOM     13  O   UNL     1     -33.220  18.765   1.718  0.00  0.00    -0.149 OA
BRANCH  11  14
ATOM     14  C   UNL     1     -34.916  18.836  -0.264  0.00  0.00    +0.126 C 
ATOM     15  C   UNL     1     -36.295  18.633  -0.299  0.00  0.00    +0.021 C 
ATOM     16  C   UNL     1     -34.117  18.381  -1.313  0.00  0.00    +0.021 C 
ATOM     17  C   UNL     1     -36.876  17.976  -1.383  0.00  0.00    +0.015 C 
ATOM     18  C   UNL     1     -34.698  17.724  -2.397  0.00  0.00    +0.015 C 
ATOM     19  C   UNL     1     -36.077  17.521  -2.432  0.00  0.00    +0.042 C 
BRANCH  19  20
ATOM     20  N   UNL     1     -36.666  16.858  -3.529  0.00  0.00    -0.357 N 
ATOM     21  H   UNL     1     -37.301  17.334  -4.111  0.00  0.00    +0.142 HD
ATOM     22  H   UNL     1     -36.441  15.916  -3.712  0.00  0.00    +0.142 HD
ENDBRANCH  19  20
ENDBRANCH  11  14
ENDBRANCH   1  11
BRANCH   4  23
ATOM     23  C   UNL     1     -35.724  24.647   5.114  0.00  0.00    +0.039 C 
BRANCH  23  24
ATOM     24  C   UNL     1     -34.355  25.166   5.565  0.00  0.00    +0.159 C 
BRANCH  24  25
ATOM     25  S   UNL     1     -33.786  26.515   4.579  0.00  0.00    +0.023 S 
ATOM     26  O   UNL     1     -32.906  27.263   5.730  0.00  0.00    -0.069 OA
ATOM     27  O   UNL     1     -34.918  27.357   4.236  0.00  0.00    -0.069 OA
ATOM     28  O   UNL     1     -32.884  26.003   3.563  0.00  0.00    -0.069 OA
ENDBRANCH  24  25
ENDBRANCH  23  24
ENDBRANCH   4  23
TORSDOF 6
ENDMDL
MODEL 5
REMARK VINA RESULT:      -6.2      4.088      5.659
REMARK  Name = 192081
REMARK  6 active torsions:
REMARK  status: ('A' for Active; 'I' for Inactive)
REMARK    1  A    between atoms: N_1  and  S_11
REMARK    2  A    between atoms: C_4  and  C_23
REMARK    3  A    between atoms: S_11  and  C_14
REMARK    4  A    between atoms: C_19  and  N_20
REMARK    5  A    between atoms: C_23  and  C_24
REMARK    6  A    between atoms: C_24  and  S_25
REMARK                            x       y       z     vdW  Elec       q    Type
REMARK                         _______ _______ _______ _____ _____    ______ ____
ROOT
ATOM      1  N   UNL     1     -34.639  24.043   3.642  0.00  0.00    -0.139 N 
ATOM      2  N   UNL     1     -33.752  25.546   5.231  0.00  0.00    -0.336 NA
ATOM      3  N   UNL     1     -33.750  26.093   2.884  0.00  0.00    -0.336 NA
ATOM      4  C   UNL     1     -32.842  27.645   4.484  0.00  0.00    +0.100 C 
ATOM      5  C   UNL     1     -33.164  26.736   5.471  0.00  0.00    +0.107 C 
ATOM      6  C   UNL     1     -33.161  27.266   3.196  0.00  0.00    +0.107 C 
ATOM      7  C   UNL     1     -34.010  25.302   3.937  0.00  0.00    +0.218 C 
ATOM      8  C   UNL     1     -32.865  27.035   6.904  0.00  0.00    +0.063 C 
ATOM      9  C   UNL     1     -32.861  28.170   2.046  0.00  0.00    +0.063 C 
ATOM     10  H   UNL     1     -34.158  23.341   3.147  0.00  0.00    +0.188 HD
ENDROOT
BRANCH   1  11
ATOM     11  S   UNL     1     -36.256  23.799   4.181  0.00  0.00    +0.083 S 
ATOM     12  O   UNL     1     -36.206  23.137   5.479  0.00  0.00    -0.149 OA
ATOM     13  O   UNL     1     -37.005  25.044   4.055  0.00  0.00    -0.149 OA
BRANCH  11  14
ATOM     14  C   UNL     1     -36.882  22.652   3.023  0.00  0.00    +0.126 C 
ATOM     15  C   UNL     1     -38.176  22.797   2.525  0.00  0.00    +0.021 C 
ATOM     16  C   UNL     1     -36.086  21.588   2.596  0.00  0.00    +0.021 C 
ATOM     17  C   UNL     1     -38.675  21.881   1.600  0.00  0.00    +0.015 C 
ATOM     18  C   UNL     1     -36.585  20.672   1.671  0.00  0.00    +0.015 C 
ATOM     19  C   UNL     1     -37.879  20.818   1.173  0.00  0.00    +0.042 C 
BRANCH  19  20
ATOM     20  N   UNL     1     -38.385  19.891   0.237  0.00  0.00    -0.357 N 
ATOM     21  H   UNL     1     -39.331  19.928  -0.032  0.00  0.00    +0.142 HD
ATOM     22  H   UNL     1     -37.789  19.207  -0.148  0.00  0.00    +0.142 HD
ENDBRANCH  19  20
ENDBRANCH  11  14
ENDBRANCH   1  11
BRANCH   4  23
ATOM     23  C   UNL     1     -32.191  28.948   4.788  0.00  0.00    +0.039 C 
BRANCH  23  24
ATOM     24  C   UNL     1     -30.675  28.962   4.566  0.00  0.00    +0.159 C 
BRANCH  24  25
ATOM     25  S   UNL     1     -29.773  29.149   6.071  0.00  0.00    +0.023 S 
ATOM     26  O   UNL     1     -29.473  27.568   6.336  0.00  0.00    -0.069 OA
ATOM     27  O   UNL     1     -30.675  29.632   7.102  0.00  0.00    -0.069 OA
ATOM     28  O   UNL     1     -28.518  29.820   5.784  0.00  0.00    -0.069 OA
ENDBRANCH  24  25
ENDBRANCH  23  24
ENDBRANCH   4  23
TORSDOF 6
ENDMDL
MODEL 6
REMARK VINA RESULT:      -6.0      3.973      8.207
REMARK  Name = 192081
REMARK  6 active torsions:
REMARK  status: ('A' for Active; 'I' for Inactive)
REMARK    1  A    between atoms: N_1  and  S_11
REMARK    2  A    between atoms: C_4  and  C_23
REMARK    3  A    between atoms: S_11  and  C_14
REMARK    4  A    between atoms: C_19  and  N_20
REMARK    5  A    between atoms: C_23  and  C_24
REMARK    6  A    between atoms: C_24  and  S_25
REMARK                            x       y       z     vdW  Elec       q    Type
REMARK                         _______ _______ _______ _____ _____    ______ ____
ROOT
ATOM      1  N   UNL     1     -35.264  22.508   2.042  0.00  0.00    -0.139 N 
ATOM      2  N   UNL     1     -37.032  21.394   0.945  0.00  0.00    -0.336 NA
ATOM      3  N   UNL     1     -34.822  20.436   1.005  0.00  0.00    -0.336 NA
ATOM      4  C   UNL     1     -36.608  19.278  -0.119  0.00  0.00    +0.100 C 
ATOM      5  C   UNL     1     -37.438  20.320   0.238  0.00  0.00    +0.107 C 
ATOM      6  C   UNL     1     -35.296  19.390   0.295  0.00  0.00    +0.107 C 
ATOM      7  C   UNL     1     -35.734  21.379   1.285  0.00  0.00    +0.218 C 
ATOM      8  C   UNL     1     -38.879  20.310  -0.156  0.00  0.00    +0.063 C 
ATOM      9  C   UNL     1     -34.306  18.322  -0.031  0.00  0.00    +0.063 C 
ATOM     10  H   UNL     1     -34.624  23.146   1.653  0.00  0.00    +0.188 HD
ENDROOT
BRANCH   1  11
ATOM     11  S   UNL     1     -35.854  22.711   3.647  0.00  0.00    +0.083 S 
ATOM     12  O   UNL     1     -37.280  23.008   3.572  0.00  0.00    -0.149 OA
ATOM     13  O   UNL     1     -35.412  21.594   4.474  0.00  0.00    -0.149 OA
BRANCH  11  14
ATOM     14  C   UNL     1     -35.037  24.159   4.180  0.00  0.00    +0.126 C 
ATOM     15  C   UNL     1     -35.156  24.580   5.504  0.00  0.00    +0.021 C 
ATOM     16  C   UNL     1     -34.265  24.895   3.281  0.00  0.00    +0.021 C 
ATOM     17  C   UNL     1     -34.503  25.736   5.929  0.00  0.00    +0.015 C 
ATOM     18  C   UNL     1     -33.613  26.052   3.706  0.00  0.00    +0.015 C 
ATOM     19  C   UNL     1     -33.732  26.473   5.030  0.00  0.00    +0.042 C 
BRANCH  19  20
ATOM     20  N   UNL     1     -33.071  27.642   5.462  0.00  0.00    -0.357 N 
ATOM     21  H   UNL     1     -32.417  27.597   6.196  0.00  0.00    +0.142 HD
ATOM     22  H   UNL     1     -33.265  28.505   5.028  0.00  0.00    +0.142 HD
ENDBRANCH  19  20
ENDBRANCH  11  14
ENDBRANCH   1  11
BRANCH   4  23
ATOM     23  C   UNL     1     -37.093  18.109  -0.901  0.00  0.00    +0.039 C 
BRANCH  23  24
ATOM     24  C   UNL     1     -37.534  16.917  -0.044  0.00  0.00    +0.159 C 
BRANCH  24  25
ATOM     25  S   UNL     1     -38.850  16.003  -0.784  0.00  0.00    +0.023 S 
ATOM     26  O   UNL     1     -38.112  15.682  -2.203  0.00  0.00    -0.069 OA
ATOM     27  O   UNL     1     -39.965  16.899  -1.031  0.00  0.00    -0.069 OA
ATOM     28  O   UNL     1     -39.022  14.759  -0.057  0.00  0.00    -0.069 OA
ENDBRANCH  24  25
ENDBRANCH  23  24
ENDBRANCH   4  23
TORSDOF 6
ENDMDL
MODEL 7
REMARK VINA RESULT:      -6.0      3.740      8.127
REMARK  Name = 192081
REMARK  6 active torsions:
REMARK  status: ('A' for Active; 'I' for Inactive)
REMARK    1  A    between atoms: N_1  and  S_11
REMARK    2  A    between atoms: C_4  and  C_23
REMARK    3  A    between atoms: S_11  and  C_14
REMARK    4  A    between atoms: C_19  and  N_20
REMARK    5  A    between atoms: C_23  and  C_24
REMARK    6  A    between atoms: C_24  and  S_25
REMARK                            x       y       z     vdW  Elec       q    Type
REMARK                         _______ _______ _______ _____ _____    ______ ____
ROOT
ATOM      1  N   UNL     1     -35.121  21.963   1.261  0.00  0.00    -0.139 N 
ATOM      2  N   UNL     1     -35.371  19.826   0.292  0.00  0.00    -0.336 NA
ATOM      3  N   UNL     1     -33.186  20.803   0.573  0.00  0.00    -0.336 NA
ATOM      4  C   UNL     1     -33.413  18.620  -0.417  0.00  0.00    +0.100 C 
ATOM      5  C   UNL     1     -34.777  18.745  -0.252  0.00  0.00    +0.107 C 
ATOM      6  C   UNL     1     -32.659  19.691   0.018  0.00  0.00    +0.107 C 
ATOM      7  C   UNL     1     -34.524  20.794   0.674  0.00  0.00    +0.218 C 
ATOM      8  C   UNL     1     -35.696  17.650  -0.687  0.00  0.00    +0.063 C 
ATOM      9  C   UNL     1     -31.171  19.668  -0.107  0.00  0.00    +0.063 C 
ATOM     10  H   UNL     1     -35.093  22.832   0.799  0.00  0.00    +0.188 HD
ENDROOT
BRANCH   1  11
ATOM     11  S   UNL     1     -35.885  21.799   2.796  0.00  0.00    +0.083 S 
ATOM     12  O   UNL     1     -37.323  21.951   2.604  0.00  0.00    -0.149 OA
ATOM     13  O   UNL     1     -35.388  20.601   3.463  0.00  0.00    -0.149 OA
BRANCH  11  14
ATOM     14  C   UNL     1     -35.314  23.201   3.666  0.00  0.00    +0.126 C 
ATOM     15  C   UNL     1     -35.550  23.318   5.035  0.00  0.00    +0.021 C 
ATOM     16  C   UNL     1     -34.621  24.206   2.990  0.00  0.00    +0.021 C 
ATOM     17  C   UNL     1     -35.094  24.437   5.729  0.00  0.00    +0.015 C 
ATOM     18  C   UNL     1     -34.164  25.325   3.684  0.00  0.00    +0.015 C 
ATOM     19  C   UNL     1     -34.401  25.442   5.054  0.00  0.00    +0.042 C 
BRANCH  19  20
ATOM     20  N   UNL     1     -33.938  26.574   5.757  0.00  0.00    -0.357 N 
ATOM     21  H   UNL     1     -34.539  27.050   6.375  0.00  0.00    +0.142 HD
ATOM     22  H   UNL     1     -33.013  26.888   5.629  0.00  0.00    +0.142 HD
ENDBRANCH  19  20
ENDBRANCH  11  14
ENDBRANCH   1  11
BRANCH   4  23
ATOM     23  C   UNL     1     -32.794  17.411  -1.024  0.00  0.00    +0.039 C 
BRANCH  23  24
ATOM     24  C   UNL     1     -32.432  16.315  -0.016  0.00  0.00    +0.159 C 
BRANCH  24  25
ATOM     25  S   UNL     1     -30.776  15.736  -0.215  0.00  0.00    +0.023 S 
ATOM     26  O   UNL     1     -31.007  14.231   0.372  0.00  0.00    -0.069 OA
ATOM     27  O   UNL     1     -29.910  16.464   0.695  0.00  0.00    -0.069 OA
ATOM     28  O   UNL     1     -30.481  15.642  -1.633  0.00  0.00    -0.069 OA
ENDBRANCH  24  25
ENDBRANCH  23  24
ENDBRANCH   4  23
TORSDOF 6
ENDMDL
MODEL 8
REMARK VINA RESULT:      -6.0      3.194      3.984
REMARK  Name = 192081
REMARK  6 active torsions:
REMARK  status: ('A' for Active; 'I' for Inactive)
REMARK    1  A    between atoms: N_1  and  S_11
REMARK    2  A    between atoms: C_4  and  C_23
REMARK    3  A    between atoms: S_11  and  C_14
REMARK    4  A    between atoms: C_19  and  N_20
REMARK    5  A    between atoms: C_23  and  C_24
REMARK    6  A    between atoms: C_24  and  S_25
REMARK                            x       y       z     vdW  Elec       q    Type
REMARK                         _______ _______ _______ _____ _____    ______ ____
ROOT
ATOM      1  N   UNL     1     -35.145  21.127   2.155  0.00  0.00    -0.139 N 
ATOM      2  N   UNL     1     -37.392  21.799   1.894  0.00  0.00    -0.336 NA
ATOM      3  N   UNL     1     -35.873  23.084   3.253  0.00  0.00    -0.336 NA
ATOM      4  C   UNL     1     -38.159  23.793   3.002  0.00  0.00    +0.100 C 
ATOM      5  C   UNL     1     -38.357  22.693   2.192  0.00  0.00    +0.107 C 
ATOM      6  C   UNL     1     -36.885  23.940   3.510  0.00  0.00    +0.107 C 
ATOM      7  C   UNL     1     -36.200  22.059   2.451  0.00  0.00    +0.218 C 
ATOM      8  C   UNL     1     -39.696  22.429   1.586  0.00  0.00    +0.063 C 
ATOM      9  C   UNL     1     -36.552  25.093   4.397  0.00  0.00    +0.063 C 
ATOM     10  H   UNL     1     -34.770  20.547   2.857  0.00  0.00    +0.188 HD
ENDROOT
BRANCH   1  11
ATOM     11  S   UNL     1     -34.559  21.054   0.537  0.00  0.00    +0.083 S 
ATOM     12  O   UNL     1     -35.581  20.418  -0.286  0.00  0.00    -0.149 OA
ATOM     13  O   UNL     1     -34.053  22.363   0.142  0.00  0.00    -0.149 OA
BRANCH  11  14
ATOM     14  C   UNL     1     -33.213  19.948   0.662  0.00  0.00    +0.126 C 
ATOM     15  C   UNL     1     -32.009  20.239   0.022  0.00  0.00    +0.021 C 
ATOM     16  C   UNL     1     -33.343  18.772   1.402  0.00  0.00    +0.021 C 
ATOM     17  C   UNL     1     -30.935  19.356   0.122  0.00  0.00    +0.015 C 
ATOM     18  C   UNL     1     -32.269  17.889   1.502  0.00  0.00    +0.015 C 
ATOM     19  C   UNL     1     -31.065  18.181   0.862  0.00  0.00    +0.042 C 
BRANCH  19  20
ATOM     20  N   UNL     1     -29.977  17.288   0.964  0.00  0.00    -0.357 N 
ATOM     21  H   UNL     1     -29.077  17.629   1.174  0.00  0.00    +0.142 HD
ATOM     22  H   UNL     1     -30.118  16.324   0.822  0.00  0.00    +0.142 HD
ENDBRANCH  19  20
ENDBRANCH  11  14
ENDBRANCH   1  11
BRANCH   4  23
ATOM     23  C   UNL     1     -39.249  24.758   3.309  0.00  0.00    +0.039 C 
BRANCH  23  24
ATOM     24  C   UNL     1     -39.371  25.911   2.306  0.00  0.00    +0.159 C 
BRANCH  24  25
ATOM     25  S   UNL     1     -40.985  26.625   2.291  0.00  0.00    +0.023 S 
ATOM     26  O   UNL     1     -41.796  25.306   1.779  0.00  0.00    -0.069 OA
ATOM     27  O   UNL     1     -41.041  27.639   1.253  0.00  0.00    -0.069 OA
ATOM     28  O   UNL     1     -41.380  26.914   3.658  0.00  0.00    -0.069 OA
ENDBRANCH  24  25
ENDBRANCH  23  24
ENDBRANCH   4  23
TORSDOF 6
ENDMDL
MODEL 9
REMARK VINA RESULT:      -5.9      3.267      7.647
REMARK  Name = 192081
REMARK  6 active torsions:
REMARK  status: ('A' for Active; 'I' for Inactive)
REMARK    1  A    between atoms: N_1  and  S_11
REMARK    2  A    between atoms: C_4  and  C_23
REMARK    3  A    between atoms: S_11  and  C_14
REMARK    4  A    between atoms: C_19  and  N_20
REMARK    5  A    between atoms: C_23  and  C_24
REMARK    6  A    between atoms: C_24  and  S_25
REMARK                            x       y       z     vdW  Elec       q    Type
REMARK                         _______ _______ _______ _____ _____    ______ ____
ROOT
ATOM      1  N   UNL     1     -36.826  21.898   2.695  0.00  0.00    -0.139 N 
ATOM      2  N   UNL     1     -34.874  21.080   1.652  0.00  0.00    -0.336 NA
ATOM      3  N   UNL     1     -36.995  19.984   1.327  0.00  0.00    -0.336 NA
ATOM      4  C   UNL     1     -35.019  19.130   0.249  0.00  0.00    +0.100 C 
ATOM      5  C   UNL     1     -34.315  20.155   0.844  0.00  0.00    +0.107 C 
ATOM      6  C   UNL     1     -36.370  19.092   0.529  0.00  0.00    +0.107 C 
ATOM      7  C   UNL     1     -36.193  20.930   1.840  0.00  0.00    +0.218 C 
ATOM      8  C   UNL     1     -32.845  20.297   0.617  0.00  0.00    +0.063 C 
ATOM      9  C   UNL     1     -37.235  18.028  -0.061  0.00  0.00    +0.063 C 
ATOM     10  H   UNL     1     -37.193  21.637   3.571  0.00  0.00    +0.188 HD
ENDROOT
BRANCH   1  11
ATOM     11  S   UNL     1     -36.922  23.527   2.143  0.00  0.00    +0.083 S 
ATOM     12  O   UNL     1     -36.206  23.618   0.876  0.00  0.00    -0.149 OA
ATOM     13  O   UNL     1     -38.306  23.981   2.202  0.00  0.00    -0.149 OA
BRANCH  11  14
ATOM     14  C   UNL     1     -35.996  24.397   3.340  0.00  0.00    +0.126 C 
ATOM     15  C   UNL     1     -34.666  24.732   3.087  0.00  0.00    +0.021 C 
ATOM     16  C   UNL     1     -36.587  24.758   4.552  0.00  0.00    +0.021 C 
ATOM     17  C   UNL     1     -33.928  25.427   4.043  0.00  0.00    +0.015 C 
ATOM     18  C   UNL     1     -35.848  25.453   5.508  0.00  0.00    +0.015 C 
ATOM     19  C   UNL     1     -34.518  25.787   5.254  0.00  0.00    +0.042 C 
BRANCH  19  20
ATOM     20  N   UNL     1     -33.770  26.492   6.221  0.00  0.00    -0.357 N 
ATOM     21  H   UNL     1     -33.803  26.218   7.166  0.00  0.00    +0.142 HD
ATOM     22  H   UNL     1     -33.215  27.259   5.949  0.00  0.00    +0.142 HD
ENDBRANCH  19  20
ENDBRANCH  11  14
ENDBRANCH   1  11
BRANCH   4  23
ATOM     23  C   UNL     1     -34.366  18.127  -0.635  0.00  0.00    +0.039 C 
BRANCH  23  24
ATOM     24  C   UNL     1     -33.881  16.868   0.091  0.00  0.00    +0.159 C 
BRANCH  24  25
ATOM     25  S   UNL     1     -32.128  16.676   0.013  0.00  0.00    +0.023 S 
ATOM     26  O   UNL     1     -31.775  17.380   1.441  0.00  0.00    -0.069 OA
ATOM     27  O   UNL     1     -31.611  17.509  -1.058  0.00  0.00    -0.069 OA
ATOM     28  O   UNL     1     -31.808  15.263   0.098  0.00  0.00    -0.069 OA
ENDBRANCH  24  25
ENDBRANCH  23  24
ENDBRANCH   4  23
TORSDOF 6
ENDMDL
