MODEL 1
REMARK VINA RESULT:      -7.6      0.000      0.000
REMARK  Name = 51001932
REMARK  5 active torsions:
REMARK  status: ('A' for Active; 'I' for Inactive)
REMARK    1  A    between atoms: C_8  and  C_18
REMARK    2  A    between atoms: C_11  and  C_26
REMARK    3  A    between atoms: N_15  and  C_21
REMARK    4  A    between atoms: N_24  and  C_29
REMARK    5  A    between atoms: C_29  and  C_34
REMARK                            x       y       z     vdW  Elec       q    Type
REMARK                         _______ _______ _______ _____ _____    ______ ____
ROOT
ATOM      1  O   UNL     1     -37.442  24.420   4.464  0.00  0.00    -0.473 OA
ATOM      2  N   UNL     1     -36.088  22.078   3.094  0.00  0.00    -0.273 N 
ATOM      3  N   UNL     1     -37.188  21.356   1.324  0.00  0.00    -0.385 NA
ATOM      4  C   UNL     1     -37.163  22.303   2.256  0.00  0.00    +0.186 C 
ATOM      5  C   UNL     1     -35.655  22.849   4.241  0.00  0.00    +0.141 C 
ATOM      6  C   UNL     1     -38.153  23.397   2.332  0.00  0.00    +0.078 C 
ATOM      7  C   UNL     1     -38.258  24.338   3.369  0.00  0.00    +0.142 C 
ATOM      8  C   UNL     1     -36.134  20.523   1.576  0.00  0.00    +0.177 C 
ATOM      9  C   UNL     1     -36.055  24.304   4.163  0.00  0.00    +0.227 C 
ATOM     10  C   UNL     1     -35.436  20.949   2.673  0.00  0.00    +0.157 C 
ATOM     11  C   UNL     1     -40.224  25.334   2.340  0.00  0.00    +0.006 C 
ATOM     12  C   UNL     1     -39.300  25.281   3.379  0.00  0.00    +0.037 C 
ATOM     13  C   UNL     1     -39.103  23.477   1.290  0.00  0.00    +0.007 C 
ATOM     14  C   UNL     1     -40.122  24.435   1.291  0.00  0.00    +0.000 C 
ENDROOT
BRANCH   8  18
ATOM     15  N   UNL     1     -34.566  18.870   0.633  0.00  0.00    -0.175 N 
ATOM     16  N   UNL     1     -36.782  18.644   0.114  0.00  0.00    -0.334 NA
ATOM     17  N   UNL     1     -34.780  17.815  -0.165  0.00  0.00    -0.114 NA
ATOM     18  C   UNL     1     -35.808  19.338   0.774  0.00  0.00    +0.241 C 
ATOM     19  C   UNL     1     -36.099  17.687  -0.470  0.00  0.00    +0.082 C 
ATOM     20  C   UNL     1     -36.651  16.634  -1.318  0.00  0.00    +0.131 C 
BRANCH  15  21
ATOM     21  C   UNL     1     -33.278  19.259   1.125  0.00  0.00    +0.100 C 
ATOM     22  C   UNL     1     -32.369  18.047   1.345  0.00  0.00    +0.024 C 
ATOM     23  C   UNL     1     -32.609  20.282   0.205  0.00  0.00    +0.024 C 
ENDBRANCH  15  21
ENDBRANCH   8  18
BRANCH  11  26
ATOM     24  N   UNL     1     -42.975  27.507   3.030  0.00  0.00    -0.205 N 
ATOM     25  N   UNL     1     -42.716  27.997   1.806  0.00  0.00    -0.176 NA
ATOM     26  C   UNL     1     -41.275  26.312   2.357  0.00  0.00    +0.037 C 
ATOM     27  C   UNL     1     -42.140  26.496   3.408  0.00  0.00    +0.086 C 
ATOM     28  C   UNL     1     -41.677  27.263   1.400  0.00  0.00    +0.119 C 
BRANCH  24  29
ATOM     29  C   UNL     1     -44.058  28.059   3.808  0.00  0.00    +0.147 C 
ATOM     30  C   UNL     1     -45.197  28.685   2.971  0.00  0.00    +0.031 C 
ATOM     31  C   UNL     1     -44.687  26.916   4.638  0.00  0.00    +0.031 C 
BRANCH  29  34
ATOM     32  O   UNL     1     -42.345  29.292   5.041  0.00  0.00    -0.274 OA
ATOM     33  N   UNL     1     -44.517  29.972   5.285  0.00  0.00    -0.327 N 
ATOM     34  C   UNL     1     -43.535  29.155   4.762  0.00  0.00    +0.237 C 
ATOM     35  H   UNL     1     -44.275  30.699   5.904  0.00  0.00    +0.145 HD
ATOM     36  H   UNL     1     -45.459  29.828   5.039  0.00  0.00    +0.145 HD
ENDBRANCH  29  34
ENDBRANCH  24  29
ENDBRANCH  11  26
TORSDOF 5
ENDMDL
MODEL 2
REMARK VINA RESULT:      -7.5      5.598     10.073
REMARK  Name = 51001932
REMARK  5 active torsions:
REMARK  status: ('A' for Active; 'I' for Inactive)
REMARK    1  A    between atoms: C_8  and  C_18
REMARK    2  A    between atoms: C_11  and  C_26
REMARK    3  A    between atoms: N_15  and  C_21
REMARK    4  A    between atoms: N_24  and  C_29
REMARK    5  A    between atoms: C_29  and  C_34
REMARK                            x       y       z     vdW  Elec       q    Type
REMARK                         _______ _______ _______ _____ _____    ______ ____
ROOT
ATOM      1  O   UNL     1     -35.170  21.596   4.848  0.00  0.00    -0.473 OA
ATOM      2  N   UNL     1     -34.855  24.609   4.981  0.00  0.00    -0.273 N 
ATOM      3  N   UNL     1     -34.650  25.546   2.995  0.00  0.00    -0.385 NA
ATOM      4  C   UNL     1     -34.882  24.395   3.617  0.00  0.00    +0.186 C 
ATOM      5  C   UNL     1     -35.062  23.656   6.053  0.00  0.00    +0.141 C 
ATOM      6  C   UNL     1     -35.124  23.122   2.907  0.00  0.00    +0.078 C 
ATOM      7  C   UNL     1     -35.235  21.856   3.507  0.00  0.00    +0.142 C 
ATOM      8  C   UNL     1     -34.466  26.491   3.966  0.00  0.00    +0.177 C 
ATOM      9  C   UNL     1     -35.935  22.490   5.650  0.00  0.00    +0.227 C 
ATOM     10  C   UNL     1     -34.586  25.933   5.210  0.00  0.00    +0.157 C 
ATOM     11  C   UNL     1     -35.453  20.785   1.334  0.00  0.00    +0.006 C 
ATOM     12  C   UNL     1     -35.375  20.700   2.720  0.00  0.00    +0.037 C 
ATOM     13  C   UNL     1     -35.210  23.177   1.498  0.00  0.00    +0.007 C 
ATOM     14  C   UNL     1     -35.377  22.026   0.723  0.00  0.00    +0.000 C 
ENDROOT
BRANCH   8  18
ATOM     15  N   UNL     1     -33.048  28.505   4.076  0.00  0.00    -0.175 N 
ATOM     16  N   UNL     1     -35.078  28.694   3.039  0.00  0.00    -0.334 NA
ATOM     17  N   UNL     1     -33.255  29.749   3.621  0.00  0.00    -0.114 NA
ATOM     18  C   UNL     1     -34.179  27.905   3.699  0.00  0.00    +0.241 C 
ATOM     19  C   UNL     1     -34.464  29.854   3.006  0.00  0.00    +0.082 C 
ATOM     20  C   UNL     1     -34.979  31.081   2.404  0.00  0.00    +0.131 C 
BRANCH  15  21
ATOM     21  C   UNL     1     -31.864  28.087   4.765  0.00  0.00    +0.100 C 
ATOM     22  C   UNL     1     -30.597  28.470   3.994  0.00  0.00    +0.024 C 
ATOM     23  C   UNL     1     -31.819  28.636   6.193  0.00  0.00    +0.024 C 
ENDBRANCH  15  21
ENDBRANCH   8  18
BRANCH  11  26
ATOM     24  N   UNL     1     -36.541  17.919  -0.501  0.00  0.00    -0.205 N 
ATOM     25  N   UNL     1     -35.230  17.749  -0.742  0.00  0.00    -0.176 NA
ATOM     26  C   UNL     1     -35.611  19.596   0.545  0.00  0.00    +0.037 C 
ATOM     27  C   UNL     1     -36.823  19.012   0.266  0.00  0.00    +0.086 C 
ATOM     28  C   UNL     1     -34.668  18.776  -0.101  0.00  0.00    +0.119 C 
BRANCH  24  29
ATOM     29  C   UNL     1     -37.497  16.983  -1.042  0.00  0.00    +0.147 C 
ATOM     30  C   UNL     1     -38.932  17.539  -1.183  0.00  0.00    +0.031 C 
ATOM     31  C   UNL     1     -37.029  16.581  -2.459  0.00  0.00    +0.031 C 
BRANCH  29  34
ATOM     32  O   UNL     1     -38.615  15.074  -0.001  0.00  0.00    -0.274 OA
ATOM     33  N   UNL     1     -36.394  15.378   0.462  0.00  0.00    -0.327 N 
ATOM     34  C   UNL     1     -37.581  15.721  -0.154  0.00  0.00    +0.237 C 
ATOM     35  H   UNL     1     -36.354  14.587   1.047  0.00  0.00    +0.145 HD
ATOM     36  H   UNL     1     -35.588  15.924   0.316  0.00  0.00    +0.145 HD
ENDBRANCH  29  34
ENDBRANCH  24  29
ENDBRANCH  11  26
TORSDOF 5
ENDMDL
MODEL 3
REMARK VINA RESULT:      -7.5      4.739      7.825
REMARK  Name = 51001932
REMARK  5 active torsions:
REMARK  status: ('A' for Active; 'I' for Inactive)
REMARK    1  A    between atoms: C_8  and  C_18
REMARK    2  A    between atoms: C_11  and  C_26
REMARK    3  A    between atoms: N_15  and  C_21
REMARK    4  A    between atoms: N_24  and  C_29
REMARK    5  A    between atoms: C_29  and  C_34
REMARK                            x       y       z     vdW  Elec       q    Type
REMARK                         _______ _______ _______ _____ _____    ______ ____
ROOT
ATOM      1  O   UNL     1     -33.014  17.729   0.982  0.00  0.00    -0.473 OA
ATOM      2  N   UNL     1     -34.555  15.725  -0.693  0.00  0.00    -0.273 N 
ATOM      3  N   UNL     1     -36.617  16.370  -1.135  0.00  0.00    -0.385 NA
ATOM      4  C   UNL     1     -35.471  16.752  -0.580  0.00  0.00    +0.186 C 
ATOM      5  C   UNL     1     -33.178  15.685  -0.244  0.00  0.00    +0.141 C 
ATOM      6  C   UNL     1     -35.271  18.077   0.042  0.00  0.00    +0.078 C 
ATOM      7  C   UNL     1     -34.135  18.482   0.764  0.00  0.00    +0.142 C 
ATOM      8  C   UNL     1     -36.430  15.096  -1.593  0.00  0.00    +0.177 C 
ATOM      9  C   UNL     1     -32.536  17.052  -0.175  0.00  0.00    +0.227 C 
ATOM     10  C   UNL     1     -35.157  14.671  -1.327  0.00  0.00    +0.157 C 
ATOM     11  C   UNL     1     -35.156  20.630   1.273  0.00  0.00    +0.006 C 
ATOM     12  C   UNL     1     -34.094  19.740   1.390  0.00  0.00    +0.037 C 
ATOM     13  C   UNL     1     -36.332  19.004  -0.062  0.00  0.00    +0.007 C 
ATOM     14  C   UNL     1     -36.274  20.264   0.540  0.00  0.00    +0.000 C 
ENDROOT
BRANCH   8  18
ATOM     15  N   UNL     1     -38.722  14.221  -1.840  0.00  0.00    -0.175 N 
ATOM     16  N   UNL     1     -37.173  13.591  -3.401  0.00  0.00    -0.334 NA
ATOM     17  N   UNL     1     -39.254  13.405  -2.762  0.00  0.00    -0.114 NA
ATOM     18  C   UNL     1     -37.462  14.303  -2.271  0.00  0.00    +0.241 C 
ATOM     19  C   UNL     1     -38.328  13.035  -3.686  0.00  0.00    +0.082 C 
ATOM     20  C   UNL     1     -38.599  12.153  -4.818  0.00  0.00    +0.131 C 
BRANCH  15  21
ATOM     21  C   UNL     1     -39.452  14.779  -0.741  0.00  0.00    +0.100 C 
ATOM     22  C   UNL     1     -40.180  16.065  -1.143  0.00  0.00    +0.024 C 
ATOM     23  C   UNL     1     -40.429  13.765  -0.141  0.00  0.00    +0.024 C 
ENDBRANCH  15  21
ENDBRANCH   8  18
BRANCH  11  26
ATOM     24  N   UNL     1     -35.179  23.473   3.436  0.00  0.00    -0.205 N 
ATOM     25  N   UNL     1     -34.843  24.148   2.324  0.00  0.00    -0.176 NA
ATOM     26  C   UNL     1     -35.093  21.917   1.906  0.00  0.00    +0.037 C 
ATOM     27  C   UNL     1     -35.340  22.132   3.240  0.00  0.00    +0.086 C 
ATOM     28  C   UNL     1     -34.793  23.193   1.393  0.00  0.00    +0.119 C 
BRANCH  24  29
ATOM     29  C   UNL     1     -35.333  24.180   4.685  0.00  0.00    +0.147 C 
ATOM     30  C   UNL     1     -35.421  23.271   5.932  0.00  0.00    +0.031 C 
ATOM     31  C   UNL     1     -34.100  25.091   4.879  0.00  0.00    +0.031 C 
BRANCH  29  34
ATOM     32  O   UNL     1     -37.676  24.664   4.180  0.00  0.00    -0.274 OA
ATOM     33  N   UNL     1     -36.460  26.300   5.220  0.00  0.00    -0.327 N 
ATOM     34  C   UNL     1     -36.611  25.048   4.660  0.00  0.00    +0.237 C 
ATOM     35  H   UNL     1     -37.223  26.922   5.248  0.00  0.00    +0.145 HD
ATOM     36  H   UNL     1     -35.590  26.571   5.592  0.00  0.00    +0.145 HD
ENDBRANCH  29  34
ENDBRANCH  24  29
ENDBRANCH  11  26
TORSDOF 5
ENDMDL
MODEL 4
REMARK VINA RESULT:      -7.4      4.172      7.331
REMARK  Name = 51001932
REMARK  5 active torsions:
REMARK  status: ('A' for Active; 'I' for Inactive)
REMARK    1  A    between atoms: C_8  and  C_18
REMARK    2  A    between atoms: C_11  and  C_26
REMARK    3  A    between atoms: N_15  and  C_21
REMARK    4  A    between atoms: N_24  and  C_29
REMARK    5  A    between atoms: C_29  and  C_34
REMARK                            x       y       z     vdW  Elec       q    Type
REMARK                         _______ _______ _______ _____ _____    ______ ____
ROOT
ATOM      1  O   UNL     1     -38.257  25.645   3.156  0.00  0.00    -0.473 OA
ATOM      2  N   UNL     1     -38.790  23.035   1.707  0.00  0.00    -0.273 N 
ATOM      3  N   UNL     1     -36.993  21.772   1.509  0.00  0.00    -0.385 NA
ATOM      4  C   UNL     1     -37.459  22.893   2.048  0.00  0.00    +0.186 C 
ATOM      5  C   UNL     1     -39.712  24.091   2.071  0.00  0.00    +0.141 C 
ATOM      6  C   UNL     1     -36.637  23.803   2.871  0.00  0.00    +0.078 C 
ATOM      7  C   UNL     1     -37.034  25.064   3.348  0.00  0.00    +0.142 C 
ATOM      8  C   UNL     1     -38.026  21.205   0.817  0.00  0.00    +0.177 C 
ATOM      9  C   UNL     1     -39.356  24.767   3.375  0.00  0.00    +0.227 C 
ATOM     10  C   UNL     1     -39.154  21.972   0.922  0.00  0.00    +0.157 C 
ATOM     11  C   UNL     1     -34.840  25.447   4.326  0.00  0.00    +0.006 C 
ATOM     12  C   UNL     1     -36.131  25.883   4.048  0.00  0.00    +0.037 C 
ATOM     13  C   UNL     1     -35.321  23.386   3.172  0.00  0.00    +0.007 C 
ATOM     14  C   UNL     1     -34.436  24.194   3.893  0.00  0.00    +0.000 C 
ENDROOT
BRANCH   8  18
ATOM     15  N   UNL     1     -36.764  19.365  -0.232  0.00  0.00    -0.175 N 
ATOM     16  N   UNL     1     -39.045  19.300  -0.375  0.00  0.00    -0.334 NA
ATOM     17  N   UNL     1     -37.185  18.283  -0.903  0.00  0.00    -0.114 NA
ATOM     18  C   UNL     1     -37.927  19.947   0.067  0.00  0.00    +0.241 C 
ATOM     19  C   UNL     1     -38.542  18.252  -0.984  0.00  0.00    +0.082 C 
ATOM     20  C   UNL     1     -39.303  17.199  -1.651  0.00  0.00    +0.131 C 
BRANCH  15  21
ATOM     21  C   UNL     1     -35.387  19.671   0.019  0.00  0.00    +0.100 C 
ATOM     22  C   UNL     1     -34.561  18.403   0.254  0.00  0.00    +0.024 C 
ATOM     23  C   UNL     1     -34.782  20.513  -1.106  0.00  0.00    +0.024 C 
ENDBRANCH  15  21
ENDBRANCH   8  18
BRANCH  11  26
ATOM     24  N   UNL     1     -32.420  27.799   5.498  0.00  0.00    -0.205 N 
ATOM     25  N   UNL     1     -32.734  27.309   6.709  0.00  0.00    -0.176 NA
ATOM     26  C   UNL     1     -33.934  26.288   5.055  0.00  0.00    +0.037 C 
ATOM     27  C   UNL     1     -33.111  27.221   4.473  0.00  0.00    +0.086 C 
ATOM     28  C   UNL     1     -33.659  26.386   6.432  0.00  0.00    +0.119 C 
BRANCH  24  29
ATOM     29  C   UNL     1     -31.429  28.842   5.382  0.00  0.00    +0.147 C 
ATOM     30  C   UNL     1     -31.317  29.468   3.973  0.00  0.00    +0.031 C 
ATOM     31  C   UNL     1     -31.814  29.982   6.352  0.00  0.00    +0.031 C 
BRANCH  29  34
ATOM     32  O   UNL     1     -29.285  27.750   4.949  0.00  0.00    -0.274 OA
ATOM     33  N   UNL     1     -29.683  28.489   7.078  0.00  0.00    -0.327 N 
ATOM     34  C   UNL     1     -30.030  28.303   5.756  0.00  0.00    +0.237 C 
ATOM     35  H   UNL     1     -28.808  28.177   7.407  0.00  0.00    +0.145 HD
ATOM     36  H   UNL     1     -30.309  28.934   7.694  0.00  0.00    +0.145 HD
ENDBRANCH  29  34
ENDBRANCH  24  29
ENDBRANCH  11  26
TORSDOF 5
ENDMDL
MODEL 5
REMARK VINA RESULT:      -7.4      3.007     11.676
REMARK  Name = 51001932
REMARK  5 active torsions:
REMARK  status: ('A' for Active; 'I' for Inactive)
REMARK    1  A    between atoms: C_8  and  C_18
REMARK    2  A    between atoms: C_11  and  C_26
REMARK    3  A    between atoms: N_15  and  C_21
REMARK    4  A    between atoms: N_24  and  C_29
REMARK    5  A    between atoms: C_29  and  C_34
REMARK                            x       y       z     vdW  Elec       q    Type
REMARK                         _______ _______ _______ _____ _____    ______ ____
ROOT
ATOM      1  O   UNL     1     -43.602  25.860   0.903  0.00  0.00    -0.473 OA
ATOM      2  N   UNL     1     -44.833  28.291   2.232  0.00  0.00    -0.273 N 
ATOM      3  N   UNL     1     -43.768  28.909   4.062  0.00  0.00    -0.385 NA
ATOM      4  C   UNL     1     -43.733  28.065   3.037  0.00  0.00    +0.186 C 
ATOM      5  C   UNL     1     -45.210  27.624   1.003  0.00  0.00    +0.141 C 
ATOM      6  C   UNL     1     -42.662  27.067   2.842  0.00  0.00    +0.078 C 
ATOM      7  C   UNL     1     -42.646  26.061   1.860  0.00  0.00    +0.142 C 
ATOM      8  C   UNL     1     -44.897  29.667   3.914  0.00  0.00    +0.177 C 
ATOM      9  C   UNL     1     -44.031  27.052   0.252  0.00  0.00    +0.227 C 
ATOM     10  C   UNL     1     -45.577  29.300   2.785  0.00  0.00    +0.157 C 
ATOM     11  C   UNL     1     -40.561  25.163   2.735  0.00  0.00    +0.006 C 
ATOM     12  C   UNL     1     -41.614  25.108   1.827  0.00  0.00    +0.037 C 
ATOM     13  C   UNL     1     -41.579  27.100   3.747  0.00  0.00    +0.007 C 
ATOM     14  C   UNL     1     -40.541  26.165   3.693  0.00  0.00    +0.000 C 
ENDROOT
BRANCH   8  18
ATOM     15  N   UNL     1     -45.148  30.637   6.167  0.00  0.00    -0.175 N 
ATOM     16  N   UNL     1     -45.900  31.869   4.393  0.00  0.00    -0.334 NA
ATOM     17  N   UNL     1     -45.669  31.807   6.564  0.00  0.00    -0.114 NA
ATOM     18  C   UNL     1     -45.311  30.723   4.845  0.00  0.00    +0.241 C 
ATOM     19  C   UNL     1     -46.114  32.534   5.505  0.00  0.00    +0.082 C 
ATOM     20  C   UNL     1     -46.730  33.853   5.611  0.00  0.00    +0.131 C 
BRANCH  15  21
ATOM     21  C   UNL     1     -44.596  29.658   7.055  0.00  0.00    +0.100 C 
ATOM     22  C   UNL     1     -43.895  30.311   8.249  0.00  0.00    +0.024 C 
ATOM     23  C   UNL     1     -45.658  28.662   7.526  0.00  0.00    +0.024 C 
ENDBRANCH  15  21
ENDBRANCH   8  18
BRANCH  11  26
ATOM     24  N   UNL     1     -37.557  23.241   2.938  0.00  0.00    -0.205 N 
ATOM     25  N   UNL     1     -38.277  22.306   2.296  0.00  0.00    -0.176 NA
ATOM     26  C   UNL     1     -39.507  24.191   2.680  0.00  0.00    +0.037 C 
ATOM     27  C   UNL     1     -38.248  24.390   3.193  0.00  0.00    +0.086 C 
ATOM     28  C   UNL     1     -39.466  22.892   2.140  0.00  0.00    +0.119 C 
BRANCH  24  29
ATOM     29  C   UNL     1     -36.184  22.973   3.291  0.00  0.00    +0.147 C 
ATOM     30  C   UNL     1     -35.714  21.531   2.993  0.00  0.00    +0.031 C 
ATOM     31  C   UNL     1     -35.280  23.920   2.467  0.00  0.00    +0.031 C 
BRANCH  29  34
ATOM     32  O   UNL     1     -35.728  24.344   5.263  0.00  0.00    -0.274 OA
ATOM     33  N   UNL     1     -36.011  22.096   5.582  0.00  0.00    -0.327 N 
ATOM     34  C   UNL     1     -35.952  23.228   4.797  0.00  0.00    +0.237 C 
ATOM     35  H   UNL     1     -35.875  22.163   6.556  0.00  0.00    +0.145 HD
ATOM     36  H   UNL     1     -36.190  21.219   5.170  0.00  0.00    +0.145 HD
ENDBRANCH  29  34
ENDBRANCH  24  29
ENDBRANCH  11  26
TORSDOF 5
ENDMDL
MODEL 6
REMARK VINA RESULT:      -7.3      5.520      6.706
REMARK  Name = 51001932
REMARK  5 active torsions:
REMARK  status: ('A' for Active; 'I' for Inactive)
REMARK    1  A    between atoms: C_8  and  C_18
REMARK    2  A    between atoms: C_11  and  C_26
REMARK    3  A    between atoms: N_15  and  C_21
REMARK    4  A    between atoms: N_24  and  C_29
REMARK    5  A    between atoms: C_29  and  C_34
REMARK                            x       y       z     vdW  Elec       q    Type
REMARK                         _______ _______ _______ _____ _____    ______ ____
ROOT
ATOM      1  O   UNL     1     -33.687  30.154   3.754  0.00  0.00    -0.473 OA
ATOM      2  N   UNL     1     -33.545  27.140   3.454  0.00  0.00    -0.273 N 
ATOM      3  N   UNL     1     -35.213  26.307   2.276  0.00  0.00    -0.385 NA
ATOM      4  C   UNL     1     -34.655  27.440   2.690  0.00  0.00    +0.186 C 
ATOM      5  C   UNL     1     -32.621  28.045   4.107  0.00  0.00    +0.141 C 
ATOM      6  C   UNL     1     -35.184  28.777   2.353  0.00  0.00    +0.078 C 
ATOM      7  C   UNL     1     -34.723  29.998   2.874  0.00  0.00    +0.142 C 
ATOM      8  C   UNL     1     -34.461  25.285   2.786  0.00  0.00    +0.177 C 
ATOM      9  C   UNL     1     -32.530  29.391   3.427  0.00  0.00    +0.227 C 
ATOM     10  C   UNL     1     -33.419  25.777   3.524  0.00  0.00    +0.157 C 
ATOM     11  C   UNL     1     -36.442  31.226   1.669  0.00  0.00    +0.006 C 
ATOM     12  C   UNL     1     -35.365  31.205   2.549  0.00  0.00    +0.037 C 
ATOM     13  C   UNL     1     -36.278  28.831   1.460  0.00  0.00    +0.007 C 
ATOM     14  C   UNL     1     -36.896  30.037   1.119  0.00  0.00    +0.000 C 
ENDROOT
BRANCH   8  18
ATOM     15  N   UNL     1     -34.963  22.999   3.558  0.00  0.00    -0.175 N 
ATOM     16  N   UNL     1     -34.790  23.341   1.303  0.00  0.00    -0.334 NA
ATOM     17  N   UNL     1     -35.162  21.865   2.870  0.00  0.00    -0.114 NA
ATOM     18  C   UNL     1     -34.743  23.862   2.565  0.00  0.00    +0.241 C 
ATOM     19  C   UNL     1     -35.058  22.076   1.531  0.00  0.00    +0.082 C 
ATOM     20  C   UNL     1     -35.225  21.038   0.518  0.00  0.00    +0.131 C 
BRANCH  15  21
ATOM     21  C   UNL     1     -35.013  23.093   4.987  0.00  0.00    +0.100 C 
ATOM     22  C   UNL     1     -36.050  24.120   5.449  0.00  0.00    +0.024 C 
ATOM     23  C   UNL     1     -35.271  21.730   5.633  0.00  0.00    +0.024 C 
ENDBRANCH  15  21
ENDBRANCH   8  18
BRANCH  11  26
ATOM     24  N   UNL     1     -38.630  33.963   0.971  0.00  0.00    -0.205 N 
ATOM     25  N   UNL     1     -37.490  34.629   0.719  0.00  0.00    -0.176 NA
ATOM     26  C   UNL     1     -37.079  32.468   1.335  0.00  0.00    +0.037 C 
ATOM     27  C   UNL     1     -38.439  32.664   1.344  0.00  0.00    +0.086 C 
ATOM     28  C   UNL     1     -36.547  33.711   0.943  0.00  0.00    +0.119 C 
BRANCH  24  29
ATOM     29  C   UNL     1     -39.898  34.637   0.835  0.00  0.00    +0.147 C 
ATOM     30  C   UNL     1     -39.835  35.980   0.074  0.00  0.00    +0.031 C 
ATOM     31  C   UNL     1     -40.851  33.714   0.040  0.00  0.00    +0.031 C 
BRANCH  29  34
ATOM     32  O   UNL     1     -41.676  34.667   2.513  0.00  0.00    -0.274 OA
ATOM     33  N   UNL     1     -39.636  35.506   3.121  0.00  0.00    -0.327 N 
ATOM     34  C   UNL     1     -40.509  34.926   2.225  0.00  0.00    +0.237 C 
ATOM     35  H   UNL     1     -39.939  35.725   4.032  0.00  0.00    +0.145 HD
ATOM     36  H   UNL     1     -38.709  35.700   2.851  0.00  0.00    +0.145 HD
ENDBRANCH  29  34
ENDBRANCH  24  29
ENDBRANCH  11  26
TORSDOF 5
ENDMDL
MODEL 7
REMARK VINA RESULT:      -7.3      2.449      4.355
REMARK  Name = 51001932
REMARK  5 active torsions:
REMARK  status: ('A' for Active; 'I' for Inactive)
REMARK    1  A    between atoms: C_8  and  C_18
REMARK    2  A    between atoms: C_11  and  C_26
REMARK    3  A    between atoms: N_15  and  C_21
REMARK    4  A    between atoms: N_24  and  C_29
REMARK    5  A    between atoms: C_29  and  C_34
REMARK                            x       y       z     vdW  Elec       q    Type
REMARK                         _______ _______ _______ _____ _____    ______ ____
ROOT
ATOM      1  O   UNL     1     -40.478  26.489  -0.125  0.00  0.00    -0.473 OA
ATOM      2  N   UNL     1     -38.502  24.422   0.883  0.00  0.00    -0.273 N 
ATOM      3  N   UNL     1     -38.504  24.221   3.080  0.00  0.00    -0.385 NA
ATOM      4  C   UNL     1     -39.112  24.816   2.059  0.00  0.00    +0.186 C 
ATOM      5  C   UNL     1     -38.825  24.801  -0.477  0.00  0.00    +0.141 C 
ATOM      6  C   UNL     1     -40.253  25.740   2.218  0.00  0.00    +0.078 C 
ATOM      7  C   UNL     1     -40.842  26.501   1.194  0.00  0.00    +0.142 C 
ATOM      8  C   UNL     1     -37.501  23.456   2.553  0.00  0.00    +0.177 C 
ATOM      9  C   UNL     1     -40.275  25.185  -0.658  0.00  0.00    +0.227 C 
ATOM     10  C   UNL     1     -37.477  23.566   1.190  0.00  0.00    +0.157 C 
ATOM     11  C   UNL     1     -42.356  27.560   2.777  0.00  0.00    +0.006 C 
ATOM     12  C   UNL     1     -41.868  27.418   1.482  0.00  0.00    +0.037 C 
ATOM     13  C   UNL     1     -40.772  25.904   3.522  0.00  0.00    +0.007 C 
ATOM     14  C   UNL     1     -41.811  26.797   3.797  0.00  0.00    +0.000 C 
ENDROOT
BRANCH   8  18
ATOM     15  N   UNL     1     -35.900  21.605   2.850  0.00  0.00    -0.175 N 
ATOM     16  N   UNL     1     -36.380  22.893   4.678  0.00  0.00    -0.334 NA
ATOM     17  N   UNL     1     -35.228  21.192   3.934  0.00  0.00    -0.114 NA
ATOM     18  C   UNL     1     -36.582  22.636   3.351  0.00  0.00    +0.241 C 
ATOM     19  C   UNL     1     -35.517  21.963   5.016  0.00  0.00    +0.082 C 
ATOM     20  C   UNL     1     -34.943  21.768   6.344  0.00  0.00    +0.131 C 
BRANCH  15  21
ATOM     21  C   UNL     1     -35.800  20.992   1.559  0.00  0.00    +0.100 C 
ATOM     22  C   UNL     1     -34.413  20.383   1.330  0.00  0.00    +0.024 C 
ATOM     23  C   UNL     1     -36.895  19.946   1.344  0.00  0.00    +0.024 C 
ENDBRANCH  15  21
ENDBRANCH   8  18
BRANCH  11  26
ATOM     24  N   UNL     1     -44.701  29.899   4.114  0.00  0.00    -0.205 N 
ATOM     25  N   UNL     1     -45.242  29.849   2.885  0.00  0.00    -0.176 NA
ATOM     26  C   UNL     1     -43.414  28.490   3.052  0.00  0.00    +0.037 C 
ATOM     27  C   UNL     1     -43.603  29.104   4.267  0.00  0.00    +0.086 C 
ATOM     28  C   UNL     1     -44.452  28.986   2.241  0.00  0.00    +0.119 C 
BRANCH  24  29
ATOM     29  C   UNL     1     -45.292  30.746   5.122  0.00  0.00    +0.147 C 
ATOM     30  C   UNL     1     -46.425  31.664   4.609  0.00  0.00    +0.031 C 
ATOM     31  C   UNL     1     -45.907  29.839   6.213  0.00  0.00    +0.031 C 
BRANCH  29  34
ATOM     32  O   UNL     1     -43.759  32.649   5.199  0.00  0.00    -0.274 OA
ATOM     33  N   UNL     1     -43.811  31.261   7.018  0.00  0.00    -0.327 N 
ATOM     34  C   UNL     1     -44.219  31.656   5.761  0.00  0.00    +0.237 C 
ATOM     35  H   UNL     1     -43.130  31.782   7.502  0.00  0.00    +0.145 HD
ATOM     36  H   UNL     1     -44.202  30.458   7.433  0.00  0.00    +0.145 HD
ENDBRANCH  29  34
ENDBRANCH  24  29
ENDBRANCH  11  26
TORSDOF 5
ENDMDL
MODEL 8
REMARK VINA RESULT:      -7.2      2.795     11.670
REMARK  Name = 51001932
REMARK  5 active torsions:
REMARK  status: ('A' for Active; 'I' for Inactive)
REMARK    1  A    between atoms: C_8  and  C_18
REMARK    2  A    between atoms: C_11  and  C_26
REMARK    3  A    between atoms: N_15  and  C_21
REMARK    4  A    between atoms: N_24  and  C_29
REMARK    5  A    between atoms: C_29  and  C_34
REMARK                            x       y       z     vdW  Elec       q    Type
REMARK                         _______ _______ _______ _____ _____    ______ ____
ROOT
ATOM      1  O   UNL     1     -43.055  25.924   0.650  0.00  0.00    -0.473 OA
ATOM      2  N   UNL     1     -44.322  28.205   2.196  0.00  0.00    -0.273 N 
ATOM      3  N   UNL     1     -43.418  28.511   4.184  0.00  0.00    -0.385 NA
ATOM      4  C   UNL     1     -43.314  27.816   3.056  0.00  0.00    +0.186 C 
ATOM      5  C   UNL     1     -44.602  27.733   0.855  0.00  0.00    +0.141 C 
ATOM      6  C   UNL     1     -42.265  26.803   2.819  0.00  0.00    +0.078 C 
ATOM      7  C   UNL     1     -42.190  25.944   1.710  0.00  0.00    +0.142 C 
ATOM      8  C   UNL     1     -44.500  29.335   4.044  0.00  0.00    +0.177 C 
ATOM      9  C   UNL     1     -43.376  27.214   0.140  0.00  0.00    +0.227 C 
ATOM     10  C   UNL     1     -45.081  29.162   2.817  0.00  0.00    +0.157 C 
ATOM     11  C   UNL     1     -40.232  24.834   2.633  0.00  0.00    +0.006 C 
ATOM     12  C   UNL     1     -41.193  24.956   1.635  0.00  0.00    +0.037 C 
ATOM     13  C   UNL     1     -41.274  26.658   3.815  0.00  0.00    +0.007 C 
ATOM     14  C   UNL     1     -40.269  25.691   3.722  0.00  0.00    +0.000 C 
ENDROOT
BRANCH   8  18
ATOM     15  N   UNL     1     -44.982  31.595   4.905  0.00  0.00    -0.175 N 
ATOM     16  N   UNL     1     -45.407  29.821   6.286  0.00  0.00    -0.334 NA
ATOM     17  N   UNL     1     -45.469  31.996   6.088  0.00  0.00    -0.114 NA
ATOM     18  C   UNL     1     -44.964  30.271   5.074  0.00  0.00    +0.241 C 
ATOM     19  C   UNL     1     -45.719  30.937   6.903  0.00  0.00    +0.082 C 
ATOM     20  C   UNL     1     -46.255  31.048   8.257  0.00  0.00    +0.131 C 
BRANCH  15  21
ATOM     21  C   UNL     1     -44.626  32.481   3.838  0.00  0.00    +0.100 C 
ATOM     22  C   UNL     1     -45.820  32.774   2.925  0.00  0.00    +0.024 C 
ATOM     23  C   UNL     1     -44.013  33.780   4.365  0.00  0.00    +0.024 C 
ENDBRANCH  15  21
ENDBRANCH   8  18
BRANCH  11  26
ATOM     24  N   UNL     1     -37.292  22.807   2.739  0.00  0.00    -0.205 N 
ATOM     25  N   UNL     1     -38.052  21.914   2.083  0.00  0.00    -0.176 NA
ATOM     26  C   UNL     1     -39.212  23.829   2.536  0.00  0.00    +0.037 C 
ATOM     27  C   UNL     1     -37.940  23.971   3.034  0.00  0.00    +0.086 C 
ATOM     28  C   UNL     1     -39.224  22.544   1.961  0.00  0.00    +0.119 C 
BRANCH  24  29
ATOM     29  C   UNL     1     -35.924  22.483   3.062  0.00  0.00    +0.147 C 
ATOM     30  C   UNL     1     -35.588  20.976   3.002  0.00  0.00    +0.031 C 
ATOM     31  C   UNL     1     -35.006  23.190   2.038  0.00  0.00    +0.031 C 
BRANCH  29  34
ATOM     32  O   UNL     1     -34.965  24.020   4.704  0.00  0.00    -0.274 OA
ATOM     33  N   UNL     1     -35.997  22.137   5.496  0.00  0.00    -0.327 N 
ATOM     34  C   UNL     1     -35.573  22.974   4.485  0.00  0.00    +0.237 C 
ATOM     35  H   UNL     1     -35.817  22.370   6.436  0.00  0.00    +0.145 HD
ATOM     36  H   UNL     1     -36.479  21.307   5.279  0.00  0.00    +0.145 HD
ENDBRANCH  29  34
ENDBRANCH  24  29
ENDBRANCH  11  26
TORSDOF 5
ENDMDL
MODEL 9
REMARK VINA RESULT:      -7.2      4.623     12.384
REMARK  Name = 51001932
REMARK  5 active torsions:
REMARK  status: ('A' for Active; 'I' for Inactive)
REMARK    1  A    between atoms: C_8  and  C_18
REMARK    2  A    between atoms: C_11  and  C_26
REMARK    3  A    between atoms: N_15  and  C_21
REMARK    4  A    between atoms: N_24  and  C_29
REMARK    5  A    between atoms: C_29  and  C_34
REMARK                            x       y       z     vdW  Elec       q    Type
REMARK                         _______ _______ _______ _____ _____    ______ ____
ROOT
ATOM      1  O   UNL     1     -32.056  21.367  -1.398  0.00  0.00    -0.473 OA
ATOM      2  N   UNL     1     -33.994  23.086   0.179  0.00  0.00    -0.273 N 
ATOM      3  N   UNL     1     -35.068  21.965   1.745  0.00  0.00    -0.385 NA
ATOM      4  C   UNL     1     -34.110  21.873   0.829  0.00  0.00    +0.186 C 
ATOM      5  C   UNL     1     -33.083  23.462  -0.883  0.00  0.00    +0.141 C 
ATOM      6  C   UNL     1     -33.329  20.642   0.590  0.00  0.00    +0.078 C 
ATOM      7  C   UNL     1     -32.407  20.444  -0.452  0.00  0.00    +0.142 C 
ATOM      8  C   UNL     1     -35.567  23.235   1.671  0.00  0.00    +0.177 C 
ATOM      9  C   UNL     1     -31.799  22.665  -0.873  0.00  0.00    +0.227 C 
ATOM     10  C   UNL     1     -34.917  23.951   0.703  0.00  0.00    +0.157 C 
ATOM     11  C   UNL     1     -32.038  18.141   0.239  0.00  0.00    +0.006 C 
ATOM     12  C   UNL     1     -31.788  19.195  -0.633  0.00  0.00    +0.037 C 
ATOM     13  C   UNL     1     -33.559  19.554   1.462  0.00  0.00    +0.007 C 
ATOM     14  C   UNL     1     -32.920  18.323   1.292  0.00  0.00    +0.000 C 
ENDROOT
BRANCH   8  18
ATOM     15  N   UNL     1     -36.488  24.061   3.804  0.00  0.00    -0.175 N 
ATOM     16  N   UNL     1     -37.910  23.929   2.017  0.00  0.00    -0.334 NA
ATOM     17  N   UNL     1     -37.725  24.465   4.127  0.00  0.00    -0.114 NA
ATOM     18  C   UNL     1     -36.651  23.748   2.517  0.00  0.00    +0.241 C 
ATOM     19  C   UNL     1     -38.564  24.384   3.060  0.00  0.00    +0.082 C 
ATOM     20  C   UNL     1     -39.976  24.754   3.093  0.00  0.00    +0.131 C 
BRANCH  15  21
ATOM     21  C   UNL     1     -35.385  24.036   4.717  0.00  0.00    +0.100 C 
ATOM     22  C   UNL     1     -35.301  25.328   5.535  0.00  0.00    +0.024 C 
ATOM     23  C   UNL     1     -35.440  22.813   5.635  0.00  0.00    +0.024 C 
ENDBRANCH  15  21
ENDBRANCH   8  18
BRANCH  11  26
ATOM     24  N   UNL     1     -31.033  14.802  -0.537  0.00  0.00    -0.205 N 
ATOM     25  N   UNL     1     -29.874  15.164   0.039  0.00  0.00    -0.176 NA
ATOM     26  C   UNL     1     -31.387  16.876   0.050  0.00  0.00    +0.037 C 
ATOM     27  C   UNL     1     -31.973  15.790  -0.557  0.00  0.00    +0.086 C 
ATOM     28  C   UNL     1     -30.096  16.432   0.395  0.00  0.00    +0.119 C 
BRANCH  24  29
ATOM     29  C   UNL     1     -31.185  13.466  -1.062  0.00  0.00    +0.147 C 
ATOM     30  C   UNL     1     -32.634  13.084  -1.438  0.00  0.00    +0.031 C 
ATOM     31  C   UNL     1     -30.341  13.357  -2.354  0.00  0.00    +0.031 C 
BRANCH  29  34
ATOM     32  O   UNL     1     -30.037  11.427  -0.354  0.00  0.00    -0.274 OA
ATOM     33  N   UNL     1     -31.036  12.695   1.269  0.00  0.00    -0.327 N 
ATOM     34  C   UNL     1     -30.687  12.422  -0.038  0.00  0.00    +0.237 C 
ATOM     35  H   UNL     1     -30.761  12.083   1.990  0.00  0.00    +0.145 HD
ATOM     36  H   UNL     1     -31.559  13.501   1.480  0.00  0.00    +0.145 HD
ENDBRANCH  29  34
ENDBRANCH  24  29
ENDBRANCH  11  26
TORSDOF 5
ENDMDL
