MODEL 1
REMARK VINA RESULT:      -7.1      0.000      0.000
REMARK  Name = 5342077
REMARK  6 active torsions:
REMARK  status: ('A' for Active; 'I' for Inactive)
REMARK    1  A    between atoms: C_2  and  C_13
REMARK    2  A    between atoms: C_3  and  C_21
REMARK    3  A    between atoms: N_9  and  C_14
REMARK    4  A    between atoms: C_14  and  C_15
REMARK    5  A    between atoms: C_24  and  C_28
REMARK    6  A    between atoms: C_28  and  O_29
REMARK                            x       y       z     vdW  Elec       q    Type
REMARK                         _______ _______ _______ _____ _____    ______ ____
ROOT
ATOM      1  O   UNL     1     -34.238  24.791   4.666  0.00  0.00    -0.453 OA
ATOM      2  C   UNL     1     -35.386  24.146   4.496  0.00  0.00    +0.146 C 
ATOM      3  C   UNL     1     -34.596  25.978   5.221  0.00  0.00    +0.145 C 
ATOM      4  C   UNL     1     -36.473  24.816   4.899  0.00  0.00    +0.041 C 
ATOM      5  C   UNL     1     -35.960  26.043   5.386  0.00  0.00    +0.041 C 
ENDROOT
BRANCH   2  13
ATOM      6  S   UNL     1     -34.860  23.643   1.379  0.00  0.00    -0.060 S 
ATOM      7  S   UNL     1     -34.418  22.766  -1.464  0.00  0.00    -0.027 S 
ATOM      8  O   UNL     1     -35.407  20.136   2.781  0.00  0.00    -0.269 OA
ATOM      9  N   UNL     1     -34.941  21.154   0.713  0.00  0.00    -0.240 N 
ATOM     10  C   UNL     1     -35.196  21.121   2.086  0.00  0.00    +0.260 C 
ATOM     11  C   UNL     1     -35.179  22.503   2.621  0.00  0.00    +0.088 C 
ATOM     12  C   UNL     1     -34.736  22.401   0.136  0.00  0.00    +0.121 C 
ATOM     13  C   UNL     1     -35.389  22.794   3.905  0.00  0.00    +0.049 C 
BRANCH   9  14
ATOM     14  C   UNL     1     -34.896  19.929  -0.081  0.00  0.00    +0.126 C 
BRANCH  14  15
ATOM     15  C   UNL     1     -33.624  19.158   0.149  0.00  0.00    -0.002 C 
ATOM     16  C   UNL     1     -32.410  19.830   0.164  0.00  0.00    -0.003 C 
ATOM     17  C   UNL     1     -33.682  17.785   0.343  0.00  0.00    -0.003 C 
ATOM     18  C   UNL     1     -31.230  19.115   0.377  0.00  0.00    -0.000 C 
ATOM     19  C   UNL     1     -32.504  17.070   0.556  0.00  0.00    -0.000 C 
ATOM     20  C   UNL     1     -31.278  17.735   0.573  0.00  0.00    -0.000 C 
ENDBRANCH  14  15
ENDBRANCH   9  14
ENDBRANCH   2  13
BRANCH   3  21
ATOM     21  C   UNL     1     -33.513  26.876   5.507  0.00  0.00    +0.035 C 
ATOM     22  C   UNL     1     -32.954  27.652   4.487  0.00  0.00    +0.003 C 
ATOM     23  C   UNL     1     -33.011  26.982   6.809  0.00  0.00    +0.003 C 
ATOM     24  C   UNL     1     -31.406  28.627   6.065  0.00  0.00    +0.075 C 
ATOM     25  C   UNL     1     -31.903  28.525   4.766  0.00  0.00    +0.007 C 
ATOM     26  C   UNL     1     -31.960  27.855   7.086  0.00  0.00    +0.007 C 
BRANCH  24  28
ATOM     27  O   UNL     1     -29.922  30.450   5.617  0.00  0.00    -0.245 OA
ATOM     28  C   UNL     1     -30.310  29.537   6.355  0.00  0.00    +0.338 C 
BRANCH  28  29
ATOM     29  O   UNL     1     -29.726  29.283   7.559  0.00  0.00    -0.477 OA
ATOM     30  H   UNL     1     -30.108  28.658   8.141  0.00  0.00    +0.295 HD
ENDBRANCH  28  29
ENDBRANCH  24  28
ENDBRANCH   3  21
TORSDOF 6
ENDMDL
MODEL 2
REMARK VINA RESULT:      -6.8      2.951      9.295
REMARK  Name = 5342077
REMARK  6 active torsions:
REMARK  status: ('A' for Active; 'I' for Inactive)
REMARK    1  A    between atoms: C_2  and  C_13
REMARK    2  A    between atoms: C_3  and  C_21
REMARK    3  A    between atoms: N_9  and  C_14
REMARK    4  A    between atoms: C_14  and  C_15
REMARK    5  A    between atoms: C_24  and  C_28
REMARK    6  A    between atoms: C_28  and  O_29
REMARK                            x       y       z     vdW  Elec       q    Type
REMARK                         _______ _______ _______ _____ _____    ______ ____
ROOT
ATOM      1  O   UNL     1     -34.440  24.325   4.168  0.00  0.00    -0.453 OA
ATOM      2  C   UNL     1     -34.945  25.283   4.935  0.00  0.00    +0.146 C 
ATOM      3  C   UNL     1     -35.528  23.707   3.639  0.00  0.00    +0.145 C 
ATOM      4  C   UNL     1     -36.283  25.345   4.951  0.00  0.00    +0.041 C 
ATOM      5  C   UNL     1     -36.686  24.296   4.089  0.00  0.00    +0.041 C 
ENDROOT
BRANCH   2  13
ATOM      6  S   UNL     1     -33.013  27.375   3.473  0.00  0.00    -0.060 S 
ATOM      7  S   UNL     1     -31.069  29.446   2.482  0.00  0.00    -0.027 S 
ATOM      8  O   UNL     1     -32.285  27.910   7.181  0.00  0.00    -0.269 OA
ATOM      9  N   UNL     1     -31.584  28.767   5.107  0.00  0.00    -0.240 N 
ATOM     10  C   UNL     1     -32.325  27.945   5.958  0.00  0.00    +0.260 C 
ATOM     11  C   UNL     1     -33.210  27.073   5.150  0.00  0.00    +0.088 C 
ATOM     12  C   UNL     1     -31.797  28.622   3.741  0.00  0.00    +0.121 C 
ATOM     13  C   UNL     1     -34.042  26.178   5.684  0.00  0.00    +0.049 C 
BRANCH   9  14
ATOM     14  C   UNL     1     -30.624  29.735   5.629  0.00  0.00    +0.126 C 
BRANCH  14  15
ATOM     15  C   UNL     1     -29.382  29.068   6.155  0.00  0.00    -0.002 C 
ATOM     16  C   UNL     1     -28.748  28.103   5.386  0.00  0.00    -0.003 C 
ATOM     17  C   UNL     1     -28.888  29.427   7.401  0.00  0.00    -0.003 C 
ATOM     18  C   UNL     1     -27.596  27.483   5.873  0.00  0.00    -0.000 C 
ATOM     19  C   UNL     1     -27.737  28.808   7.888  0.00  0.00    -0.000 C 
ATOM     20  C   UNL     1     -27.091  27.836   7.124  0.00  0.00    -0.000 C 
ENDBRANCH  14  15
ENDBRANCH   9  14
ENDBRANCH   2  13
BRANCH   3  21
ATOM     21  C   UNL     1     -35.245  22.611   2.756  0.00  0.00    +0.035 C 
ATOM     22  C   UNL     1     -35.484  21.296   3.167  0.00  0.00    +0.003 C 
ATOM     23  C   UNL     1     -34.730  22.851   1.477  0.00  0.00    +0.003 C 
ATOM     24  C   UNL     1     -34.697  20.476   1.035  0.00  0.00    +0.075 C 
ATOM     25  C   UNL     1     -35.210  20.231   2.308  0.00  0.00    +0.007 C 
ATOM     26  C   UNL     1     -34.457  21.786   0.620  0.00  0.00    +0.007 C 
BRANCH  24  28
ATOM     27  O   UNL     1     -34.133  19.467  -1.060  0.00  0.00    -0.245 OA
ATOM     28  C   UNL     1     -34.411  19.366   0.140  0.00  0.00    +0.338 C 
BRANCH  28  29
ATOM     29  O   UNL     1     -34.480  18.160   0.768  0.00  0.00    -0.477 OA
ATOM     30  H   UNL     1     -35.214  17.597   0.621  0.00  0.00    +0.295 HD
ENDBRANCH  28  29
ENDBRANCH  24  28
ENDBRANCH   3  21
TORSDOF 6
ENDMDL
MODEL 3
REMARK VINA RESULT:      -6.8      6.131      8.641
REMARK  Name = 5342077
REMARK  6 active torsions:
REMARK  status: ('A' for Active; 'I' for Inactive)
REMARK    1  A    between atoms: C_2  and  C_13
REMARK    2  A    between atoms: C_3  and  C_21
REMARK    3  A    between atoms: N_9  and  C_14
REMARK    4  A    between atoms: C_14  and  C_15
REMARK    5  A    between atoms: C_24  and  C_28
REMARK    6  A    between atoms: C_28  and  O_29
REMARK                            x       y       z     vdW  Elec       q    Type
REMARK                         _______ _______ _______ _____ _____    ______ ____
ROOT
ATOM      1  O   UNL     1     -37.565  24.404   2.855  0.00  0.00    -0.453 OA
ATOM      2  C   UNL     1     -38.255  23.380   2.367  0.00  0.00    +0.146 C 
ATOM      3  C   UNL     1     -36.451  23.838   3.388  0.00  0.00    +0.145 C 
ATOM      4  C   UNL     1     -37.680  22.183   2.536  0.00  0.00    +0.041 C 
ATOM      5  C   UNL     1     -36.473  22.473   3.218  0.00  0.00    +0.041 C 
ENDROOT
BRANCH   2  13
ATOM      6  S   UNL     1     -40.249  25.711   3.281  0.00  0.00    -0.060 S 
ATOM      7  S   UNL     1     -42.373  27.767   3.837  0.00  0.00    -0.027 S 
ATOM      8  O   UNL     1     -42.075  24.049   0.371  0.00  0.00    -0.269 OA
ATOM      9  N   UNL     1     -42.410  25.821   1.880  0.00  0.00    -0.240 N 
ATOM     10  C   UNL     1     -41.718  24.751   1.308  0.00  0.00    +0.260 C 
ATOM     11  C   UNL     1     -40.431  24.564   2.019  0.00  0.00    +0.088 C 
ATOM     12  C   UNL     1     -41.803  26.471   2.948  0.00  0.00    +0.121 C 
ATOM     13  C   UNL     1     -39.549  23.617   1.699  0.00  0.00    +0.049 C 
BRANCH   9  14
ATOM     14  C   UNL     1     -43.717  26.237   1.378  0.00  0.00    +0.126 C 
BRANCH  14  15
ATOM     15  C   UNL     1     -44.834  25.429   1.982  0.00  0.00    -0.002 C 
ATOM     16  C   UNL     1     -45.362  24.358   1.275  0.00  0.00    -0.003 C 
ATOM     17  C   UNL     1     -45.321  25.767   3.237  0.00  0.00    -0.003 C 
ATOM     18  C   UNL     1     -46.398  23.609   1.836  0.00  0.00    -0.000 C 
ATOM     19  C   UNL     1     -46.356  25.018   3.797  0.00  0.00    -0.000 C 
ATOM     20  C   UNL     1     -46.894  23.939   3.096  0.00  0.00    -0.000 C 
ENDBRANCH  14  15
ENDBRANCH   9  14
ENDBRANCH   2  13
BRANCH   3  21
ATOM     21  C   UNL     1     -35.524  24.752   3.992  0.00  0.00    +0.035 C 
ATOM     22  C   UNL     1     -35.550  24.973   5.372  0.00  0.00    +0.003 C 
ATOM     23  C   UNL     1     -34.586  25.428   3.203  0.00  0.00    +0.003 C 
ATOM     24  C   UNL     1     -33.716  26.532   5.168  0.00  0.00    +0.075 C 
ATOM     25  C   UNL     1     -34.648  25.861   5.958  0.00  0.00    +0.007 C 
ATOM     26  C   UNL     1     -33.685  26.315   3.790  0.00  0.00    +0.007 C 
BRANCH  24  28
ATOM     27  O   UNL     1     -32.503  28.586   5.355  0.00  0.00    -0.245 OA
ATOM     28  C   UNL     1     -32.776  27.458   5.780  0.00  0.00    +0.338 C 
BRANCH  28  29
ATOM     29  O   UNL     1     -32.203  26.951   6.906  0.00  0.00    -0.477 OA
ATOM     30  H   UNL     1     -32.497  27.234   7.749  0.00  0.00    +0.295 HD
ENDBRANCH  28  29
ENDBRANCH  24  28
ENDBRANCH   3  21
TORSDOF 6
ENDMDL
MODEL 4
REMARK VINA RESULT:      -6.7      6.000     10.739
REMARK  Name = 5342077
REMARK  6 active torsions:
REMARK  status: ('A' for Active; 'I' for Inactive)
REMARK    1  A    between atoms: C_2  and  C_13
REMARK    2  A    between atoms: C_3  and  C_21
REMARK    3  A    between atoms: N_9  and  C_14
REMARK    4  A    between atoms: C_14  and  C_15
REMARK    5  A    between atoms: C_24  and  C_28
REMARK    6  A    between atoms: C_28  and  O_29
REMARK                            x       y       z     vdW  Elec       q    Type
REMARK                         _______ _______ _______ _____ _____    ______ ____
ROOT
ATOM      1  O   UNL     1     -33.679  28.817   3.719  0.00  0.00    -0.453 OA
ATOM      2  C   UNL     1     -32.787  29.780   3.520  0.00  0.00    +0.146 C 
ATOM      3  C   UNL     1     -32.940  27.750   4.120  0.00  0.00    +0.145 C 
ATOM      4  C   UNL     1     -31.518  29.429   3.760  0.00  0.00    +0.041 C 
ATOM      5  C   UNL     1     -31.604  28.074   4.162  0.00  0.00    +0.041 C 
ENDROOT
BRANCH   2  13
ATOM      6  S   UNL     1     -34.665  30.179   0.959  0.00  0.00    -0.060 S 
ATOM      7  S   UNL     1     -36.404  30.962  -1.367  0.00  0.00    -0.027 S 
ATOM      8  O   UNL     1     -34.082  33.735   2.215  0.00  0.00    -0.269 OA
ATOM      9  N   UNL     1     -35.236  32.647   0.480  0.00  0.00    -0.240 N 
ATOM     10  C   UNL     1     -34.426  32.726   1.614  0.00  0.00    +0.260 C 
ATOM     11  C   UNL     1     -34.013  31.361   2.017  0.00  0.00    +0.088 C 
ATOM     12  C   UNL     1     -35.488  31.380  -0.033  0.00  0.00    +0.121 C 
ATOM     13  C   UNL     1     -33.233  31.112   3.070  0.00  0.00    +0.049 C 
BRANCH   9  14
ATOM     14  C   UNL     1     -35.794  33.845  -0.141  0.00  0.00    +0.126 C 
BRANCH  14  15
ATOM     15  C   UNL     1     -36.926  34.422   0.667  0.00  0.00    -0.002 C 
ATOM     16  C   UNL     1     -37.022  35.797   0.825  0.00  0.00    -0.003 C 
ATOM     17  C   UNL     1     -37.857  33.570   1.245  0.00  0.00    -0.003 C 
ATOM     18  C   UNL     1     -38.071  36.331   1.575  0.00  0.00    -0.000 C 
ATOM     19  C   UNL     1     -38.905  34.104   1.994  0.00  0.00    -0.000 C 
ATOM     20  C   UNL     1     -39.012  35.484   2.158  0.00  0.00    -0.000 C 
ENDBRANCH  14  15
ENDBRANCH   9  14
ENDBRANCH   2  13
BRANCH   3  21
ATOM     21  C   UNL     1     -33.685  26.556   4.404  0.00  0.00    +0.035 C 
ATOM     22  C   UNL     1     -34.075  25.705   3.365  0.00  0.00    +0.003 C 
ATOM     23  C   UNL     1     -34.026  26.234   5.723  0.00  0.00    +0.003 C 
ATOM     24  C   UNL     1     -35.135  24.229   4.958  0.00  0.00    +0.075 C 
ATOM     25  C   UNL     1     -34.798  24.545   3.642  0.00  0.00    +0.007 C 
ATOM     26  C   UNL     1     -34.749  25.075   5.998  0.00  0.00    +0.007 C 
BRANCH  24  28
ATOM     27  O   UNL     1     -35.878  22.407   6.318  0.00  0.00    -0.245 OA
ATOM     28  C   UNL     1     -35.889  23.020   5.245  0.00  0.00    +0.338 C 
BRANCH  28  29
ATOM     29  O   UNL     1     -36.638  22.608   4.185  0.00  0.00    -0.477 OA
ATOM     30  H   UNL     1     -36.840  21.700   4.080  0.00  0.00    +0.295 HD
ENDBRANCH  28  29
ENDBRANCH  24  28
ENDBRANCH   3  21
TORSDOF 6
ENDMDL
MODEL 5
REMARK VINA RESULT:      -6.7      7.266     10.335
REMARK  Name = 5342077
REMARK  6 active torsions:
REMARK  status: ('A' for Active; 'I' for Inactive)
REMARK    1  A    between atoms: C_2  and  C_13
REMARK    2  A    between atoms: C_3  and  C_21
REMARK    3  A    between atoms: N_9  and  C_14
REMARK    4  A    between atoms: C_14  and  C_15
REMARK    5  A    between atoms: C_24  and  C_28
REMARK    6  A    between atoms: C_28  and  O_29
REMARK                            x       y       z     vdW  Elec       q    Type
REMARK                         _______ _______ _______ _____ _____    ______ ____
ROOT
ATOM      1  O   UNL     1     -42.468  26.275   3.143  0.00  0.00    -0.453 OA
ATOM      2  C   UNL     1     -41.660  26.671   2.167  0.00  0.00    +0.146 C 
ATOM      3  C   UNL     1     -43.716  26.531   2.675  0.00  0.00    +0.145 C 
ATOM      4  C   UNL     1     -42.282  27.167   1.089  0.00  0.00    +0.041 C 
ATOM      5  C   UNL     1     -43.657  27.080   1.415  0.00  0.00    +0.041 C 
ENDROOT
BRANCH   2  13
ATOM      6  S   UNL     1     -40.139  23.880   1.791  0.00  0.00    -0.060 S 
ATOM      7  S   UNL     1     -38.362  21.467   1.527  0.00  0.00    -0.027 S 
ATOM      8  O   UNL     1     -37.338  26.328   2.642  0.00  0.00    -0.269 OA
ATOM      9  N   UNL     1     -37.591  24.044   2.141  0.00  0.00    -0.240 N 
ATOM     10  C   UNL     1     -38.023  25.355   2.355  0.00  0.00    +0.260 C 
ATOM     11  C   UNL     1     -39.494  25.419   2.183  0.00  0.00    +0.088 C 
ATOM     12  C   UNL     1     -38.560  23.099   1.830  0.00  0.00    +0.121 C 
ATOM     13  C   UNL     1     -40.199  26.542   2.323  0.00  0.00    +0.049 C 
BRANCH   9  14
ATOM     14  C   UNL     1     -36.179  23.683   2.243  0.00  0.00    +0.126 C 
BRANCH  14  15
ATOM     15  C   UNL     1     -35.819  23.207   3.625  0.00  0.00    -0.002 C 
ATOM     16  C   UNL     1     -35.777  24.117   4.671  0.00  0.00    -0.003 C 
ATOM     17  C   UNL     1     -35.534  21.865   3.832  0.00  0.00    -0.003 C 
ATOM     18  C   UNL     1     -35.443  23.675   5.953  0.00  0.00    -0.000 C 
ATOM     19  C   UNL     1     -35.201  21.423   5.113  0.00  0.00    -0.000 C 
ATOM     20  C   UNL     1     -35.156  22.328   6.173  0.00  0.00    -0.000 C 
ENDBRANCH  14  15
ENDBRANCH   9  14
ENDBRANCH   2  13
BRANCH   3  21
ATOM     21  C   UNL     1     -44.791  26.186   3.562  0.00  0.00    +0.035 C 
ATOM     22  C   UNL     1     -45.745  25.239   3.178  0.00  0.00    +0.003 C 
ATOM     23  C   UNL     1     -44.891  26.795   4.818  0.00  0.00    +0.003 C 
ATOM     24  C   UNL     1     -46.883  25.513   5.292  0.00  0.00    +0.075 C 
ATOM     25  C   UNL     1     -46.788  24.903   4.041  0.00  0.00    +0.007 C 
ATOM     26  C   UNL     1     -45.934  26.459   5.680  0.00  0.00    +0.007 C 
BRANCH  24  28
ATOM     27  O   UNL     1     -48.571  25.952   6.930  0.00  0.00    -0.245 OA
ATOM     28  C   UNL     1     -47.970  25.164   6.191  0.00  0.00    +0.338 C 
BRANCH  28  29
ATOM     29  O   UNL     1     -48.280  23.838   6.144  0.00  0.00    -0.477 OA
ATOM     30  H   UNL     1     -47.598  23.201   6.075  0.00  0.00    +0.295 HD
ENDBRANCH  28  29
ENDBRANCH  24  28
ENDBRANCH   3  21
TORSDOF 6
ENDMDL
MODEL 6
REMARK VINA RESULT:      -6.7      4.488      9.373
REMARK  Name = 5342077
REMARK  6 active torsions:
REMARK  status: ('A' for Active; 'I' for Inactive)
REMARK    1  A    between atoms: C_2  and  C_13
REMARK    2  A    between atoms: C_3  and  C_21
REMARK    3  A    between atoms: N_9  and  C_14
REMARK    4  A    between atoms: C_14  and  C_15
REMARK    5  A    between atoms: C_24  and  C_28
REMARK    6  A    between atoms: C_28  and  O_29
REMARK                            x       y       z     vdW  Elec       q    Type
REMARK                         _______ _______ _______ _____ _____    ______ ____
ROOT
ATOM      1  O   UNL     1     -36.165  25.290   4.475  0.00  0.00    -0.453 OA
ATOM      2  C   UNL     1     -35.054  24.923   5.103  0.00  0.00    +0.146 C 
ATOM      3  C   UNL     1     -36.687  24.128   4.004  0.00  0.00    +0.145 C 
ATOM      4  C   UNL     1     -34.806  23.607   5.084  0.00  0.00    +0.041 C 
ATOM      5  C   UNL     1     -35.888  23.063   4.352  0.00  0.00    +0.041 C 
ENDROOT
BRANCH   2  13
ATOM      6  S   UNL     1     -33.055  26.795   3.447  0.00  0.00    -0.060 S 
ATOM      7  S   UNL     1     -31.074  28.720   2.258  0.00  0.00    -0.027 S 
ATOM      8  O   UNL     1     -32.561  27.919   7.060  0.00  0.00    -0.269 OA
ATOM      9  N   UNL     1     -31.742  28.452   4.921  0.00  0.00    -0.240 N 
ATOM     10  C   UNL     1     -32.526  27.761   5.847  0.00  0.00    +0.260 C 
ATOM     11  C   UNL     1     -33.353  26.757   5.136  0.00  0.00    +0.088 C 
ATOM     12  C   UNL     1     -31.870  28.091   3.585  0.00  0.00    +0.121 C 
ATOM     13  C   UNL     1     -34.207  25.941   5.754  0.00  0.00    +0.049 C 
BRANCH   9  14
ATOM     14  C   UNL     1     -30.825  29.509   5.341  0.00  0.00    +0.126 C 
BRANCH  14  15
ATOM     15  C   UNL     1     -29.610  28.955   6.035  0.00  0.00    -0.002 C 
ATOM     16  C   UNL     1     -29.206  29.501   7.245  0.00  0.00    -0.003 C 
ATOM     17  C   UNL     1     -28.910  27.906   5.455  0.00  0.00    -0.003 C 
ATOM     18  C   UNL     1     -28.079  28.988   7.888  0.00  0.00    -0.000 C 
ATOM     19  C   UNL     1     -27.784  27.393   6.098  0.00  0.00    -0.000 C 
ATOM     20  C   UNL     1     -27.368  27.934   7.314  0.00  0.00    -0.000 C 
ENDBRANCH  14  15
ENDBRANCH   9  14
ENDBRANCH   2  13
BRANCH   3  21
ATOM     21  C   UNL     1     -37.915  24.255   3.272  0.00  0.00    +0.035 C 
ATOM     22  C   UNL     1     -38.476  23.142   2.639  0.00  0.00    +0.003 C 
ATOM     23  C   UNL     1     -38.559  25.494   3.187  0.00  0.00    +0.003 C 
ATOM     24  C   UNL     1     -40.308  24.504   1.847  0.00  0.00    +0.075 C 
ATOM     25  C   UNL     1     -39.670  23.267   1.928  0.00  0.00    +0.007 C 
ATOM     26  C   UNL     1     -39.752  25.618   2.476  0.00  0.00    +0.007 C 
BRANCH  24  28
ATOM     27  O   UNL     1     -42.307  25.611   1.138  0.00  0.00    -0.245 OA
ATOM     28  C   UNL     1     -41.552  24.633   1.105  0.00  0.00    +0.338 C 
BRANCH  28  29
ATOM     29  O   UNL     1     -41.821  23.538   0.343  0.00  0.00    -0.477 OA
ATOM     30  H   UNL     1     -41.137  22.932   0.136  0.00  0.00    +0.295 HD
ENDBRANCH  28  29
ENDBRANCH  24  28
ENDBRANCH   3  21
TORSDOF 6
ENDMDL
MODEL 7
REMARK VINA RESULT:      -6.5      3.208      9.183
REMARK  Name = 5342077
REMARK  6 active torsions:
REMARK  status: ('A' for Active; 'I' for Inactive)
REMARK    1  A    between atoms: C_2  and  C_13
REMARK    2  A    between atoms: C_3  and  C_21
REMARK    3  A    between atoms: N_9  and  C_14
REMARK    4  A    between atoms: C_14  and  C_15
REMARK    5  A    between atoms: C_24  and  C_28
REMARK    6  A    between atoms: C_28  and  O_29
REMARK                            x       y       z     vdW  Elec       q    Type
REMARK                         _______ _______ _______ _____ _____    ______ ____
ROOT
ATOM      1  O   UNL     1     -35.225  23.815   3.995  0.00  0.00    -0.453 OA
ATOM      2  C   UNL     1     -35.521  24.928   4.656  0.00  0.00    +0.146 C 
ATOM      3  C   UNL     1     -36.402  23.433   3.435  0.00  0.00    +0.145 C 
ATOM      4  C   UNL     1     -36.802  25.309   4.573  0.00  0.00    +0.041 C 
ATOM      5  C   UNL     1     -37.403  24.318   3.760  0.00  0.00    +0.041 C 
ENDROOT
BRANCH   2  13
ATOM      6  S   UNL     1     -33.828  27.318   3.364  0.00  0.00    -0.060 S 
ATOM      7  S   UNL     1     -32.039  29.582   2.514  0.00  0.00    -0.027 S 
ATOM      8  O   UNL     1     -32.410  27.012   6.893  0.00  0.00    -0.269 OA
ATOM      9  N   UNL     1     -32.079  28.322   4.969  0.00  0.00    -0.240 N 
ATOM     10  C   UNL     1     -32.674  27.321   5.738  0.00  0.00    +0.260 C 
ATOM     11  C   UNL     1     -33.721  26.644   4.937  0.00  0.00    +0.088 C 
ATOM     12  C   UNL     1     -32.546  28.487   3.670  0.00  0.00    +0.121 C 
ATOM     13  C   UNL     1     -34.467  25.641   5.403  0.00  0.00    +0.049 C 
BRANCH   9  14
ATOM     14  C   UNL     1     -31.009  29.159   5.506  0.00  0.00    +0.126 C 
BRANCH  14  15
ATOM     15  C   UNL     1     -29.694  28.428   5.553  0.00  0.00    -0.002 C 
ATOM     16  C   UNL     1     -29.114  28.146   6.781  0.00  0.00    -0.003 C 
ATOM     17  C   UNL     1     -29.081  28.046   4.368  0.00  0.00    -0.003 C 
ATOM     18  C   UNL     1     -27.894  27.468   6.826  0.00  0.00    -0.000 C 
ATOM     19  C   UNL     1     -27.863  27.369   4.412  0.00  0.00    -0.000 C 
ATOM     20  C   UNL     1     -27.270  27.080   5.641  0.00  0.00    -0.000 C 
ENDBRANCH  14  15
ENDBRANCH   9  14
ENDBRANCH   2  13
BRANCH   3  21
ATOM     21  C   UNL     1     -36.349  22.230   2.652  0.00  0.00    +0.035 C 
ATOM     22  C   UNL     1     -37.445  21.850   1.870  0.00  0.00    +0.003 C 
ATOM     23  C   UNL     1     -35.202  21.430   2.665  0.00  0.00    +0.003 C 
ATOM     24  C   UNL     1     -36.246  19.889   1.126  0.00  0.00    +0.075 C 
ATOM     25  C   UNL     1     -37.393  20.683   1.109  0.00  0.00    +0.007 C 
ATOM     26  C   UNL     1     -35.151  20.263   1.905  0.00  0.00    +0.007 C 
BRANCH  24  28
ATOM     27  O   UNL     1     -35.234  18.306  -0.356  0.00  0.00    -0.245 OA
ATOM     28  C   UNL     1     -36.193  18.672   0.333  0.00  0.00    +0.338 C 
BRANCH  28  29
ATOM     29  O   UNL     1     -37.340  17.942   0.421  0.00  0.00    -0.477 OA
ATOM     30  H   UNL     1     -37.462  17.347   1.134  0.00  0.00    +0.295 HD
ENDBRANCH  28  29
ENDBRANCH  24  28
ENDBRANCH   3  21
TORSDOF 6
ENDMDL
MODEL 8
REMARK VINA RESULT:      -6.4      3.846     10.830
REMARK  Name = 5342077
REMARK  6 active torsions:
REMARK  status: ('A' for Active; 'I' for Inactive)
REMARK    1  A    between atoms: C_2  and  C_13
REMARK    2  A    between atoms: C_3  and  C_21
REMARK    3  A    between atoms: N_9  and  C_14
REMARK    4  A    between atoms: C_14  and  C_15
REMARK    5  A    between atoms: C_24  and  C_28
REMARK    6  A    between atoms: C_28  and  O_29
REMARK                            x       y       z     vdW  Elec       q    Type
REMARK                         _______ _______ _______ _____ _____    ______ ____
ROOT
ATOM      1  O   UNL     1     -36.577  19.352   1.272  0.00  0.00    -0.453 OA
ATOM      2  C   UNL     1     -35.422  19.962   1.510  0.00  0.00    +0.146 C 
ATOM      3  C   UNL     1     -36.337  18.592   0.172  0.00  0.00    +0.145 C 
ATOM      4  C   UNL     1     -34.440  19.662   0.651  0.00  0.00    +0.041 C 
ATOM      5  C   UNL     1     -35.037  18.747  -0.250  0.00  0.00    +0.041 C 
ENDROOT
BRANCH   2  13
ATOM      6  S   UNL     1     -36.987  22.753   1.622  0.00  0.00    -0.060 S 
ATOM      7  S   UNL     1     -38.272  25.430   2.096  0.00  0.00    -0.027 S 
ATOM      8  O   UNL     1     -35.039  22.676   4.903  0.00  0.00    -0.269 OA
ATOM      9  N   UNL     1     -36.531  24.099   3.772  0.00  0.00    -0.240 N 
ATOM     10  C   UNL     1     -35.756  22.951   3.949  0.00  0.00    +0.260 C 
ATOM     11  C   UNL     1     -35.919  22.064   2.774  0.00  0.00    +0.088 C 
ATOM     12  C   UNL     1     -37.265  24.194   2.596  0.00  0.00    +0.121 C 
ATOM     13  C   UNL     1     -35.302  20.888   2.652  0.00  0.00    +0.049 C 
BRANCH   9  14
ATOM     14  C   UNL     1     -36.567  25.155   4.780  0.00  0.00    +0.126 C 
BRANCH  14  15
ATOM     15  C   UNL     1     -35.300  25.967   4.788  0.00  0.00    -0.002 C 
ATOM     16  C   UNL     1     -34.961  26.716   3.670  0.00  0.00    -0.003 C 
ATOM     17  C   UNL     1     -34.487  25.956   5.913  0.00  0.00    -0.003 C 
ATOM     18  C   UNL     1     -33.786  27.469   3.677  0.00  0.00    -0.000 C 
ATOM     19  C   UNL     1     -33.313  26.708   5.921  0.00  0.00    -0.000 C 
ATOM     20  C   UNL     1     -32.963  27.465   4.803  0.00  0.00    -0.000 C 
ENDBRANCH  14  15
ENDBRANCH   9  14
ENDBRANCH   2  13
BRANCH   3  21
ATOM     21  C   UNL     1     -37.451  17.818  -0.298  0.00  0.00    +0.035 C 
ATOM     22  C   UNL     1     -38.459  18.422  -1.056  0.00  0.00    +0.003 C 
ATOM     23  C   UNL     1     -37.537  16.454  -0.000  0.00  0.00    +0.003 C 
ATOM     24  C   UNL     1     -39.621  16.310  -1.213  0.00  0.00    +0.075 C 
ATOM     25  C   UNL     1     -39.540  17.670  -1.513  0.00  0.00    +0.007 C 
ATOM     26  C   UNL     1     -38.619  15.702  -0.457  0.00  0.00    +0.007 C 
BRANCH  24  28
ATOM     27  O   UNL     1     -40.833  14.993  -2.801  0.00  0.00    -0.245 OA
ATOM     28  C   UNL     1     -40.749  15.526  -1.689  0.00  0.00    +0.338 C 
BRANCH  28  29
ATOM     29  O   UNL     1     -41.744  15.429  -0.764  0.00  0.00    -0.477 OA
ATOM     30  H   UNL     1     -42.378  14.743  -0.829  0.00  0.00    +0.295 HD
ENDBRANCH  28  29
ENDBRANCH  24  28
ENDBRANCH   3  21
TORSDOF 6
ENDMDL
MODEL 9
REMARK VINA RESULT:      -6.4      2.966      4.483
REMARK  Name = 5342077
REMARK  6 active torsions:
REMARK  status: ('A' for Active; 'I' for Inactive)
REMARK    1  A    between atoms: C_2  and  C_13
REMARK    2  A    between atoms: C_3  and  C_21
REMARK    3  A    between atoms: N_9  and  C_14
REMARK    4  A    between atoms: C_14  and  C_15
REMARK    5  A    between atoms: C_24  and  C_28
REMARK    6  A    between atoms: C_28  and  O_29
REMARK                            x       y       z     vdW  Elec       q    Type
REMARK                         _______ _______ _______ _____ _____    ______ ____
ROOT
ATOM      1  O   UNL     1     -32.952  28.718   3.954  0.00  0.00    -0.453 OA
ATOM      2  C   UNL     1     -33.937  29.044   3.126  0.00  0.00    +0.146 C 
ATOM      3  C   UNL     1     -32.458  29.910   4.377  0.00  0.00    +0.145 C 
ATOM      4  C   UNL     1     -34.131  30.360   2.972  0.00  0.00    +0.041 C 
ATOM      5  C   UNL     1     -33.148  30.951   3.802  0.00  0.00    +0.041 C 
ENDROOT
BRANCH   2  13
ATOM      6  S   UNL     1     -34.505  26.214   4.511  0.00  0.00    -0.060 S 
ATOM      7  S   UNL     1     -35.245  23.459   5.464  0.00  0.00    -0.027 S 
ATOM      8  O   UNL     1     -36.253  25.933   1.130  0.00  0.00    -0.269 OA
ATOM      9  N   UNL     1     -35.907  24.620   3.050  0.00  0.00    -0.240 N 
ATOM     10  C   UNL     1     -35.793  25.759   2.251  0.00  0.00    +0.260 C 
ATOM     11  C   UNL     1     -35.000  26.784   2.970  0.00  0.00    +0.088 C 
ATOM     12  C   UNL     1     -35.291  24.652   4.295  0.00  0.00    +0.121 C 
ATOM     13  C   UNL     1     -34.720  27.984   2.462  0.00  0.00    +0.049 C 
BRANCH   9  14
ATOM     14  C   UNL     1     -36.643  23.443   2.594  0.00  0.00    +0.126 C 
BRANCH  14  15
ATOM     15  C   UNL     1     -35.724  22.382   2.051  0.00  0.00    -0.002 C 
ATOM     16  C   UNL     1     -34.899  22.678   0.975  0.00  0.00    -0.003 C 
ATOM     17  C   UNL     1     -35.714  21.122   2.633  0.00  0.00    -0.003 C 
ATOM     18  C   UNL     1     -34.047  21.694   0.471  0.00  0.00    -0.000 C 
ATOM     19  C   UNL     1     -34.863  20.139   2.129  0.00  0.00    -0.000 C 
ATOM     20  C   UNL     1     -34.029  20.425   1.048  0.00  0.00    -0.000 C 
ENDBRANCH  14  15
ENDBRANCH   9  14
ENDBRANCH   2  13
BRANCH   3  21
ATOM     21  C   UNL     1     -31.361  29.830   5.300  0.00  0.00    +0.035 C 
ATOM     22  C   UNL     1     -31.580  29.428   6.621  0.00  0.00    +0.003 C 
ATOM     23  C   UNL     1     -30.065  30.153   4.883  0.00  0.00    +0.003 C 
ATOM     24  C   UNL     1     -29.224  29.672   7.096  0.00  0.00    +0.075 C 
ATOM     25  C   UNL     1     -30.514  29.349   7.516  0.00  0.00    +0.007 C 
ATOM     26  C   UNL     1     -29.000  30.074   5.779  0.00  0.00    +0.007 C 
BRANCH  24  28
ATOM     27  O   UNL     1     -27.488  30.555   8.487  0.00  0.00    -0.245 OA
ATOM     28  C   UNL     1     -28.113  29.591   8.030  0.00  0.00    +0.338 C 
BRANCH  28  29
ATOM     29  O   UNL     1     -27.811  28.307   8.371  0.00  0.00    -0.477 OA
ATOM     30  H   UNL     1     -26.939  28.084   8.629  0.00  0.00    +0.295 HD
ENDBRANCH  28  29
ENDBRANCH  24  28
ENDBRANCH   3  21
TORSDOF 6
ENDMDL
