MODEL 1
REMARK VINA RESULT:      -6.0      0.000      0.000
REMARK  Name = 196671
REMARK  12 active torsions:
REMARK  status: ('A' for Active; 'I' for Inactive)
REMARK    1  A    between atoms: C_5  and  C_32
REMARK    2  A    between atoms: C_7  and  O_19
REMARK    3  A    between atoms: C_9  and  O_17
REMARK    4  A    between atoms: C_13  and  O_23
REMARK    5  A    between atoms: O_19  and  C_21
REMARK    6  A    between atoms: O_23  and  C_25
REMARK    7  A    between atoms: C_25  and  C_26
REMARK    8  A    between atoms: C_26  and  C_27
REMARK    9  A    between atoms: C_27  and  C_29
REMARK   10  A    between atoms: C_29  and  O_30
REMARK   11  A    between atoms: C_32  and  O_33
REMARK   12  A    between atoms: O_33  and  C_35
REMARK                            x       y       z     vdW  Elec       q    Type
REMARK                         _______ _______ _______ _____ _____    ______ ____
ROOT
ATOM      1  O   UNL     1     -36.842  22.458  -1.949  0.00  0.00    -0.351 OA
ATOM      2  O   UNL     1     -38.101  21.140   0.487  0.00  0.00    -0.349 OA
ATOM      3  C   UNL     1     -35.386  21.909   0.081  0.00  0.00    +0.073 C 
ATOM      4  C   UNL     1     -36.320  21.502  -1.039  0.00  0.00    +0.151 C 
ATOM      5  C   UNL     1     -36.254  22.693   1.183  0.00  0.00    +0.079 C 
ATOM      6  C   UNL     1     -37.233  20.491  -0.449  0.00  0.00    +0.173 C 
ATOM      7  C   UNL     1     -35.026  20.455   0.618  0.00  0.00    +0.200 C 
ATOM      8  C   UNL     1     -35.964  21.466  -2.509  0.00  0.00    +0.172 C 
ATOM      9  C   UNL     1     -36.210  19.541   0.194  0.00  0.00    +0.180 C 
ATOM     10  C   UNL     1     -37.476  21.805   1.597  0.00  0.00    +0.140 C 
ATOM     11  C   UNL     1     -34.152  22.694  -0.376  0.00  0.00    +0.006 C 
ATOM     12  C   UNL     1     -36.799  24.059   0.649  0.00  0.00    +0.054 C 
ATOM     13  C   UNL     1     -37.743  24.798   1.614  0.00  0.00    +0.187 C 
ATOM     14  C   UNL     1     -38.577  22.550   2.305  0.00  0.00    -0.002 C 
ATOM     15  C   UNL     1     -38.697  23.888   2.345  0.00  0.00    -0.007 C 
ATOM     16  C   UNL     1     -39.821  24.547   3.095  0.00  0.00    +0.030 C 
ENDROOT
BRANCH   9  17
ATOM     17  O   UNL     1     -36.737  18.816   1.287  0.00  0.00    -0.379 OA
ATOM     18  H   UNL     1     -37.400  19.356   1.745  0.00  0.00    +0.211 HD
ENDBRANCH   9  17
BRANCH   7  19
ATOM     19  O   UNL     1     -33.840  19.965  -0.007  0.00  0.00    -0.450 OA
BRANCH  19  21
ATOM     20  O   UNL     1     -33.251  18.649   1.799  0.00  0.00    -0.250 OA
ATOM     21  C   UNL     1     -32.962  19.321   0.816  0.00  0.00    +0.318 C 
ATOM     22  C   UNL     1     -31.561  19.553   0.341  0.00  0.00    +0.121 C 
ENDBRANCH  19  21
ENDBRANCH   7  19
BRANCH  13  23
ATOM     23  O   UNL     1     -36.970  25.554   2.544  0.00  0.00    -0.448 OA
BRANCH  23  25
ATOM     24  O   UNL     1     -37.469  27.561   1.522  0.00  0.00    -0.250 OA
ATOM     25  C   UNL     1     -36.731  26.856   2.198  0.00  0.00    +0.317 C 
BRANCH  25  26
ATOM     26  C   UNL     1     -35.387  27.281   2.752  0.00  0.00    +0.112 C 
BRANCH  26  27
ATOM     27  C   UNL     1     -34.706  26.186   3.587  0.00  0.00    +0.040 C 
ATOM     28  C   UNL     1     -33.222  26.096   3.214  0.00  0.00    +0.003 C 
BRANCH  27  29
ATOM     29  C   UNL     1     -34.868  26.455   5.091  0.00  0.00    +0.138 C 
BRANCH  29  30
ATOM     30  O   UNL     1     -36.249  26.481   5.430  0.00  0.00    -0.382 OA
ATOM     31  H   UNL     1     -36.652  27.292   5.083  0.00  0.00    +0.210 HD
ENDBRANCH  29  30
ENDBRANCH  27  29
ENDBRANCH  26  27
ENDBRANCH  25  26
ENDBRANCH  23  25
ENDBRANCH  13  23
BRANCH   5  32
ATOM     32  C   UNL     1     -35.388  22.993   2.442  0.00  0.00    +0.211 C 
BRANCH  32  33
ATOM     33  O   UNL     1     -35.727  22.041   3.420  0.00  0.00    -0.448 OA
BRANCH  33  35
ATOM     34  O   UNL     1     -36.488  23.478   5.061  0.00  0.00    -0.250 OA
ATOM     35  C   UNL     1     -35.837  22.505   4.709  0.00  0.00    +0.318 C 
ATOM     36  C   UNL     1     -35.040  21.646   5.644  0.00  0.00    +0.121 C 
ENDBRANCH  33  35
ENDBRANCH  32  33
ENDBRANCH   5  32
TORSDOF 12
ENDMDL
MODEL 2
REMARK VINA RESULT:      -5.9      2.068      7.048
REMARK  Name = 196671
REMARK  12 active torsions:
REMARK  status: ('A' for Active; 'I' for Inactive)
REMARK    1  A    between atoms: C_5  and  C_32
REMARK    2  A    between atoms: C_7  and  O_19
REMARK    3  A    between atoms: C_9  and  O_17
REMARK    4  A    between atoms: C_13  and  O_23
REMARK    5  A    between atoms: O_19  and  C_21
REMARK    6  A    between atoms: O_23  and  C_25
REMARK    7  A    between atoms: C_25  and  C_26
REMARK    8  A    between atoms: C_26  and  C_27
REMARK    9  A    between atoms: C_27  and  C_29
REMARK   10  A    between atoms: C_29  and  O_30
REMARK   11  A    between atoms: C_32  and  O_33
REMARK   12  A    between atoms: O_33  and  C_35
REMARK                            x       y       z     vdW  Elec       q    Type
REMARK                         _______ _______ _______ _____ _____    ______ ____
ROOT
ATOM      1  O   UNL     1     -32.665  25.207   1.148  0.00  0.00    -0.351 OA
ATOM      2  O   UNL     1     -32.919  25.769   4.126  0.00  0.00    -0.349 OA
ATOM      3  C   UNL     1     -34.668  26.544   2.012  0.00  0.00    +0.073 C 
ATOM      4  C   UNL     1     -33.178  26.337   1.837  0.00  0.00    +0.151 C 
ATOM      5  C   UNL     1     -35.188  25.473   3.091  0.00  0.00    +0.079 C 
ATOM      6  C   UNL     1     -32.565  26.734   3.130  0.00  0.00    +0.173 C 
ATOM      7  C   UNL     1     -34.621  27.991   2.673  0.00  0.00    +0.200 C 
ATOM      8  C   UNL     1     -32.418  26.486   0.537  0.00  0.00    +0.172 C 
ATOM      9  C   UNL     1     -33.216  28.113   3.328  0.00  0.00    +0.180 C 
ATOM     10  C   UNL     1     -34.321  25.594   4.390  0.00  0.00    +0.140 C 
ATOM     11  C   UNL     1     -35.470  26.514   0.707  0.00  0.00    +0.006 C 
ATOM     12  C   UNL     1     -35.084  24.003   2.567  0.00  0.00    +0.054 C 
ATOM     13  C   UNL     1     -35.448  22.922   3.601  0.00  0.00    +0.187 C 
ATOM     14  C   UNL     1     -34.421  24.412   5.319  0.00  0.00    -0.002 C 
ATOM     15  C   UNL     1     -34.946  23.220   4.991  0.00  0.00    -0.007 C 
ATOM     16  C   UNL     1     -35.023  22.100   5.992  0.00  0.00    +0.030 C 
ENDROOT
BRANCH   9  17
ATOM     17  O   UNL     1     -33.296  28.498   4.685  0.00  0.00    -0.379 OA
ATOM     18  H   UNL     1     -33.114  29.448   4.763  0.00  0.00    +0.211 HD
ENDBRANCH   9  17
BRANCH   7  19
ATOM     19  O   UNL     1     -34.737  29.005   1.676  0.00  0.00    -0.450 OA
BRANCH  19  21
ATOM     20  O   UNL     1     -36.881  29.735   1.218  0.00  0.00    -0.250 OA
ATOM     21  C   UNL     1     -35.811  29.838   1.804  0.00  0.00    +0.318 C 
ATOM     22  C   UNL     1     -35.495  30.922   2.788  0.00  0.00    +0.121 C 
ENDBRANCH  19  21
ENDBRANCH   7  19
BRANCH  13  23
ATOM     23  O   UNL     1     -36.862  22.739   3.614  0.00  0.00    -0.448 OA
BRANCH  23  25
ATOM     24  O   UNL     1     -38.334  22.205   1.920  0.00  0.00    -0.250 OA
ATOM     25  C   UNL     1     -37.367  21.942   2.623  0.00  0.00    +0.317 C 
BRANCH  25  26
ATOM     26  C   UNL     1     -36.563  20.661   2.553  0.00  0.00    +0.112 C 
BRANCH  26  27
ATOM     27  C   UNL     1     -35.815  20.491   1.222  0.00  0.00    +0.040 C 
ATOM     28  C   UNL     1     -34.432  19.882   1.479  0.00  0.00    +0.003 C 
BRANCH  27  29
ATOM     29  C   UNL     1     -36.615  19.617   0.245  0.00  0.00    +0.138 C 
BRANCH  29  30
ATOM     30  O   UNL     1     -37.046  18.431   0.900  0.00  0.00    -0.382 OA
ATOM     31  H   UNL     1     -36.959  18.542   1.860  0.00  0.00    +0.210 HD
ENDBRANCH  29  30
ENDBRANCH  27  29
ENDBRANCH  26  27
ENDBRANCH  25  26
ENDBRANCH  23  25
ENDBRANCH  13  23
BRANCH   5  32
ATOM     32  C   UNL     1     -36.681  25.741   3.444  0.00  0.00    +0.211 C 
BRANCH  32  33
ATOM     33  O   UNL     1     -37.440  25.463   2.292  0.00  0.00    -0.448 OA
BRANCH  33  35
ATOM     34  O   UNL     1     -39.105  26.921   1.632  0.00  0.00    -0.250 OA
ATOM     35  C   UNL     1     -38.723  25.955   2.276  0.00  0.00    +0.318 C 
ATOM     36  C   UNL     1     -39.609  25.136   3.166  0.00  0.00    +0.121 C 
ENDBRANCH  33  35
ENDBRANCH  32  33
ENDBRANCH   5  32
TORSDOF 12
ENDMDL
MODEL 3
REMARK VINA RESULT:      -5.6      2.331      6.899
REMARK  Name = 196671
REMARK  12 active torsions:
REMARK  status: ('A' for Active; 'I' for Inactive)
REMARK    1  A    between atoms: C_5  and  C_32
REMARK    2  A    between atoms: C_7  and  O_19
REMARK    3  A    between atoms: C_9  and  O_17
REMARK    4  A    between atoms: C_13  and  O_23
REMARK    5  A    between atoms: O_19  and  C_21
REMARK    6  A    between atoms: O_23  and  C_25
REMARK    7  A    between atoms: C_25  and  C_26
REMARK    8  A    between atoms: C_26  and  C_27
REMARK    9  A    between atoms: C_27  and  C_29
REMARK   10  A    between atoms: C_29  and  O_30
REMARK   11  A    between atoms: C_32  and  O_33
REMARK   12  A    between atoms: O_33  and  C_35
REMARK                            x       y       z     vdW  Elec       q    Type
REMARK                         _______ _______ _______ _____ _____    ______ ____
ROOT
ATOM      1  O   UNL     1     -32.352  25.809   1.552  0.00  0.00    -0.351 OA
ATOM      2  O   UNL     1     -34.013  26.664   3.953  0.00  0.00    -0.349 OA
ATOM      3  C   UNL     1     -34.812  26.433   1.225  0.00  0.00    +0.073 C 
ATOM      4  C   UNL     1     -33.400  26.761   1.663  0.00  0.00    +0.151 C 
ATOM      5  C   UNL     1     -35.433  25.413   2.300  0.00  0.00    +0.079 C 
ATOM      6  C   UNL     1     -33.541  27.537   2.921  0.00  0.00    +0.173 C 
ATOM      7  C   UNL     1     -35.452  27.876   1.423  0.00  0.00    +0.200 C 
ATOM      8  C   UNL     1     -32.224  26.988   0.736  0.00  0.00    +0.172 C 
ATOM      9  C   UNL     1     -34.562  28.596   2.475  0.00  0.00    +0.180 C 
ATOM     10  C   UNL     1     -35.284  26.028   3.733  0.00  0.00    +0.140 C 
ATOM     11  C   UNL     1     -34.927  25.925  -0.215  0.00  0.00    +0.006 C 
ATOM     12  C   UNL     1     -34.716  24.023   2.286  0.00  0.00    +0.054 C 
ATOM     13  C   UNL     1     -35.181  23.046   3.380  0.00  0.00    +0.187 C 
ATOM     14  C   UNL     1     -35.449  25.039   4.857  0.00  0.00    -0.002 C 
ATOM     15  C   UNL     1     -35.433  23.703   4.713  0.00  0.00    -0.007 C 
ATOM     16  C   UNL     1     -35.627  22.790   5.891  0.00  0.00    +0.030 C 
ENDROOT
BRANCH   9  17
ATOM     17  O   UNL     1     -35.324  29.117   3.546  0.00  0.00    -0.379 OA
ATOM     18  H   UNL     1     -36.159  28.628   3.617  0.00  0.00    +0.211 HD
ENDBRANCH   9  17
BRANCH   7  19
ATOM     19  O   UNL     1     -35.397  28.623   0.208  0.00  0.00    -0.450 OA
BRANCH  19  21
ATOM     20  O   UNL     1     -37.450  29.586   0.656  0.00  0.00    -0.250 OA
ATOM     21  C   UNL     1     -36.526  29.325  -0.104  0.00  0.00    +0.318 C 
ATOM     22  C   UNL     1     -36.477  29.745  -1.542  0.00  0.00    +0.121 C 
ENDBRANCH  19  21
ENDBRANCH   7  19
BRANCH  13  23
ATOM     23  O   UNL     1     -36.352  22.364   2.935  0.00  0.00    -0.448 OA
BRANCH  23  25
ATOM     24  O   UNL     1     -35.280  20.321   2.959  0.00  0.00    -0.250 OA
ATOM     25  C   UNL     1     -36.174  21.058   2.566  0.00  0.00    +0.317 C 
BRANCH  25  26
ATOM     26  C   UNL     1     -37.241  20.674   1.562  0.00  0.00    +0.112 C 
BRANCH  26  27
ATOM     27  C   UNL     1     -38.051  21.876   1.054  0.00  0.00    +0.040 C 
ATOM     28  C   UNL     1     -37.515  22.325  -0.310  0.00  0.00    +0.003 C 
BRANCH  27  29
ATOM     29  C   UNL     1     -39.546  21.538   0.960  0.00  0.00    +0.138 C 
BRANCH  29  30
ATOM     30  O   UNL     1     -40.007  21.038   2.209  0.00  0.00    -0.382 OA
ATOM     31  H   UNL     1     -39.320  21.168   2.883  0.00  0.00    +0.210 HD
ENDBRANCH  29  30
ENDBRANCH  27  29
ENDBRANCH  26  27
ENDBRANCH  25  26
ENDBRANCH  23  25
ENDBRANCH  13  23
BRANCH   5  32
ATOM     32  C   UNL     1     -36.941  25.166   2.003  0.00  0.00    +0.211 C 
BRANCH  32  33
ATOM     33  O   UNL     1     -37.671  26.158   2.683  0.00  0.00    -0.448 OA
BRANCH  33  35
ATOM     34  O   UNL     1     -39.904  26.741   2.581  0.00  0.00    -0.250 OA
ATOM     35  C   UNL     1     -39.019  25.933   2.824  0.00  0.00    +0.318 C 
ATOM     36  C   UNL     1     -39.268  24.542   3.324  0.00  0.00    +0.121 C 
ENDBRANCH  33  35
ENDBRANCH  32  33
ENDBRANCH   5  32
TORSDOF 12
ENDMDL
MODEL 4
REMARK VINA RESULT:      -5.6      2.242      6.251
REMARK  Name = 196671
REMARK  12 active torsions:
REMARK  status: ('A' for Active; 'I' for Inactive)
REMARK    1  A    between atoms: C_5  and  C_32
REMARK    2  A    between atoms: C_7  and  O_19
REMARK    3  A    between atoms: C_9  and  O_17
REMARK    4  A    between atoms: C_13  and  O_23
REMARK    5  A    between atoms: O_19  and  C_21
REMARK    6  A    between atoms: O_23  and  C_25
REMARK    7  A    between atoms: C_25  and  C_26
REMARK    8  A    between atoms: C_26  and  C_27
REMARK    9  A    between atoms: C_27  and  C_29
REMARK   10  A    between atoms: C_29  and  O_30
REMARK   11  A    between atoms: C_32  and  O_33
REMARK   12  A    between atoms: O_33  and  C_35
REMARK                            x       y       z     vdW  Elec       q    Type
REMARK                         _______ _______ _______ _____ _____    ______ ____
ROOT
ATOM      1  O   UNL     1     -36.386  23.184   5.375  0.00  0.00    -0.351 OA
ATOM      2  O   UNL     1     -37.394  25.895   4.434  0.00  0.00    -0.349 OA
ATOM      3  C   UNL     1     -35.488  24.175   3.194  0.00  0.00    +0.073 C 
ATOM      4  C   UNL     1     -35.721  24.233   4.690  0.00  0.00    +0.151 C 
ATOM      5  C   UNL     1     -36.903  24.409   2.470  0.00  0.00    +0.079 C 
ATOM      6  C   UNL     1     -36.096  25.640   4.981  0.00  0.00    +0.173 C 
ATOM      7  C   UNL     1     -34.591  25.482   3.052  0.00  0.00    +0.200 C 
ATOM      8  C   UNL     1     -35.005  23.388   5.722  0.00  0.00    +0.172 C 
ATOM      9  C   UNL     1     -34.954  26.381   4.267  0.00  0.00    +0.180 C 
ATOM     10  C   UNL     1     -37.543  25.731   3.014  0.00  0.00    +0.140 C 
ATOM     11  C   UNL     1     -34.773  22.909   2.712  0.00  0.00    +0.006 C 
ATOM     12  C   UNL     1     -37.905  23.236   2.728  0.00  0.00    +0.054 C 
ATOM     13  C   UNL     1     -39.321  23.461   2.166  0.00  0.00    +0.187 C 
ATOM     14  C   UNL     1     -39.017  25.871   2.735  0.00  0.00    -0.002 C 
ATOM     15  C   UNL     1     -39.820  24.873   2.330  0.00  0.00    -0.007 C 
ATOM     16  C   UNL     1     -41.280  25.110   2.055  0.00  0.00    +0.030 C 
ENDROOT
BRANCH   9  17
ATOM     17  O   UNL     1     -35.307  27.691   3.870  0.00  0.00    -0.379 OA
ATOM     18  H   UNL     1     -34.591  28.071   3.337  0.00  0.00    +0.211 HD
ENDBRANCH   9  17
BRANCH   7  19
ATOM     19  O   UNL     1     -33.204  25.153   3.140  0.00  0.00    -0.450 OA
BRANCH  19  21
ATOM     20  O   UNL     1     -31.180  25.974   2.386  0.00  0.00    -0.250 OA
ATOM     21  C   UNL     1     -32.387  25.807   2.264  0.00  0.00    +0.318 C 
ATOM     22  C   UNL     1     -33.189  26.304   1.101  0.00  0.00    +0.121 C 
ENDBRANCH  19  21
ENDBRANCH   7  19
BRANCH  13  23
ATOM     23  O   UNL     1     -39.347  23.083   0.792  0.00  0.00    -0.448 OA
BRANCH  23  25
ATOM     24  O   UNL     1     -40.456  21.066   0.945  0.00  0.00    -0.250 OA
ATOM     25  C   UNL     1     -39.522  21.748   0.546  0.00  0.00    +0.317 C 
BRANCH  25  26
ATOM     26  C   UNL     1     -38.355  21.233  -0.271  0.00  0.00    +0.112 C 
BRANCH  26  27
ATOM     27  C   UNL     1     -37.809  19.890   0.238  0.00  0.00    +0.040 C 
ATOM     28  C   UNL     1     -37.475  18.982  -0.951  0.00  0.00    +0.003 C 
BRANCH  27  29
ATOM     29  C   UNL     1     -36.572  20.095   1.124  0.00  0.00    +0.138 C 
BRANCH  29  30
ATOM     30  O   UNL     1     -36.865  19.703   2.459  0.00  0.00    -0.382 OA
ATOM     31  H   UNL     1     -37.183  20.471   2.959  0.00  0.00    +0.210 HD
ENDBRANCH  29  30
ENDBRANCH  27  29
ENDBRANCH  26  27
ENDBRANCH  25  26
ENDBRANCH  23  25
ENDBRANCH  13  23
BRANCH   5  32
ATOM     32  C   UNL     1     -36.709  24.529   0.930  0.00  0.00    +0.211 C 
BRANCH  32  33
ATOM     33  O   UNL     1     -36.598  25.899   0.627  0.00  0.00    -0.448 OA
BRANCH  33  35
ATOM     34  O   UNL     1     -36.205  26.966  -1.384  0.00  0.00    -0.250 OA
ATOM     35  C   UNL     1     -36.900  26.263  -0.663  0.00  0.00    +0.318 C 
ATOM     36  C   UNL     1     -38.215  25.676  -1.079  0.00  0.00    +0.121 C 
ENDBRANCH  33  35
ENDBRANCH  32  33
ENDBRANCH   5  32
TORSDOF 12
ENDMDL
MODEL 5
REMARK VINA RESULT:      -5.5      2.961      7.957
REMARK  Name = 196671
REMARK  12 active torsions:
REMARK  status: ('A' for Active; 'I' for Inactive)
REMARK    1  A    between atoms: C_5  and  C_32
REMARK    2  A    between atoms: C_7  and  O_19
REMARK    3  A    between atoms: C_9  and  O_17
REMARK    4  A    between atoms: C_13  and  O_23
REMARK    5  A    between atoms: O_19  and  C_21
REMARK    6  A    between atoms: O_23  and  C_25
REMARK    7  A    between atoms: C_25  and  C_26
REMARK    8  A    between atoms: C_26  and  C_27
REMARK    9  A    between atoms: C_27  and  C_29
REMARK   10  A    between atoms: C_29  and  O_30
REMARK   11  A    between atoms: C_32  and  O_33
REMARK   12  A    between atoms: O_33  and  C_35
REMARK                            x       y       z     vdW  Elec       q    Type
REMARK                         _______ _______ _______ _____ _____    ______ ____
ROOT
ATOM      1  O   UNL     1     -30.923  26.450   2.566  0.00  0.00    -0.351 OA
ATOM      2  O   UNL     1     -32.300  27.067   5.207  0.00  0.00    -0.349 OA
ATOM      3  C   UNL     1     -33.004  27.938   2.585  0.00  0.00    +0.073 C 
ATOM      4  C   UNL     1     -31.587  27.622   3.013  0.00  0.00    +0.151 C 
ATOM      5  C   UNL     1     -33.984  26.920   3.350  0.00  0.00    +0.079 C 
ATOM      6  C   UNL     1     -31.512  27.992   4.449  0.00  0.00    +0.173 C 
ATOM      7  C   UNL     1     -33.122  29.386   3.235  0.00  0.00    +0.200 C 
ATOM      8  C   UNL     1     -30.364  27.700   2.125  0.00  0.00    +0.172 C 
ATOM      9  C   UNL     1     -32.089  29.415   4.396  0.00  0.00    +0.180 C 
ATOM     10  C   UNL     1     -33.700  26.995   4.888  0.00  0.00    +0.140 C 
ATOM     11  C   UNL     1     -33.221  27.949   1.069  0.00  0.00    +0.006 C 
ATOM     12  C   UNL     1     -33.785  25.440   2.886  0.00  0.00    +0.054 C 
ATOM     13  C   UNL     1     -34.605  24.401   3.672  0.00  0.00    +0.187 C 
ATOM     14  C   UNL     1     -34.244  25.836   5.681  0.00  0.00    -0.002 C 
ATOM     15  C   UNL     1     -34.678  24.680   5.151  0.00  0.00    -0.007 C 
ATOM     16  C   UNL     1     -35.225  23.581   6.020  0.00  0.00    +0.030 C 
ENDROOT
BRANCH   9  17
ATOM     17  O   UNL     1     -32.674  29.823   5.616  0.00  0.00    -0.379 OA
ATOM     18  H   UNL     1     -32.406  30.733   5.816  0.00  0.00    +0.211 HD
ENDBRANCH   9  17
BRANCH   7  19
ATOM     19  O   UNL     1     -32.760  30.393   2.290  0.00  0.00    -0.450 OA
BRANCH  19  21
ATOM     20  O   UNL     1     -32.919  32.693   2.454  0.00  0.00    -0.250 OA
ATOM     21  C   UNL     1     -33.426  31.579   2.410  0.00  0.00    +0.318 C 
ATOM     22  C   UNL     1     -34.901  31.325   2.479  0.00  0.00    +0.121 C 
ENDBRANCH  19  21
ENDBRANCH   7  19
BRANCH  13  23
ATOM     23  O   UNL     1     -35.917  24.320   3.119  0.00  0.00    -0.448 OA
BRANCH  23  25
ATOM     24  O   UNL     1     -37.636  22.791   3.285  0.00  0.00    -0.250 OA
ATOM     25  C   UNL     1     -36.464  23.066   3.068  0.00  0.00    +0.317 C 
BRANCH  25  26
ATOM     26  C   UNL     1     -35.381  22.062   2.736  0.00  0.00    +0.112 C 
BRANCH  26  27
ATOM     27  C   UNL     1     -35.503  21.491   1.315  0.00  0.00    +0.040 C 
ATOM     28  C   UNL     1     -34.111  21.152   0.770  0.00  0.00    +0.003 C 
BRANCH  27  29
ATOM     29  C   UNL     1     -36.407  20.250   1.292  0.00  0.00    +0.138 C 
BRANCH  29  30
ATOM     30  O   UNL     1     -36.671  19.820   2.621  0.00  0.00    -0.382 OA
ATOM     31  H   UNL     1     -36.168  19.011   2.806  0.00  0.00    +0.210 HD
ENDBRANCH  29  30
ENDBRANCH  27  29
ENDBRANCH  26  27
ENDBRANCH  25  26
ENDBRANCH  23  25
ENDBRANCH  13  23
BRANCH   5  32
ATOM     32  C   UNL     1     -35.471  27.298   3.085  0.00  0.00    +0.211 C 
BRANCH  32  33
ATOM     33  O   UNL     1     -35.738  27.029   1.730  0.00  0.00    -0.448 OA
BRANCH  33  35
ATOM     34  O   UNL     1     -38.046  27.078   1.818  0.00  0.00    -0.250 OA
ATOM     35  C   UNL     1     -36.989  27.369   1.276  0.00  0.00    +0.318 C 
ATOM     36  C   UNL     1     -36.888  28.159   0.005  0.00  0.00    +0.121 C 
ENDBRANCH  33  35
ENDBRANCH  32  33
ENDBRANCH   5  32
TORSDOF 12
ENDMDL
MODEL 6
REMARK VINA RESULT:      -5.2      1.719      3.558
REMARK  Name = 196671
REMARK  12 active torsions:
REMARK  status: ('A' for Active; 'I' for Inactive)
REMARK    1  A    between atoms: C_5  and  C_32
REMARK    2  A    between atoms: C_7  and  O_19
REMARK    3  A    between atoms: C_9  and  O_17
REMARK    4  A    between atoms: C_13  and  O_23
REMARK    5  A    between atoms: O_19  and  C_21
REMARK    6  A    between atoms: O_23  and  C_25
REMARK    7  A    between atoms: C_25  and  C_26
REMARK    8  A    between atoms: C_26  and  C_27
REMARK    9  A    between atoms: C_27  and  C_29
REMARK   10  A    between atoms: C_29  and  O_30
REMARK   11  A    between atoms: C_32  and  O_33
REMARK   12  A    between atoms: O_33  and  C_35
REMARK                            x       y       z     vdW  Elec       q    Type
REMARK                         _______ _______ _______ _____ _____    ______ ____
ROOT
ATOM      1  O   UNL     1     -33.027  21.926   0.359  0.00  0.00    -0.351 OA
ATOM      2  O   UNL     1     -35.533  22.907  -1.060  0.00  0.00    -0.349 OA
ATOM      3  C   UNL     1     -35.264  20.769   0.807  0.00  0.00    +0.073 C 
ATOM      4  C   UNL     1     -34.157  21.215  -0.124  0.00  0.00    +0.151 C 
ATOM      5  C   UNL     1     -36.094  22.074   1.242  0.00  0.00    +0.079 C 
ATOM      6  C   UNL     1     -34.838  21.690  -1.355  0.00  0.00    +0.173 C 
ATOM      7  C   UNL     1     -36.112  19.918  -0.238  0.00  0.00    +0.200 C 
ATOM      8  C   UNL     1     -32.767  20.619  -0.184  0.00  0.00    +0.172 C 
ATOM      9  C   UNL     1     -35.757  20.491  -1.639  0.00  0.00    +0.180 C 
ATOM     10  C   UNL     1     -36.548  22.843  -0.045  0.00  0.00    +0.140 C 
ATOM     11  C   UNL     1     -34.790  19.937   2.003  0.00  0.00    +0.006 C 
ATOM     12  C   UNL     1     -35.248  23.050   2.124  0.00  0.00    +0.054 C 
ATOM     13  C   UNL     1     -35.946  24.379   2.467  0.00  0.00    +0.187 C 
ATOM     14  C   UNL     1     -36.978  24.266   0.198  0.00  0.00    -0.002 C 
ATOM     15  C   UNL     1     -36.741  24.958   1.325  0.00  0.00    -0.007 C 
ATOM     16  C   UNL     1     -37.226  26.372   1.487  0.00  0.00    +0.030 C 
ENDROOT
BRANCH   9  17
ATOM     17  O   UNL     1     -36.911  20.840  -2.376  0.00  0.00    -0.379 OA
ATOM     18  H   UNL     1     -36.768  21.691  -2.818  0.00  0.00    +0.211 HD
ENDBRANCH   9  17
BRANCH   7  19
ATOM     19  O   UNL     1     -35.721  18.546  -0.206  0.00  0.00    -0.450 OA
BRANCH  19  21
ATOM     20  O   UNL     1     -37.920  17.846  -0.315  0.00  0.00    -0.250 OA
ATOM     21  C   UNL     1     -36.719  17.643  -0.434  0.00  0.00    +0.318 C 
ATOM     22  C   UNL     1     -36.127  16.336  -0.865  0.00  0.00    +0.121 C 
ENDBRANCH  19  21
ENDBRANCH   7  19
BRANCH  13  23
ATOM     23  O   UNL     1     -36.783  24.192   3.606  0.00  0.00    -0.448 OA
BRANCH  23  25
ATOM     24  O   UNL     1     -35.955  23.351   5.589  0.00  0.00    -0.250 OA
ATOM     25  C   UNL     1     -36.160  24.282   4.822  0.00  0.00    +0.317 C 
BRANCH  25  26
ATOM     26  C   UNL     1     -35.794  25.727   5.089  0.00  0.00    +0.112 C 
BRANCH  26  27
ATOM     27  C   UNL     1     -34.292  26.007   4.932  0.00  0.00    +0.040 C 
ATOM     28  C   UNL     1     -34.075  27.112   3.891  0.00  0.00    +0.003 C 
BRANCH  27  29
ATOM     29  C   UNL     1     -33.659  26.400   6.275  0.00  0.00    +0.138 C 
BRANCH  29  30
ATOM     30  O   UNL     1     -32.427  27.073   6.049  0.00  0.00    -0.382 OA
ATOM     31  H   UNL     1     -31.719  26.421   5.932  0.00  0.00    +0.210 HD
ENDBRANCH  29  30
ENDBRANCH  27  29
ENDBRANCH  26  27
ENDBRANCH  25  26
ENDBRANCH  23  25
ENDBRANCH  13  23
BRANCH   5  32
ATOM     32  C   UNL     1     -37.351  21.667   2.066  0.00  0.00    +0.211 C 
BRANCH  32  33
ATOM     33  O   UNL     1     -38.336  21.251   1.151  0.00  0.00    -0.448 OA
BRANCH  33  35
ATOM     34  O   UNL     1     -40.621  20.913   1.167  0.00  0.00    -0.250 OA
ATOM     35  C   UNL     1     -39.634  21.570   1.467  0.00  0.00    +0.318 C 
ATOM     36  C   UNL     1     -39.684  22.853   2.242  0.00  0.00    +0.121 C 
ENDBRANCH  33  35
ENDBRANCH  32  33
ENDBRANCH   5  32
TORSDOF 12
ENDMDL
MODEL 7
REMARK VINA RESULT:      -5.2      3.993      8.595
REMARK  Name = 196671
REMARK  12 active torsions:
REMARK  status: ('A' for Active; 'I' for Inactive)
REMARK    1  A    between atoms: C_5  and  C_32
REMARK    2  A    between atoms: C_7  and  O_19
REMARK    3  A    between atoms: C_9  and  O_17
REMARK    4  A    between atoms: C_13  and  O_23
REMARK    5  A    between atoms: O_19  and  C_21
REMARK    6  A    between atoms: O_23  and  C_25
REMARK    7  A    between atoms: C_25  and  C_26
REMARK    8  A    between atoms: C_26  and  C_27
REMARK    9  A    between atoms: C_27  and  C_29
REMARK   10  A    between atoms: C_29  and  O_30
REMARK   11  A    between atoms: C_32  and  O_33
REMARK   12  A    between atoms: O_33  and  C_35
REMARK                            x       y       z     vdW  Elec       q    Type
REMARK                         _______ _______ _______ _____ _____    ______ ____
ROOT
ATOM      1  O   UNL     1     -36.801  29.998   1.426  0.00  0.00    -0.351 OA
ATOM      2  O   UNL     1     -34.486  28.896  -0.212  0.00  0.00    -0.349 OA
ATOM      3  C   UNL     1     -34.397  30.426   2.192  0.00  0.00    +0.073 C 
ATOM      4  C   UNL     1     -35.510  30.530   1.170  0.00  0.00    +0.151 C 
ATOM      5  C   UNL     1     -33.913  28.895   2.233  0.00  0.00    +0.079 C 
ATOM      6  C   UNL     1     -34.869  30.274  -0.145  0.00  0.00    +0.173 C 
ATOM      7  C   UNL     1     -33.311  31.312   1.438  0.00  0.00    +0.200 C 
ATOM      8  C   UNL     1     -36.724  31.427   1.283  0.00  0.00    +0.172 C 
ATOM      9  C   UNL     1     -33.688  31.254  -0.069  0.00  0.00    +0.180 C 
ATOM     10  C   UNL     1     -33.555  28.433   0.780  0.00  0.00    +0.140 C 
ATOM     11  C   UNL     1     -34.755  30.976   3.576  0.00  0.00    +0.006 C 
ATOM     12  C   UNL     1     -35.014  27.937   2.795  0.00  0.00    +0.054 C 
ATOM     13  C   UNL     1     -34.657  26.440   2.741  0.00  0.00    +0.187 C 
ATOM     14  C   UNL     1     -33.472  26.939   0.602  0.00  0.00    -0.002 C 
ATOM     15  C   UNL     1     -33.935  26.035   1.481  0.00  0.00    -0.007 C 
ATOM     16  C   UNL     1     -33.791  24.559   1.229  0.00  0.00    +0.030 C 
ENDROOT
BRANCH   9  17
ATOM     17  O   UNL     1     -32.593  30.865  -0.874  0.00  0.00    -0.379 OA
ATOM     18  H   UNL     1     -32.395  31.568  -1.513  0.00  0.00    +0.211 HD
ENDBRANCH   9  17
BRANCH   7  19
ATOM     19  O   UNL     1     -33.387  32.672   1.864  0.00  0.00    -0.450 OA
BRANCH  19  21
ATOM     20  O   UNL     1     -31.399  32.463   3.023  0.00  0.00    -0.250 OA
ATOM     21  C   UNL     1     -32.296  33.140   2.538  0.00  0.00    +0.318 C 
ATOM     22  C   UNL     1     -32.346  34.636   2.602  0.00  0.00    +0.121 C 
ENDBRANCH  19  21
ENDBRANCH   7  19
BRANCH  13  23
ATOM     23  O   UNL     1     -33.880  26.100   3.887  0.00  0.00    -0.448 OA
BRANCH  23  25
ATOM     24  O   UNL     1     -35.291  26.267   5.704  0.00  0.00    -0.250 OA
ATOM     25  C   UNL     1     -34.581  25.610   4.955  0.00  0.00    +0.317 C 
BRANCH  25  26
ATOM     26  C   UNL     1     -34.311  24.126   5.091  0.00  0.00    +0.112 C 
BRANCH  26  27
ATOM     27  C   UNL     1     -35.589  23.298   5.300  0.00  0.00    +0.040 C 
ATOM     28  C   UNL     1     -36.053  22.712   3.961  0.00  0.00    +0.003 C 
BRANCH  27  29
ATOM     29  C   UNL     1     -35.362  22.179   6.328  0.00  0.00    +0.138 C 
BRANCH  29  30
ATOM     30  O   UNL     1     -35.303  20.922   5.667  0.00  0.00    -0.382 OA
ATOM     31  H   UNL     1     -34.705  20.984   4.906  0.00  0.00    +0.210 HD
ENDBRANCH  29  30
ENDBRANCH  27  29
ENDBRANCH  26  27
ENDBRANCH  25  26
ENDBRANCH  23  25
ENDBRANCH  13  23
BRANCH   5  32
ATOM     32  C   UNL     1     -32.656  28.749   3.141  0.00  0.00    +0.211 C 
BRANCH  32  33
ATOM     33  O   UNL     1     -33.079  28.919   4.472  0.00  0.00    -0.448 OA
BRANCH  33  35
ATOM     34  O   UNL     1     -31.537  27.768   5.750  0.00  0.00    -0.250 OA
ATOM     35  C   UNL     1     -32.110  28.802   5.438  0.00  0.00    +0.318 C 
ATOM     36  C   UNL     1     -31.839  30.134   6.072  0.00  0.00    +0.121 C 
ENDBRANCH  33  35
ENDBRANCH  32  33
ENDBRANCH   5  32
TORSDOF 12
ENDMDL
MODEL 8
REMARK VINA RESULT:      -5.1      3.346      6.057
REMARK  Name = 196671
REMARK  12 active torsions:
REMARK  status: ('A' for Active; 'I' for Inactive)
REMARK    1  A    between atoms: C_5  and  C_32
REMARK    2  A    between atoms: C_7  and  O_19
REMARK    3  A    between atoms: C_9  and  O_17
REMARK    4  A    between atoms: C_13  and  O_23
REMARK    5  A    between atoms: O_19  and  C_21
REMARK    6  A    between atoms: O_23  and  C_25
REMARK    7  A    between atoms: C_25  and  C_26
REMARK    8  A    between atoms: C_26  and  C_27
REMARK    9  A    between atoms: C_27  and  C_29
REMARK   10  A    between atoms: C_29  and  O_30
REMARK   11  A    between atoms: C_32  and  O_33
REMARK   12  A    between atoms: O_33  and  C_35
REMARK                            x       y       z     vdW  Elec       q    Type
REMARK                         _______ _______ _______ _____ _____    ______ ____
ROOT
ATOM      1  O   UNL     1     -35.074  27.028  -0.911  0.00  0.00    -0.351 OA
ATOM      2  O   UNL     1     -36.342  28.370   1.508  0.00  0.00    -0.349 OA
ATOM      3  C   UNL     1     -34.776  25.989   1.408  0.00  0.00    +0.073 C 
ATOM      4  C   UNL     1     -35.644  26.473   0.265  0.00  0.00    +0.151 C 
ATOM      5  C   UNL     1     -34.169  27.282   2.143  0.00  0.00    +0.079 C 
ATOM      6  C   UNL     1     -36.798  27.155   0.902  0.00  0.00    +0.173 C 
ATOM      7  C   UNL     1     -35.922  25.349   2.309  0.00  0.00    +0.200 C 
ATOM      8  C   UNL     1     -35.787  25.790  -1.078  0.00  0.00    +0.172 C 
ATOM      9  C   UNL     1     -37.235  26.076   1.904  0.00  0.00    +0.180 C 
ATOM     10  C   UNL     1     -35.340  28.246   2.531  0.00  0.00    +0.140 C 
ATOM     11  C   UNL     1     -33.703  24.973   1.004  0.00  0.00    +0.006 C 
ATOM     12  C   UNL     1     -33.168  28.068   1.234  0.00  0.00    +0.054 C 
ATOM     13  C   UNL     1     -32.649  29.387   1.834  0.00  0.00    +0.187 C 
ATOM     14  C   UNL     1     -34.909  29.652   2.857  0.00  0.00    -0.002 C 
ATOM     15  C   UNL     1     -33.701  30.169   2.577  0.00  0.00    -0.007 C 
ATOM     16  C   UNL     1     -33.350  31.581   2.959  0.00  0.00    +0.030 C 
ENDROOT
BRANCH   9  17
ATOM     17  O   UNL     1     -37.915  26.603   3.025  0.00  0.00    -0.379 OA
ATOM     18  H   UNL     1     -37.893  25.958   3.750  0.00  0.00    +0.211 HD
ENDBRANCH   9  17
BRANCH   7  19
ATOM     19  O   UNL     1     -36.074  23.960   2.019  0.00  0.00    -0.450 OA
BRANCH  19  21
ATOM     20  O   UNL     1     -37.478  23.428   3.776  0.00  0.00    -0.250 OA
ATOM     21  C   UNL     1     -36.519  23.188   3.053  0.00  0.00    +0.318 C 
ATOM     22  C   UNL     1     -35.652  21.973   3.185  0.00  0.00    +0.121 C 
ENDBRANCH  19  21
ENDBRANCH   7  19
BRANCH  13  23
ATOM     23  O   UNL     1     -31.541  29.111   2.690  0.00  0.00    -0.448 OA
BRANCH  23  25
ATOM     24  O   UNL     1     -30.181  30.620   1.597  0.00  0.00    -0.250 OA
ATOM     25  C   UNL     1     -30.486  29.977   2.592  0.00  0.00    +0.317 C 
BRANCH  25  26
ATOM     26  C   UNL     1     -29.726  29.988   3.902  0.00  0.00    +0.112 C 
BRANCH  26  27
ATOM     27  C   UNL     1     -30.186  28.890   4.874  0.00  0.00    +0.040 C 
ATOM     28  C   UNL     1     -28.967  28.140   5.423  0.00  0.00    +0.003 C 
BRANCH  27  29
ATOM     29  C   UNL     1     -31.018  29.479   6.022  0.00  0.00    +0.138 C 
BRANCH  29  30
ATOM     30  O   UNL     1     -32.397  29.461   5.676  0.00  0.00    -0.382 OA
ATOM     31  H   UNL     1     -32.510  29.808   4.777  0.00  0.00    +0.210 HD
ENDBRANCH  29  30
ENDBRANCH  27  29
ENDBRANCH  26  27
ENDBRANCH  25  26
ENDBRANCH  23  25
ENDBRANCH  13  23
BRANCH   5  32
ATOM     32  C   UNL     1     -33.402  26.862   3.431  0.00  0.00    +0.211 C 
BRANCH  32  33
ATOM     33  O   UNL     1     -34.244  27.128   4.526  0.00  0.00    -0.448 OA
BRANCH  33  35
ATOM     34  O   UNL     1     -33.382  26.824   6.648  0.00  0.00    -0.250 OA
ATOM     35  C   UNL     1     -33.996  26.414   5.673  0.00  0.00    +0.318 C 
ATOM     36  C   UNL     1     -34.589  25.040   5.572  0.00  0.00    +0.121 C 
ENDBRANCH  33  35
ENDBRANCH  32  33
ENDBRANCH   5  32
TORSDOF 12
ENDMDL
MODEL 9
REMARK VINA RESULT:      -5.1      3.078      6.467
REMARK  Name = 196671
REMARK  12 active torsions:
REMARK  status: ('A' for Active; 'I' for Inactive)
REMARK    1  A    between atoms: C_5  and  C_32
REMARK    2  A    between atoms: C_7  and  O_19
REMARK    3  A    between atoms: C_9  and  O_17
REMARK    4  A    between atoms: C_13  and  O_23
REMARK    5  A    between atoms: O_19  and  C_21
REMARK    6  A    between atoms: O_23  and  C_25
REMARK    7  A    between atoms: C_25  and  C_26
REMARK    8  A    between atoms: C_26  and  C_27
REMARK    9  A    between atoms: C_27  and  C_29
REMARK   10  A    between atoms: C_29  and  O_30
REMARK   11  A    between atoms: C_32  and  O_33
REMARK   12  A    between atoms: O_33  and  C_35
REMARK                            x       y       z     vdW  Elec       q    Type
REMARK                         _______ _______ _______ _____ _____    ______ ____
ROOT
ATOM      1  O   UNL     1     -34.078  23.783   4.907  0.00  0.00    -0.351 OA
ATOM      2  O   UNL     1     -34.179  24.200   1.895  0.00  0.00    -0.349 OA
ATOM      3  C   UNL     1     -35.878  25.299   3.904  0.00  0.00    +0.073 C 
ATOM      4  C   UNL     1     -35.182  23.961   4.032  0.00  0.00    +0.151 C 
ATOM      5  C   UNL     1     -34.899  26.285   3.097  0.00  0.00    +0.079 C 
ATOM      6  C   UNL     1     -35.107  23.416   2.653  0.00  0.00    +0.173 C 
ATOM      7  C   UNL     1     -37.076  24.843   2.960  0.00  0.00    +0.200 C 
ATOM      8  C   UNL     1     -35.267  23.039   5.230  0.00  0.00    +0.172 C 
ATOM      9  C   UNL     1     -36.571  23.575   2.216  0.00  0.00    +0.180 C 
ATOM     10  C   UNL     1     -34.477  25.599   1.753  0.00  0.00    +0.140 C 
ATOM     11  C   UNL     1     -36.361  25.892   5.230  0.00  0.00    +0.006 C 
ATOM     12  C   UNL     1     -33.602  26.625   3.902  0.00  0.00    +0.054 C 
ATOM     13  C   UNL     1     -32.565  27.463   3.132  0.00  0.00    +0.187 C 
ATOM     14  C   UNL     1     -33.271  26.212   1.092  0.00  0.00    -0.002 C 
ATOM     15  C   UNL     1     -32.422  27.068   1.685  0.00  0.00    -0.007 C 
ATOM     16  C   UNL     1     -31.252  27.648   0.938  0.00  0.00    +0.030 C 
ENDROOT
BRANCH   9  17
ATOM     17  O   UNL     1     -36.723  23.688   0.815  0.00  0.00    -0.379 OA
ATOM     18  H   UNL     1     -37.666  23.738   0.594  0.00  0.00    +0.211 HD
ENDBRANCH   9  17
BRANCH   7  19
ATOM     19  O   UNL     1     -38.219  24.480   3.735  0.00  0.00    -0.450 OA
BRANCH  19  21
ATOM     20  O   UNL     1     -40.014  23.521   2.641  0.00  0.00    -0.250 OA
ATOM     21  C   UNL     1     -39.411  24.496   3.071  0.00  0.00    +0.318 C 
ATOM     22  C   UNL     1     -39.894  25.908   2.938  0.00  0.00    +0.121 C 
ENDBRANCH  19  21
ENDBRANCH   7  19
BRANCH  13  23
ATOM     23  O   UNL     1     -32.904  28.844   3.237  0.00  0.00    -0.448 OA
BRANCH  23  25
ATOM     24  O   UNL     1     -32.819  30.435   4.905  0.00  0.00    -0.250 OA
ATOM     25  C   UNL     1     -32.309  29.526   4.264  0.00  0.00    +0.317 C 
BRANCH  25  26
ATOM     26  C   UNL     1     -30.902  29.002   4.461  0.00  0.00    +0.112 C 
BRANCH  26  27
ATOM     27  C   UNL     1     -30.617  28.573   5.909  0.00  0.00    +0.040 C 
ATOM     28  C   UNL     1     -29.735  29.621   6.597  0.00  0.00    +0.003 C 
BRANCH  27  29
ATOM     29  C   UNL     1     -31.921  28.367   6.693  0.00  0.00    +0.138 C 
BRANCH  29  30
ATOM     30  O   UNL     1     -32.058  26.997   7.049  0.00  0.00    -0.382 OA
ATOM     31  H   UNL     1     -31.185  26.628   7.258  0.00  0.00    +0.210 HD
ENDBRANCH  29  30
ENDBRANCH  27  29
ENDBRANCH  26  27
ENDBRANCH  25  26
ENDBRANCH  23  25
ENDBRANCH  13  23
BRANCH   5  32
ATOM     32  C   UNL     1     -35.622  27.627   2.782  0.00  0.00    +0.211 C 
BRANCH  32  33
ATOM     33  O   UNL     1     -36.172  27.515   1.492  0.00  0.00    -0.448 OA
BRANCH  33  35
ATOM     34  O   UNL     1     -37.575  29.132   0.623  0.00  0.00    -0.250 OA
ATOM     35  C   UNL     1     -36.455  28.694   0.846  0.00  0.00    +0.318 C 
ATOM     36  C   UNL     1     -35.188  29.388   0.445  0.00  0.00    +0.121 C 
ENDBRANCH  33  35
ENDBRANCH  32  33
ENDBRANCH   5  32
TORSDOF 12
ENDMDL
