MODEL 1
REMARK VINA RESULT:      -6.5      0.000      0.000
REMARK  Name = 213043
REMARK  5 active torsions:
REMARK  status: ('A' for Active; 'I' for Inactive)
REMARK    1  A    between atoms: C_2  and  C_11
REMARK    2  A    between atoms: C_7  and  C_18
REMARK    3  A    between atoms: C_8  and  O_14
REMARK    4  A    between atoms: C_10  and  O_16
REMARK    5  A    between atoms: C_18  and  C_23
REMARK                            x       y       z     vdW  Elec       q    Type
REMARK                         _______ _______ _______ _____ _____    ______ ____
ROOT
ATOM      1  O   UNL     1     -31.665  28.043   4.734  0.00  0.00    -0.471 OA
ATOM      2  C   UNL     1     -31.556  28.046   6.173  0.00  0.00    +0.117 C 
ATOM      3  C   UNL     1     -32.528  27.157   6.906  0.00  0.00    +0.032 C 
ATOM      4  C   UNL     1     -32.796  27.525   4.167  0.00  0.00    +0.246 C 
ATOM      5  C   UNL     1     -33.563  26.567   6.305  0.00  0.00    +0.002 C 
ATOM      6  C   UNL     1     -33.752  26.798   4.883  0.00  0.00    +0.021 C 
ATOM      7  C   UNL     1     -34.870  26.287   4.216  0.00  0.00    -0.015 C 
ATOM      8  C   UNL     1     -32.953  27.730   2.794  0.00  0.00    +0.194 C 
ATOM      9  C   UNL     1     -35.030  26.500   2.845  0.00  0.00    +0.036 C 
ATOM     10  C   UNL     1     -34.071  27.221   2.135  0.00  0.00    +0.172 C 
ENDROOT
BRANCH   2  11
ATOM     11  C   UNL     1     -31.584  29.478   6.638  0.00  0.00    +0.057 C 
ATOM     12  C   UNL     1     -32.184  30.504   5.740  0.00  0.00    +0.008 C 
ATOM     13  C   UNL     1     -30.699  30.464   5.955  0.00  0.00    +0.008 C 
ENDBRANCH   2  11
BRANCH   8  14
ATOM     14  O   UNL     1     -32.017  28.432   2.092  0.00  0.00    -0.469 OA
ATOM     15  C   UNL     1     -32.190  29.844   2.019  0.00  0.00    +0.252 C 
ENDBRANCH   8  14
BRANCH  10  16
ATOM     16  O   UNL     1     -34.237  27.418   0.797  0.00  0.00    -0.469 OA
ATOM     17  C   UNL     1     -35.250  28.340   0.400  0.00  0.00    +0.253 C 
ENDBRANCH  10  16
BRANCH   7  18
ATOM     18  C   UNL     1     -35.930  25.502   4.922  0.00  0.00    +0.058 C 
BRANCH  18  23
ATOM     19  N   UNL     1     -37.935  22.913   3.034  0.00  0.00    -0.323 NA
ATOM     20  N   UNL     1     -35.714  22.063   3.427  0.00  0.00    -0.170 NA
ATOM     21  N   UNL     1     -38.542  25.072   3.806  0.00  0.00    -0.332 N 
ATOM     22  N   UNL     1     -37.310  20.782   2.279  0.00  0.00    -0.293 N 
ATOM     23  C   UNL     1     -36.330  24.232   4.202  0.00  0.00    +0.047 C 
ATOM     24  C   UNL     1     -37.575  24.044   3.676  0.00  0.00    +0.188 C 
ATOM     25  C   UNL     1     -35.423  23.219   4.059  0.00  0.00    +0.112 C 
ATOM     26  C   UNL     1     -36.970  21.978   2.946  0.00  0.00    +0.143 C 
ATOM     27  H   UNL     1     -39.444  24.950   3.432  0.00  0.00    +0.145 HD
ATOM     28  H   UNL     1     -38.310  25.910   4.270  0.00  0.00    +0.145 HD
ATOM     29  H   UNL     1     -38.215  20.666   1.907  0.00  0.00    +0.155 HD
ATOM     30  H   UNL     1     -36.644  20.063   2.186  0.00  0.00    +0.155 HD
ENDBRANCH  18  23
ENDBRANCH   7  18
TORSDOF 5
ENDMDL
MODEL 2
REMARK VINA RESULT:      -6.3      4.020      7.372
REMARK  Name = 213043
REMARK  5 active torsions:
REMARK  status: ('A' for Active; 'I' for Inactive)
REMARK    1  A    between atoms: C_2  and  C_11
REMARK    2  A    between atoms: C_7  and  C_18
REMARK    3  A    between atoms: C_8  and  O_14
REMARK    4  A    between atoms: C_10  and  O_16
REMARK    5  A    between atoms: C_18  and  C_23
REMARK                            x       y       z     vdW  Elec       q    Type
REMARK                         _______ _______ _______ _____ _____    ______ ____
ROOT
ATOM      1  O   UNL     1     -36.741  20.593   0.992  0.00  0.00    -0.471 OA
ATOM      2  C   UNL     1     -35.535  19.885   1.349  0.00  0.00    +0.117 C 
ATOM      3  C   UNL     1     -34.920  20.264   2.672  0.00  0.00    +0.032 C 
ATOM      4  C   UNL     1     -37.053  21.735   1.676  0.00  0.00    +0.246 C 
ATOM      5  C   UNL     1     -35.320  21.322   3.380  0.00  0.00    +0.002 C 
ATOM      6  C   UNL     1     -36.396  22.137   2.842  0.00  0.00    +0.021 C 
ATOM      7  C   UNL     1     -36.796  23.312   3.488  0.00  0.00    -0.015 C 
ATOM      8  C   UNL     1     -38.107  22.496   1.165  0.00  0.00    +0.194 C 
ATOM      9  C   UNL     1     -37.845  24.076   2.971  0.00  0.00    +0.036 C 
ATOM     10  C   UNL     1     -38.500  23.668   1.811  0.00  0.00    +0.172 C 
ENDROOT
BRANCH   2  11
ATOM     11  C   UNL     1     -34.578  19.987   0.190  0.00  0.00    +0.057 C 
ATOM     12  C   UNL     1     -33.120  19.844   0.460  0.00  0.00    +0.008 C 
ATOM     13  C   UNL     1     -33.694  21.183   0.102  0.00  0.00    +0.008 C 
ENDBRANCH   2  11
BRANCH   8  14
ATOM     14  O   UNL     1     -38.755  22.101   0.032  0.00  0.00    -0.469 OA
ATOM     15  C   UNL     1     -39.894  21.260   0.198  0.00  0.00    +0.252 C 
ENDBRANCH   8  14
BRANCH  10  16
ATOM     16  O   UNL     1     -39.524  24.421   1.319  0.00  0.00    -0.469 OA
ATOM     17  C   UNL     1     -39.344  25.836   1.319  0.00  0.00    +0.253 C 
ENDBRANCH  10  16
BRANCH   7  18
ATOM     18  C   UNL     1     -36.135  23.800   4.739  0.00  0.00    +0.058 C 
BRANCH  18  23
ATOM     19  N   UNL     1     -34.557  27.232   4.629  0.00  0.00    -0.323 NA
ATOM     20  N   UNL     1     -33.011  25.620   3.723  0.00  0.00    -0.170 NA
ATOM     21  N   UNL     1     -36.686  26.538   5.409  0.00  0.00    -0.332 N 
ATOM     22  N   UNL     1     -32.444  27.894   3.851  0.00  0.00    -0.293 N 
ATOM     23  C   UNL     1     -35.153  24.928   4.508  0.00  0.00    +0.047 C 
ATOM     24  C   UNL     1     -35.430  26.224   4.833  0.00  0.00    +0.188 C 
ATOM     25  C   UNL     1     -33.932  24.662   3.954  0.00  0.00    +0.112 C 
ATOM     26  C   UNL     1     -33.383  26.865   4.079  0.00  0.00    +0.143 C 
ATOM     27  H   UNL     1     -36.900  27.469   5.648  0.00  0.00    +0.145 HD
ATOM     28  H   UNL     1     -37.346  25.824   5.570  0.00  0.00    +0.145 HD
ATOM     29  H   UNL     1     -32.664  28.823   4.093  0.00  0.00    +0.155 HD
ATOM     30  H   UNL     1     -31.570  27.683   3.451  0.00  0.00    +0.155 HD
ENDBRANCH  18  23
ENDBRANCH   7  18
TORSDOF 5
ENDMDL
MODEL 3
REMARK VINA RESULT:      -6.3      4.518      6.884
REMARK  Name = 213043
REMARK  5 active torsions:
REMARK  status: ('A' for Active; 'I' for Inactive)
REMARK    1  A    between atoms: C_2  and  C_11
REMARK    2  A    between atoms: C_7  and  C_18
REMARK    3  A    between atoms: C_8  and  O_14
REMARK    4  A    between atoms: C_10  and  O_16
REMARK    5  A    between atoms: C_18  and  C_23
REMARK                            x       y       z     vdW  Elec       q    Type
REMARK                         _______ _______ _______ _____ _____    ______ ____
ROOT
ATOM      1  O   UNL     1     -36.742  24.492   4.824  0.00  0.00    -0.471 OA
ATOM      2  C   UNL     1     -35.528  24.586   5.597  0.00  0.00    +0.117 C 
ATOM      3  C   UNL     1     -34.637  25.759   5.278  0.00  0.00    +0.032 C 
ATOM      4  C   UNL     1     -36.847  25.237   3.682  0.00  0.00    +0.246 C 
ATOM      5  C   UNL     1     -34.827  26.545   4.217  0.00  0.00    +0.002 C 
ATOM      6  C   UNL     1     -35.946  26.248   3.338  0.00  0.00    +0.021 C 
ATOM      7  C   UNL     1     -36.143  26.975   2.159  0.00  0.00    -0.015 C 
ATOM      8  C   UNL     1     -37.942  24.961   2.859  0.00  0.00    +0.194 C 
ATOM      9  C   UNL     1     -37.232  26.692   1.332  0.00  0.00    +0.036 C 
ATOM     10  C   UNL     1     -38.132  25.686   1.683  0.00  0.00    +0.172 C 
ENDROOT
BRANCH   2  11
ATOM     11  C   UNL     1     -34.823  23.257   5.519  0.00  0.00    +0.057 C 
ATOM     12  C   UNL     1     -35.517  22.125   4.845  0.00  0.00    +0.008 C 
ATOM     13  C   UNL     1     -35.347  22.126   6.335  0.00  0.00    +0.008 C 
ENDBRANCH   2  11
BRANCH   8  14
ATOM     14  O   UNL     1     -38.827  23.980   3.197  0.00  0.00    -0.469 OA
ATOM     15  C   UNL     1     -38.684  22.725   2.539  0.00  0.00    +0.252 C 
ENDBRANCH   8  14
BRANCH  10  16
ATOM     16  O   UNL     1     -39.193  25.423   0.870  0.00  0.00    -0.469 OA
ATOM     17  C   UNL     1     -40.289  26.335   0.921  0.00  0.00    +0.253 C 
ENDBRANCH  10  16
BRANCH   7  18
ATOM     18  C   UNL     1     -35.215  28.069   1.731  0.00  0.00    +0.058 C 
BRANCH  18  23
ATOM     19  N   UNL     1     -36.105  31.641   2.586  0.00  0.00    -0.323 NA
ATOM     20  N   UNL     1     -37.417  30.930   0.694  0.00  0.00    -0.170 NA
ATOM     21  N   UNL     1     -34.555  30.154   3.593  0.00  0.00    -0.332 N 
ATOM     22  N   UNL     1     -37.643  33.094   1.573  0.00  0.00    -0.293 N 
ATOM     23  C   UNL     1     -35.859  29.439   1.710  0.00  0.00    +0.047 C 
ATOM     24  C   UNL     1     -35.533  30.419   2.602  0.00  0.00    +0.188 C 
ATOM     25  C   UNL     1     -36.806  29.729   0.768  0.00  0.00    +0.112 C 
ATOM     26  C   UNL     1     -37.025  31.826   1.620  0.00  0.00    +0.143 C 
ATOM     27  H   UNL     1     -34.311  30.852   4.243  0.00  0.00    +0.145 HD
ATOM     28  H   UNL     1     -34.120  29.271   3.631  0.00  0.00    +0.145 HD
ATOM     29  H   UNL     1     -37.394  33.788   2.226  0.00  0.00    +0.155 HD
ATOM     30  H   UNL     1     -38.323  33.284   0.887  0.00  0.00    +0.155 HD
ENDBRANCH  18  23
ENDBRANCH   7  18
TORSDOF 5
ENDMDL
MODEL 4
REMARK VINA RESULT:      -6.2      5.120      8.523
REMARK  Name = 213043
REMARK  5 active torsions:
REMARK  status: ('A' for Active; 'I' for Inactive)
REMARK    1  A    between atoms: C_2  and  C_11
REMARK    2  A    between atoms: C_7  and  C_18
REMARK    3  A    between atoms: C_8  and  O_14
REMARK    4  A    between atoms: C_10  and  O_16
REMARK    5  A    between atoms: C_18  and  C_23
REMARK                            x       y       z     vdW  Elec       q    Type
REMARK                         _______ _______ _______ _____ _____    ______ ____
ROOT
ATOM      1  O   UNL     1     -35.297  18.743  -0.713  0.00  0.00    -0.471 OA
ATOM      2  C   UNL     1     -33.886  18.450  -0.648  0.00  0.00    +0.117 C 
ATOM      3  C   UNL     1     -33.213  18.755   0.666  0.00  0.00    +0.032 C 
ATOM      4  C   UNL     1     -35.841  19.546   0.250  0.00  0.00    +0.246 C 
ATOM      5  C   UNL     1     -33.808  19.446   1.641  0.00  0.00    +0.002 C 
ATOM      6  C   UNL     1     -35.163  19.919   1.415  0.00  0.00    +0.021 C 
ATOM      7  C   UNL     1     -35.806  20.729   2.357  0.00  0.00    -0.015 C 
ATOM      8  C   UNL     1     -37.154  19.972   0.035  0.00  0.00    +0.194 C 
ATOM      9  C   UNL     1     -37.115  21.160   2.137  0.00  0.00    +0.036 C 
ATOM     10  C   UNL     1     -37.789  20.781   0.976  0.00  0.00    +0.172 C 
ENDROOT
BRANCH   2  11
ATOM     11  C   UNL     1     -33.220  19.105  -1.830  0.00  0.00    +0.057 C 
ATOM     12  C   UNL     1     -32.170  20.129  -1.575  0.00  0.00    +0.008 C 
ATOM     13  C   UNL     1     -33.513  20.540  -2.104  0.00  0.00    +0.008 C 
ENDBRANCH   2  11
BRANCH   8  14
ATOM     14  O   UNL     1     -37.820  19.603  -1.096  0.00  0.00    -0.469 OA
ATOM     15  C   UNL     1     -38.619  18.425  -1.020  0.00  0.00    +0.252 C 
ENDBRANCH   8  14
BRANCH  10  16
ATOM     16  O   UNL     1     -39.068  21.207   0.776  0.00  0.00    -0.469 OA
ATOM     17  C   UNL     1     -39.724  21.828   1.879  0.00  0.00    +0.253 C 
ENDBRANCH  10  16
BRANCH   7  18
ATOM     18  C   UNL     1     -35.137  21.164   3.623  0.00  0.00    +0.058 C 
BRANCH  18  23
ATOM     19  N   UNL     1     -36.148  24.209   5.621  0.00  0.00    -0.323 NA
ATOM     20  N   UNL     1     -35.568  24.888   3.382  0.00  0.00    -0.170 NA
ATOM     21  N   UNL     1     -36.026  21.924   6.247  0.00  0.00    -0.332 N 
ATOM     22  N   UNL     1     -36.259  26.463   4.979  0.00  0.00    -0.293 N 
ATOM     23  C   UNL     1     -35.448  22.593   4.016  0.00  0.00    +0.047 C 
ATOM     24  C   UNL     1     -35.869  22.937   5.268  0.00  0.00    +0.188 C 
ATOM     25  C   UNL     1     -35.309  23.595   3.097  0.00  0.00    +0.112 C 
ATOM     26  C   UNL     1     -35.978  25.121   4.644  0.00  0.00    +0.143 C 
ATOM     27  H   UNL     1     -36.329  22.159   7.153  0.00  0.00    +0.145 HD
ATOM     28  H   UNL     1     -35.832  20.986   6.019  0.00  0.00    +0.145 HD
ATOM     29  H   UNL     1     -36.562  26.691   5.888  0.00  0.00    +0.155 HD
ATOM     30  H   UNL     1     -36.153  27.171   4.303  0.00  0.00    +0.155 HD
ENDBRANCH  18  23
ENDBRANCH   7  18
TORSDOF 5
ENDMDL
MODEL 5
REMARK VINA RESULT:      -5.9      3.866      7.789
REMARK  Name = 213043
REMARK  5 active torsions:
REMARK  status: ('A' for Active; 'I' for Inactive)
REMARK    1  A    between atoms: C_2  and  C_11
REMARK    2  A    between atoms: C_7  and  C_18
REMARK    3  A    between atoms: C_8  and  O_14
REMARK    4  A    between atoms: C_10  and  O_16
REMARK    5  A    between atoms: C_18  and  C_23
REMARK                            x       y       z     vdW  Elec       q    Type
REMARK                         _______ _______ _______ _____ _____    ______ ____
ROOT
ATOM      1  O   UNL     1     -36.959  22.067   0.796  0.00  0.00    -0.471 OA
ATOM      2  C   UNL     1     -37.748  22.918  -0.061  0.00  0.00    +0.117 C 
ATOM      3  C   UNL     1     -37.829  24.366   0.348  0.00  0.00    +0.032 C 
ATOM      4  C   UNL     1     -36.626  22.523   2.041  0.00  0.00    +0.246 C 
ATOM      5  C   UNL     1     -37.391  24.810   1.528  0.00  0.00    +0.002 C 
ATOM      6  C   UNL     1     -36.814  23.847   2.450  0.00  0.00    +0.021 C 
ATOM      7  C   UNL     1     -36.425  24.232   3.738  0.00  0.00    -0.015 C 
ATOM      8  C   UNL     1     -36.046  21.595   2.909  0.00  0.00    +0.194 C 
ATOM      9  C   UNL     1     -35.853  23.301   4.607  0.00  0.00    +0.036 C 
ATOM     10  C   UNL     1     -35.663  21.983   4.192  0.00  0.00    +0.172 C 
ENDROOT
BRANCH   2  11
ATOM     11  C   UNL     1     -39.095  22.269  -0.247  0.00  0.00    +0.057 C 
ATOM     12  C   UNL     1     -40.052  22.285   0.894  0.00  0.00    +0.008 C 
ATOM     13  C   UNL     1     -39.381  21.005   0.489  0.00  0.00    +0.008 C 
ENDBRANCH   2  11
BRANCH   8  14
ATOM     14  O   UNL     1     -35.855  20.305   2.509  0.00  0.00    -0.469 OA
ATOM     15  C   UNL     1     -34.603  19.997   1.901  0.00  0.00    +0.252 C 
ENDBRANCH   8  14
BRANCH  10  16
ATOM     16  O   UNL     1     -35.101  21.086   5.050  0.00  0.00    -0.469 OA
ATOM     17  C   UNL     1     -34.844  21.535   6.379  0.00  0.00    +0.253 C 
ENDBRANCH  10  16
BRANCH   7  18
ATOM     18  C   UNL     1     -36.598  25.631   4.238  0.00  0.00    +0.058 C 
BRANCH  18  23
ATOM     19  N   UNL     1     -33.706  28.023   3.790  0.00  0.00    -0.323 NA
ATOM     20  N   UNL     1     -33.317  26.668   5.745  0.00  0.00    -0.170 NA
ATOM     21  N   UNL     1     -35.674  27.723   2.500  0.00  0.00    -0.332 N 
ATOM     22  N   UNL     1     -31.768  28.302   5.083  0.00  0.00    -0.293 N 
ATOM     23  C   UNL     1     -35.293  26.370   4.445  0.00  0.00    +0.047 C 
ATOM     24  C   UNL     1     -34.869  27.363   3.610  0.00  0.00    +0.188 C 
ATOM     25  C   UNL     1     -34.491  26.048   5.504  0.00  0.00    +0.112 C 
ATOM     26  C   UNL     1     -32.990  27.631   4.862  0.00  0.00    +0.143 C 
ATOM     27  H   UNL     1     -35.380  28.437   1.890  0.00  0.00    +0.145 HD
ATOM     28  H   UNL     1     -36.528  27.259   2.341  0.00  0.00    +0.145 HD
ATOM     29  H   UNL     1     -31.480  29.015   4.468  0.00  0.00    +0.155 HD
ATOM     30  H   UNL     1     -31.204  28.056   5.851  0.00  0.00    +0.155 HD
ENDBRANCH  18  23
ENDBRANCH   7  18
TORSDOF 5
ENDMDL
MODEL 6
REMARK VINA RESULT:      -5.9      4.081      7.100
REMARK  Name = 213043
REMARK  5 active torsions:
REMARK  status: ('A' for Active; 'I' for Inactive)
REMARK    1  A    between atoms: C_2  and  C_11
REMARK    2  A    between atoms: C_7  and  C_18
REMARK    3  A    between atoms: C_8  and  O_14
REMARK    4  A    between atoms: C_10  and  O_16
REMARK    5  A    between atoms: C_18  and  C_23
REMARK                            x       y       z     vdW  Elec       q    Type
REMARK                         _______ _______ _______ _____ _____    ______ ____
ROOT
ATOM      1  O   UNL     1     -34.320  20.714  -0.311  0.00  0.00    -0.471 OA
ATOM      2  C   UNL     1     -33.982  19.694   0.651  0.00  0.00    +0.117 C 
ATOM      3  C   UNL     1     -34.627  19.832   2.006  0.00  0.00    +0.032 C 
ATOM      4  C   UNL     1     -34.906  21.865   0.136  0.00  0.00    +0.246 C 
ATOM      5  C   UNL     1     -35.295  20.924   2.382  0.00  0.00    +0.002 C 
ATOM      6  C   UNL     1     -35.399  22.022   1.435  0.00  0.00    +0.021 C 
ATOM      7  C   UNL     1     -36.003  23.230   1.801  0.00  0.00    -0.015 C 
ATOM      8  C   UNL     1     -35.025  22.903  -0.791  0.00  0.00    +0.194 C 
ATOM      9  C   UNL     1     -36.114  24.269   0.876  0.00  0.00    +0.036 C 
ATOM     10  C   UNL     1     -35.625  24.105  -0.420  0.00  0.00    +0.172 C 
ENDROOT
BRANCH   2  11
ATOM     11  C   UNL     1     -32.480  19.590   0.709  0.00  0.00    +0.057 C 
ATOM     12  C   UNL     1     -31.783  18.800  -0.344  0.00  0.00    +0.008 C 
ATOM     13  C   UNL     1     -31.872  18.275   1.059  0.00  0.00    +0.008 C 
ENDBRANCH   2  11
BRANCH   8  14
ATOM     14  O   UNL     1     -34.553  22.748  -2.061  0.00  0.00    -0.469 OA
ATOM     15  C   UNL     1     -35.478  22.290  -3.043  0.00  0.00    +0.252 C 
ENDBRANCH   8  14
BRANCH  10  16
ATOM     16  O   UNL     1     -35.743  25.127  -1.314  0.00  0.00    -0.469 OA
ATOM     17  C   UNL     1     -37.004  25.789  -1.377  0.00  0.00    +0.253 C 
ENDBRANCH  10  16
BRANCH   7  18
ATOM     18  C   UNL     1     -36.550  23.464   3.174  0.00  0.00    +0.058 C 
BRANCH  18  23
ATOM     19  N   UNL     1     -35.484  26.476   5.193  0.00  0.00    -0.323 NA
ATOM     20  N   UNL     1     -33.647  24.922   5.058  0.00  0.00    -0.170 NA
ATOM     21  N   UNL     1     -37.551  25.977   4.141  0.00  0.00    -0.332 N 
ATOM     22  N   UNL     1     -33.431  26.947   6.225  0.00  0.00    -0.293 N 
ATOM     23  C   UNL     1     -35.725  24.425   4.002  0.00  0.00    +0.047 C 
ATOM     24  C   UNL     1     -36.217  25.616   4.455  0.00  0.00    +0.188 C 
ATOM     25  C   UNL     1     -34.435  24.111   4.323  0.00  0.00    +0.112 C 
ATOM     26  C   UNL     1     -34.226  26.072   5.454  0.00  0.00    +0.143 C 
ATOM     27  H   UNL     1     -37.918  26.832   4.460  0.00  0.00    +0.145 HD
ATOM     28  H   UNL     1     -38.111  25.370   3.603  0.00  0.00    +0.145 HD
ATOM     29  H   UNL     1     -33.804  27.801   6.542  0.00  0.00    +0.155 HD
ATOM     30  H   UNL     1     -32.504  26.702   6.446  0.00  0.00    +0.155 HD
ENDBRANCH  18  23
ENDBRANCH   7  18
TORSDOF 5
ENDMDL
MODEL 7
REMARK VINA RESULT:      -5.9      3.996      6.273
REMARK  Name = 213043
REMARK  5 active torsions:
REMARK  status: ('A' for Active; 'I' for Inactive)
REMARK    1  A    between atoms: C_2  and  C_11
REMARK    2  A    between atoms: C_7  and  C_18
REMARK    3  A    between atoms: C_8  and  O_14
REMARK    4  A    between atoms: C_10  and  O_16
REMARK    5  A    between atoms: C_18  and  C_23
REMARK                            x       y       z     vdW  Elec       q    Type
REMARK                         _______ _______ _______ _____ _____    ______ ____
ROOT
ATOM      1  O   UNL     1     -36.678  24.301   4.948  0.00  0.00    -0.471 OA
ATOM      2  C   UNL     1     -35.507  24.296   5.791  0.00  0.00    +0.117 C 
ATOM      3  C   UNL     1     -34.588  25.482   5.644  0.00  0.00    +0.032 C 
ATOM      4  C   UNL     1     -36.714  25.163   3.887  0.00  0.00    +0.246 C 
ATOM      5  C   UNL     1     -34.714  26.377   4.663  0.00  0.00    +0.002 C 
ATOM      6  C   UNL     1     -35.785  26.191   3.699  0.00  0.00    +0.021 C 
ATOM      7  C   UNL     1     -35.911  27.039   2.594  0.00  0.00    -0.015 C 
ATOM      8  C   UNL     1     -37.765  24.991   2.983  0.00  0.00    +0.194 C 
ATOM      9  C   UNL     1     -36.957  26.861   1.687  0.00  0.00    +0.036 C 
ATOM     10  C   UNL     1     -37.884  25.838   1.882  0.00  0.00    +0.172 C 
ENDROOT
BRANCH   2  11
ATOM     11  C   UNL     1     -34.811  22.972   5.610  0.00  0.00    +0.057 C 
ATOM     12  C   UNL     1     -35.510  21.902   4.845  0.00  0.00    +0.008 C 
ATOM     13  C   UNL     1     -35.348  21.784   6.332  0.00  0.00    +0.008 C 
ENDBRANCH   2  11
BRANCH   8  14
ATOM     14  O   UNL     1     -38.677  23.994   3.169  0.00  0.00    -0.469 OA
ATOM     15  C   UNL     1     -38.424  22.756   2.510  0.00  0.00    +0.252 C 
ENDBRANCH   8  14
BRANCH  10  16
ATOM     16  O   UNL     1     -38.902  25.678   0.990  0.00  0.00    -0.469 OA
ATOM     17  C   UNL     1     -39.664  26.838   0.664  0.00  0.00    +0.253 C 
ENDBRANCH  10  16
BRANCH   7  18
ATOM     18  C   UNL     1     -34.952  28.158   2.334  0.00  0.00    +0.058 C 
BRANCH  18  23
ATOM     19  N   UNL     1     -31.197  27.751   2.184  0.00  0.00    -0.323 NA
ATOM     20  N   UNL     1     -32.216  26.305   0.547  0.00  0.00    -0.170 NA
ATOM     21  N   UNL     1     -32.545  29.128   3.566  0.00  0.00    -0.332 N 
ATOM     22  N   UNL     1     -29.885  26.378   0.806  0.00  0.00    -0.293 N 
ATOM     23  C   UNL     1     -33.567  27.692   1.938  0.00  0.00    +0.047 C 
ATOM     24  C   UNL     1     -32.433  28.163   2.535  0.00  0.00    +0.188 C 
ATOM     25  C   UNL     1     -33.421  26.763   0.946  0.00  0.00    +0.112 C 
ATOM     26  C   UNL     1     -31.162  26.834   1.198  0.00  0.00    +0.143 C 
ATOM     27  H   UNL     1     -31.736  29.476   4.005  0.00  0.00    +0.145 HD
ATOM     28  H   UNL     1     -33.434  29.450   3.845  0.00  0.00    +0.145 HD
ATOM     29  H   UNL     1     -29.079  26.731   1.249  0.00  0.00    +0.155 HD
ATOM     30  H   UNL     1     -29.800  25.708   0.090  0.00  0.00    +0.155 HD
ENDBRANCH  18  23
ENDBRANCH   7  18
TORSDOF 5
ENDMDL
MODEL 8
REMARK VINA RESULT:      -5.9      4.034      6.476
REMARK  Name = 213043
REMARK  5 active torsions:
REMARK  status: ('A' for Active; 'I' for Inactive)
REMARK    1  A    between atoms: C_2  and  C_11
REMARK    2  A    between atoms: C_7  and  C_18
REMARK    3  A    between atoms: C_8  and  O_14
REMARK    4  A    between atoms: C_10  and  O_16
REMARK    5  A    between atoms: C_18  and  C_23
REMARK                            x       y       z     vdW  Elec       q    Type
REMARK                         _______ _______ _______ _____ _____    ______ ____
ROOT
ATOM      1  O   UNL     1     -35.964  24.937   3.139  0.00  0.00    -0.471 OA
ATOM      2  C   UNL     1     -34.639  25.509   3.119  0.00  0.00    +0.117 C 
ATOM      3  C   UNL     1     -33.749  25.059   1.989  0.00  0.00    +0.032 C 
ATOM      4  C   UNL     1     -36.209  23.832   2.373  0.00  0.00    +0.246 C 
ATOM      5  C   UNL     1     -34.063  24.046   1.178  0.00  0.00    +0.002 C 
ATOM      6  C   UNL     1     -35.321  23.354   1.405  0.00  0.00    +0.021 C 
ATOM      7  C   UNL     1     -35.664  22.226   0.652  0.00  0.00    -0.015 C 
ATOM      8  C   UNL     1     -37.433  23.191   2.580  0.00  0.00    +0.194 C 
ATOM      9  C   UNL     1     -36.884  21.582   0.866  0.00  0.00    +0.036 C 
ATOM     10  C   UNL     1     -37.768  22.065   1.829  0.00  0.00    +0.172 C 
ENDROOT
BRANCH   2  11
ATOM     11  C   UNL     1     -34.028  25.311   4.481  0.00  0.00    +0.057 C 
ATOM     12  C   UNL     1     -34.744  24.450   5.462  0.00  0.00    +0.008 C 
ATOM     13  C   UNL     1     -34.696  25.937   5.657  0.00  0.00    +0.008 C 
ENDBRANCH   2  11
BRANCH   8  14
ATOM     14  O   UNL     1     -38.305  23.660   3.519  0.00  0.00    -0.469 OA
ATOM     15  C   UNL     1     -39.291  24.589   3.077  0.00  0.00    +0.252 C 
ENDBRANCH   8  14
BRANCH  10  16
ATOM     16  O   UNL     1     -38.957  21.429   2.025  0.00  0.00    -0.469 OA
ATOM     17  C   UNL     1     -39.894  21.463   0.950  0.00  0.00    +0.253 C 
ENDBRANCH  10  16
BRANCH   7  18
ATOM     18  C   UNL     1     -34.759  21.663  -0.399  0.00  0.00    +0.058 C 
BRANCH  18  23
ATOM     19  N   UNL     1     -31.631  19.716   0.442  0.00  0.00    -0.323 NA
ATOM     20  N   UNL     1     -33.557  18.492   1.216  0.00  0.00    -0.170 NA
ATOM     21  N   UNL     1     -31.901  21.803  -0.653  0.00  0.00    -0.332 N 
ATOM     22  N   UNL     1     -31.389  17.651   1.528  0.00  0.00    -0.293 N 
ATOM     23  C   UNL     1     -33.824  20.589   0.114  0.00  0.00    +0.047 C 
ATOM     24  C   UNL     1     -32.467  20.672  -0.014  0.00  0.00    +0.188 C 
ATOM     25  C   UNL     1     -34.335  19.484   0.735  0.00  0.00    +0.112 C 
ATOM     26  C   UNL     1     -32.233  18.669   1.038  0.00  0.00    +0.143 C 
ATOM     27  H   UNL     1     -30.924  21.875  -0.752  0.00  0.00    +0.145 HD
ATOM     28  H   UNL     1     -32.485  22.518  -0.997  0.00  0.00    +0.145 HD
ATOM     29  H   UNL     1     -30.412  17.729   1.425  0.00  0.00    +0.155 HD
ATOM     30  H   UNL     1     -31.776  16.862   1.972  0.00  0.00    +0.155 HD
ENDBRANCH  18  23
ENDBRANCH   7  18
TORSDOF 5
ENDMDL
MODEL 9
REMARK VINA RESULT:      -5.8      5.058      8.954
REMARK  Name = 213043
REMARK  5 active torsions:
REMARK  status: ('A' for Active; 'I' for Inactive)
REMARK    1  A    between atoms: C_2  and  C_11
REMARK    2  A    between atoms: C_7  and  C_18
REMARK    3  A    between atoms: C_8  and  O_14
REMARK    4  A    between atoms: C_10  and  O_16
REMARK    5  A    between atoms: C_18  and  C_23
REMARK                            x       y       z     vdW  Elec       q    Type
REMARK                         _______ _______ _______ _____ _____    ______ ____
ROOT
ATOM      1  O   UNL     1     -37.543  18.936  -0.697  0.00  0.00    -0.471 OA
ATOM      2  C   UNL     1     -36.255  18.409  -1.075  0.00  0.00    +0.117 C 
ATOM      3  C   UNL     1     -35.125  18.691  -0.119  0.00  0.00    +0.032 C 
ATOM      4  C   UNL     1     -37.596  19.891   0.280  0.00  0.00    +0.246 C 
ATOM      5  C   UNL     1     -35.236  19.545   0.901  0.00  0.00    +0.002 C 
ATOM      6  C   UNL     1     -36.506  20.227   1.087  0.00  0.00    +0.021 C 
ATOM      7  C   UNL     1     -36.656  21.203   2.078  0.00  0.00    -0.015 C 
ATOM      8  C   UNL     1     -38.829  20.520   0.468  0.00  0.00    +0.194 C 
ATOM      9  C   UNL     1     -37.887  21.837   2.259  0.00  0.00    +0.036 C 
ATOM     10  C   UNL     1     -38.973  21.495   1.455  0.00  0.00    +0.172 C 
ENDROOT
BRANCH   2  11
ATOM     11  C   UNL     1     -35.970  18.850  -2.488  0.00  0.00    +0.057 C 
ATOM     12  C   UNL     1     -35.919  20.309  -2.779  0.00  0.00    +0.008 C 
ATOM     13  C   UNL     1     -37.069  19.481  -3.270  0.00  0.00    +0.008 C 
ENDBRANCH   2  11
BRANCH   8  14
ATOM     14  O   UNL     1     -39.897  20.188  -0.313  0.00  0.00    -0.469 OA
ATOM     15  C   UNL     1     -40.145  21.009  -1.451  0.00  0.00    +0.252 C 
ENDBRANCH   8  14
BRANCH  10  16
ATOM     16  O   UNL     1     -40.169  22.119   1.645  0.00  0.00    -0.469 OA
ATOM     17  C   UNL     1     -40.141  23.535   1.810  0.00  0.00    +0.253 C 
ENDBRANCH  10  16
BRANCH   7  18
ATOM     18  C   UNL     1     -35.529  21.609   2.975  0.00  0.00    +0.058 C 
BRANCH  18  23
ATOM     19  N   UNL     1     -36.095  24.304   5.565  0.00  0.00    -0.323 NA
ATOM     20  N   UNL     1     -35.901  25.324   3.390  0.00  0.00    -0.170 NA
ATOM     21  N   UNL     1     -35.924  21.950   5.800  0.00  0.00    -0.332 N 
ATOM     22  N   UNL     1     -36.260  26.630   5.306  0.00  0.00    -0.293 N 
ATOM     23  C   UNL     1     -35.730  22.959   3.631  0.00  0.00    +0.047 C 
ATOM     24  C   UNL     1     -35.915  23.103   4.976  0.00  0.00    +0.188 C 
ATOM     25  C   UNL     1     -35.728  24.092   2.868  0.00  0.00    +0.112 C 
ATOM     26  C   UNL     1     -36.076  25.357   4.725  0.00  0.00    +0.143 C 
ATOM     27  H   UNL     1     -36.056  22.039   6.771  0.00  0.00    +0.145 HD
ATOM     28  H   UNL     1     -35.796  21.058   5.400  0.00  0.00    +0.145 HD
ATOM     29  H   UNL     1     -36.392  26.712   6.279  0.00  0.00    +0.155 HD
ATOM     30  H   UNL     1     -36.256  27.435   4.740  0.00  0.00    +0.155 HD
ENDBRANCH  18  23
ENDBRANCH   7  18
TORSDOF 5
ENDMDL
