MODEL 1
REMARK VINA RESULT:      -4.9      0.000      0.000
REMARK  Name = 5937
REMARK  7 active torsions:
REMARK  status: ('A' for Active; 'I' for Inactive)
REMARK    1  A    between atoms: C_1  and  C_2
REMARK    2  A    between atoms: C_1  and  C_9
REMARK    3  A    between atoms: C_2  and  O_4
REMARK    4  A    between atoms: O_4  and  S_5
REMARK    5  A    between atoms: C_9  and  C_10
REMARK    6  A    between atoms: C_10  and  O_12
REMARK    7  A    between atoms: O_12  and  S_13
REMARK                            x       y       z     vdW  Elec       q    Type
REMARK                         _______ _______ _______ _____ _____    ______ ____
ROOT
ATOM      1  C   UNL     1     -35.453  24.443   5.685  0.00  0.00    +0.035 C 
ENDROOT
BRANCH   1   2
ATOM      2  C   UNL     1     -35.290  22.980   5.259  0.00  0.00    +0.143 C 
ATOM      3  C   UNL     1     -35.381  22.044   6.457  0.00  0.00    +0.035 C 
BRANCH   2   4
ATOM      4  O   UNL     1     -36.322  22.645   4.336  0.00  0.00    -0.245 OA
BRANCH   4   5
ATOM      5  S   UNL     1     -35.908  21.936   2.926  0.00  0.00    -0.005 S 
ATOM      6  O   UNL     1     -35.580  20.546   3.165  0.00  0.00    -0.072 OA
ATOM      7  O   UNL     1     -35.030  22.817   2.183  0.00  0.00    -0.072 OA
ATOM      8  C   UNL     1     -37.518  22.005   2.183  0.00  0.00    +0.181 C 
ENDBRANCH   4   5
ENDBRANCH   2   4
ENDBRANCH   1   2
BRANCH   1   9
ATOM      9  C   UNL     1     -36.396  25.215   4.751  0.00  0.00    +0.035 C 
BRANCH   9  10
ATOM     10  C   UNL     1     -35.632  25.989   3.672  0.00  0.00    +0.143 C 
ATOM     11  C   UNL     1     -36.568  26.469   2.571  0.00  0.00    +0.035 C 
BRANCH  10  12
ATOM     12  O   UNL     1     -35.002  27.120   4.266  0.00  0.00    -0.245 OA
BRANCH  12  13
ATOM     13  S   UNL     1     -33.376  27.237   4.188  0.00  0.00    -0.005 S 
ATOM     14  O   UNL     1     -32.825  25.980   3.721  0.00  0.00    -0.072 OA
ATOM     15  O   UNL     1     -32.881  27.899   5.377  0.00  0.00    -0.072 OA
ATOM     16  C   UNL     1     -33.321  28.395   2.844  0.00  0.00    +0.181 C 
ENDBRANCH  12  13
ENDBRANCH  10  12
ENDBRANCH   9  10
ENDBRANCH   1   9
TORSDOF 7
ENDMDL
MODEL 2
REMARK VINA RESULT:      -4.8      0.761      5.829
REMARK  Name = 5937
REMARK  7 active torsions:
REMARK  status: ('A' for Active; 'I' for Inactive)
REMARK    1  A    between atoms: C_1  and  C_2
REMARK    2  A    between atoms: C_1  and  C_9
REMARK    3  A    between atoms: C_2  and  O_4
REMARK    4  A    between atoms: O_4  and  S_5
REMARK    5  A    between atoms: C_9  and  C_10
REMARK    6  A    between atoms: C_10  and  O_12
REMARK    7  A    between atoms: O_12  and  S_13
REMARK                            x       y       z     vdW  Elec       q    Type
REMARK                         _______ _______ _______ _____ _____    ______ ____
ROOT
ATOM      1  C   UNL     1     -34.805  25.638   5.401  0.00  0.00    +0.035 C 
ENDROOT
BRANCH   1   2
ATOM      2  C   UNL     1     -34.725  26.248   3.997  0.00  0.00    +0.143 C 
ATOM      3  C   UNL     1     -36.070  26.175   3.287  0.00  0.00    +0.035 C 
BRANCH   2   4
ATOM      4  O   UNL     1     -34.334  27.614   4.102  0.00  0.00    -0.245 OA
BRANCH   4   5
ATOM      5  S   UNL     1     -32.754  27.960   4.311  0.00  0.00    -0.005 S 
ATOM      6  O   UNL     1     -31.949  26.952   3.652  0.00  0.00    -0.072 OA
ATOM      7  O   UNL     1     -32.523  28.347   5.688  0.00  0.00    -0.072 OA
ATOM      8  C   UNL     1     -32.732  29.426   3.313  0.00  0.00    +0.181 C 
ENDBRANCH   4   5
ENDBRANCH   2   4
ENDBRANCH   1   2
BRANCH   1   9
ATOM      9  C   UNL     1     -35.929  24.597   5.514  0.00  0.00    +0.035 C 
BRANCH   9  10
ATOM     10  C   UNL     1     -35.443  23.186   5.164  0.00  0.00    +0.143 C 
ATOM     11  C   UNL     1     -35.296  22.329   6.414  0.00  0.00    +0.035 C 
BRANCH  10  12
ATOM     12  O   UNL     1     -36.387  22.571   4.292  0.00  0.00    -0.245 OA
BRANCH  12  13
ATOM     13  S   UNL     1     -35.840  21.863   2.927  0.00  0.00    -0.005 S 
ATOM     14  O   UNL     1     -35.466  20.493   3.212  0.00  0.00    -0.072 OA
ATOM     15  O   UNL     1     -34.953  22.774   2.233  0.00  0.00    -0.072 OA
ATOM     16  C   UNL     1     -37.395  21.844   2.072  0.00  0.00    +0.181 C 
ENDBRANCH  12  13
ENDBRANCH  10  12
ENDBRANCH   9  10
ENDBRANCH   1   9
TORSDOF 7
ENDMDL
MODEL 3
REMARK VINA RESULT:      -4.8      1.679      6.152
REMARK  Name = 5937
REMARK  7 active torsions:
REMARK  status: ('A' for Active; 'I' for Inactive)
REMARK    1  A    between atoms: C_1  and  C_2
REMARK    2  A    between atoms: C_1  and  C_9
REMARK    3  A    between atoms: C_2  and  O_4
REMARK    4  A    between atoms: O_4  and  S_5
REMARK    5  A    between atoms: C_9  and  C_10
REMARK    6  A    between atoms: C_10  and  O_12
REMARK    7  A    between atoms: O_12  and  S_13
REMARK                            x       y       z     vdW  Elec       q    Type
REMARK                         _______ _______ _______ _____ _____    ______ ____
ROOT
ATOM      1  C   UNL     1     -34.353  25.170   5.726  0.00  0.00    +0.035 C 
ENDROOT
BRANCH   1   2
ATOM      2  C   UNL     1     -33.989  26.264   4.718  0.00  0.00    +0.143 C 
ATOM      3  C   UNL     1     -35.201  26.684   3.898  0.00  0.00    +0.035 C 
BRANCH   2   4
ATOM      4  O   UNL     1     -33.493  27.401   5.420  0.00  0.00    -0.245 OA
BRANCH   4   5
ATOM      5  S   UNL     1     -32.309  28.287   4.733  0.00  0.00    -0.005 S 
ATOM      6  O   UNL     1     -32.853  29.552   4.283  0.00  0.00    -0.072 OA
ATOM      7  O   UNL     1     -31.513  27.441   3.866  0.00  0.00    -0.072 OA
ATOM      8  C   UNL     1     -31.385  28.580   6.219  0.00  0.00    +0.181 C 
ENDBRANCH   4   5
ENDBRANCH   2   4
ENDBRANCH   1   2
BRANCH   1   9
ATOM      9  C   UNL     1     -35.667  24.463   5.361  0.00  0.00    +0.035 C 
BRANCH   9  10
ATOM     10  C   UNL     1     -35.451  22.982   5.031  0.00  0.00    +0.143 C 
ATOM     11  C   UNL     1     -35.447  22.131   6.293  0.00  0.00    +0.035 C 
BRANCH  10  12
ATOM     12  O   UNL     1     -36.502  22.536   4.178  0.00  0.00    -0.245 OA
BRANCH  12  13
ATOM     13  S   UNL     1     -36.115  21.669   2.852  0.00  0.00    -0.005 S 
ATOM     14  O   UNL     1     -37.285  21.530   2.009  0.00  0.00    -0.072 OA
ATOM     15  O   UNL     1     -35.306  20.531   3.238  0.00  0.00    -0.072 OA
ATOM     16  C   UNL     1     -35.049  22.883   2.119  0.00  0.00    +0.181 C 
ENDBRANCH  12  13
ENDBRANCH  10  12
ENDBRANCH   9  10
ENDBRANCH   1   9
TORSDOF 7
ENDMDL
MODEL 4
REMARK VINA RESULT:      -4.7      2.677      3.921
REMARK  Name = 5937
REMARK  7 active torsions:
REMARK  status: ('A' for Active; 'I' for Inactive)
REMARK    1  A    between atoms: C_1  and  C_2
REMARK    2  A    between atoms: C_1  and  C_9
REMARK    3  A    between atoms: C_2  and  O_4
REMARK    4  A    between atoms: O_4  and  S_5
REMARK    5  A    between atoms: C_9  and  C_10
REMARK    6  A    between atoms: C_10  and  O_12
REMARK    7  A    between atoms: O_12  and  S_13
REMARK                            x       y       z     vdW  Elec       q    Type
REMARK                         _______ _______ _______ _____ _____    ______ ____
ROOT
ATOM      1  C   UNL     1     -36.838  22.972   3.145  0.00  0.00    +0.035 C 
ENDROOT
BRANCH   1   2
ATOM      2  C   UNL     1     -37.179  21.953   2.053  0.00  0.00    +0.143 C 
ATOM      3  C   UNL     1     -36.182  20.802   2.042  0.00  0.00    +0.035 C 
BRANCH   2   4
ATOM      4  O   UNL     1     -38.483  21.430   2.292  0.00  0.00    -0.245 OA
BRANCH   4   5
ATOM      5  S   UNL     1     -39.728  22.005   1.410  0.00  0.00    -0.005 S 
ATOM      6  O   UNL     1     -40.280  23.175   2.062  0.00  0.00    -0.072 OA
ATOM      7  O   UNL     1     -40.562  20.902   0.976  0.00  0.00    -0.072 OA
ATOM      8  C   UNL     1     -38.763  22.547   0.023  0.00  0.00    +0.181 C 
ENDBRANCH   4   5
ENDBRANCH   2   4
ENDBRANCH   1   2
BRANCH   1   9
ATOM      9  C   UNL     1     -35.585  22.571   3.938  0.00  0.00    +0.035 C 
BRANCH   9  10
ATOM     10  C   UNL     1     -35.538  23.239   5.316  0.00  0.00    +0.143 C 
ATOM     11  C   UNL     1     -35.305  22.213   6.417  0.00  0.00    +0.035 C 
BRANCH  10  12
ATOM     12  O   UNL     1     -34.476  24.188   5.339  0.00  0.00    -0.245 OA
BRANCH  12  13
ATOM     13  S   UNL     1     -34.850  25.775   5.397  0.00  0.00    -0.005 S 
ATOM     14  O   UNL     1     -33.893  26.464   6.239  0.00  0.00    -0.072 OA
ATOM     15  O   UNL     1     -36.279  25.929   5.573  0.00  0.00    -0.072 OA
ATOM     16  C   UNL     1     -34.458  26.139   3.705  0.00  0.00    +0.181 C 
ENDBRANCH  12  13
ENDBRANCH  10  12
ENDBRANCH   9  10
ENDBRANCH   1   9
TORSDOF 7
ENDMDL
MODEL 5
REMARK VINA RESULT:      -4.7      2.715      6.092
REMARK  Name = 5937
REMARK  7 active torsions:
REMARK  status: ('A' for Active; 'I' for Inactive)
REMARK    1  A    between atoms: C_1  and  C_2
REMARK    2  A    between atoms: C_1  and  C_9
REMARK    3  A    between atoms: C_2  and  O_4
REMARK    4  A    between atoms: O_4  and  S_5
REMARK    5  A    between atoms: C_9  and  C_10
REMARK    6  A    between atoms: C_10  and  O_12
REMARK    7  A    between atoms: O_12  and  S_13
REMARK                            x       y       z     vdW  Elec       q    Type
REMARK                         _______ _______ _______ _____ _____    ______ ____
ROOT
ATOM      1  C   UNL     1     -35.650  22.384   3.904  0.00  0.00    +0.035 C 
ENDROOT
BRANCH   1   2
ATOM      2  C   UNL     1     -35.508  23.140   5.229  0.00  0.00    +0.143 C 
ATOM      3  C   UNL     1     -35.300  22.180   6.392  0.00  0.00    +0.035 C 
BRANCH   2   4
ATOM      4  O   UNL     1     -34.386  24.016   5.149  0.00  0.00    -0.245 OA
BRANCH   4   5
ATOM      5  S   UNL     1     -34.637  25.621   5.296  0.00  0.00    -0.005 S 
ATOM      6  O   UNL     1     -33.487  26.232   5.930  0.00  0.00    -0.072 OA
ATOM      7  O   UNL     1     -35.988  25.857   5.763  0.00  0.00    -0.072 OA
ATOM      8  C   UNL     1     -34.578  25.995   3.562  0.00  0.00    +0.181 C 
ENDBRANCH   4   5
ENDBRANCH   2   4
ENDBRANCH   1   2
BRANCH   1   9
ATOM      9  C   UNL     1     -36.908  22.806   3.130  0.00  0.00    +0.035 C 
BRANCH   9  10
ATOM     10  C   UNL     1     -37.285  21.791   2.046  0.00  0.00    +0.143 C 
ATOM     11  C   UNL     1     -36.372  20.574   2.090  0.00  0.00    +0.035 C 
BRANCH  10  12
ATOM     12  O   UNL     1     -38.629  21.366   2.252  0.00  0.00    -0.245 OA
BRANCH  12  13
ATOM     13  S   UNL     1     -39.794  21.970   1.282  0.00  0.00    -0.005 S 
ATOM     14  O   UNL     1     -40.328  23.183   1.868  0.00  0.00    -0.072 OA
ATOM     15  O   UNL     1     -40.652  20.894   0.828  0.00  0.00    -0.072 OA
ATOM     16  C   UNL     1     -38.725  22.429  -0.058  0.00  0.00    +0.181 C 
ENDBRANCH  12  13
ENDBRANCH  10  12
ENDBRANCH   9  10
ENDBRANCH   1   9
TORSDOF 7
ENDMDL
MODEL 6
REMARK VINA RESULT:      -4.7      1.454      1.836
REMARK  Name = 5937
REMARK  7 active torsions:
REMARK  status: ('A' for Active; 'I' for Inactive)
REMARK    1  A    between atoms: C_1  and  C_2
REMARK    2  A    between atoms: C_1  and  C_9
REMARK    3  A    between atoms: C_2  and  O_4
REMARK    4  A    between atoms: O_4  and  S_5
REMARK    5  A    between atoms: C_9  and  C_10
REMARK    6  A    between atoms: C_10  and  O_12
REMARK    7  A    between atoms: O_12  and  S_13
REMARK                            x       y       z     vdW  Elec       q    Type
REMARK                         _______ _______ _______ _____ _____    ______ ____
ROOT
ATOM      1  C   UNL     1     -35.287  24.414   5.342  0.00  0.00    +0.035 C 
ENDROOT
BRANCH   1   2
ATOM      2  C   UNL     1     -35.345  22.906   5.082  0.00  0.00    +0.143 C 
ATOM      3  C   UNL     1     -35.514  22.129   6.381  0.00  0.00    +0.035 C 
BRANCH   2   4
ATOM      4  O   UNL     1     -36.450  22.621   4.229  0.00  0.00    -0.245 OA
BRANCH   4   5
ATOM      5  S   UNL     1     -36.194  21.718   2.895  0.00  0.00    -0.005 S 
ATOM      6  O   UNL     1     -37.438  21.569   2.168  0.00  0.00    -0.072 OA
ATOM      7  O   UNL     1     -35.362  20.581   3.235  0.00  0.00    -0.072 OA
ATOM      8  C   UNL     1     -35.189  22.901   2.037  0.00  0.00    +0.181 C 
ENDBRANCH   4   5
ENDBRANCH   2   4
ENDBRANCH   1   2
BRANCH   1   9
ATOM      9  C   UNL     1     -33.893  24.996   5.058  0.00  0.00    +0.035 C 
BRANCH   9  10
ATOM     10  C   UNL     1     -33.969  26.373   4.391  0.00  0.00    +0.143 C 
ATOM     11  C   UNL     1     -35.368  26.650   3.858  0.00  0.00    +0.035 C 
BRANCH  10  12
ATOM     12  O   UNL     1     -33.634  27.374   5.347  0.00  0.00    -0.245 OA
BRANCH  12  13
ATOM     13  S   UNL     1     -32.258  28.226   5.134  0.00  0.00    -0.005 S 
ATOM     14  O   UNL     1     -31.214  27.672   5.972  0.00  0.00    -0.072 OA
ATOM     15  O   UNL     1     -32.563  29.642   5.121  0.00  0.00    -0.072 OA
ATOM     16  C   UNL     1     -31.957  27.709   3.463  0.00  0.00    +0.181 C 
ENDBRANCH  12  13
ENDBRANCH  10  12
ENDBRANCH   9  10
ENDBRANCH   1   9
TORSDOF 7
ENDMDL
MODEL 7
REMARK VINA RESULT:      -4.7      1.990      5.978
REMARK  Name = 5937
REMARK  7 active torsions:
REMARK  status: ('A' for Active; 'I' for Inactive)
REMARK    1  A    between atoms: C_1  and  C_2
REMARK    2  A    between atoms: C_1  and  C_9
REMARK    3  A    between atoms: C_2  and  O_4
REMARK    4  A    between atoms: O_4  and  S_5
REMARK    5  A    between atoms: C_9  and  C_10
REMARK    6  A    between atoms: C_10  and  O_12
REMARK    7  A    between atoms: O_12  and  S_13
REMARK                            x       y       z     vdW  Elec       q    Type
REMARK                         _______ _______ _______ _____ _____    ______ ____
ROOT
ATOM      1  C   UNL     1     -35.250  26.355   4.460  0.00  0.00    +0.035 C 
ENDROOT
BRANCH   1   2
ATOM      2  C   UNL     1     -33.726  26.496   4.384  0.00  0.00    +0.143 C 
ATOM      3  C   UNL     1     -33.187  25.948   3.070  0.00  0.00    +0.035 C 
BRANCH   2   4
ATOM      4  O   UNL     1     -33.378  27.874   4.485  0.00  0.00    -0.245 OA
BRANCH   4   5
ATOM      5  S   UNL     1     -32.155  28.299   5.477  0.00  0.00    -0.005 S 
ATOM      6  O   UNL     1     -32.335  29.672   5.902  0.00  0.00    -0.072 OA
ATOM      7  O   UNL     1     -30.901  27.823   4.928  0.00  0.00    -0.072 OA
ATOM      8  C   UNL     1     -32.607  27.238   6.825  0.00  0.00    +0.181 C 
ENDBRANCH   4   5
ENDBRANCH   2   4
ENDBRANCH   1   2
BRANCH   1   9
ATOM      9  C   UNL     1     -35.682  25.300   5.490  0.00  0.00    +0.035 C 
BRANCH   9  10
ATOM     10  C   UNL     1     -35.653  23.883   4.908  0.00  0.00    +0.143 C 
ATOM     11  C   UNL     1     -35.195  22.870   5.949  0.00  0.00    +0.035 C 
BRANCH  10  12
ATOM     12  O   UNL     1     -36.962  23.532   4.469  0.00  0.00    -0.245 OA
BRANCH  12  13
ATOM     13  S   UNL     1     -37.252  23.457   2.865  0.00  0.00    -0.005 S 
ATOM     14  O   UNL     1     -38.016  22.262   2.569  0.00  0.00    -0.072 OA
ATOM     15  O   UNL     1     -36.046  23.797   2.139  0.00  0.00    -0.072 OA
ATOM     16  C   UNL     1     -38.353  24.847   2.792  0.00  0.00    +0.181 C 
ENDBRANCH  12  13
ENDBRANCH  10  12
ENDBRANCH   9  10
ENDBRANCH   1   9
TORSDOF 7
ENDMDL
MODEL 8
REMARK VINA RESULT:      -4.6      2.269      2.837
REMARK  Name = 5937
REMARK  7 active torsions:
REMARK  status: ('A' for Active; 'I' for Inactive)
REMARK    1  A    between atoms: C_1  and  C_2
REMARK    2  A    between atoms: C_1  and  C_9
REMARK    3  A    between atoms: C_2  and  O_4
REMARK    4  A    between atoms: O_4  and  S_5
REMARK    5  A    between atoms: C_9  and  C_10
REMARK    6  A    between atoms: C_10  and  O_12
REMARK    7  A    between atoms: O_12  and  S_13
REMARK                            x       y       z     vdW  Elec       q    Type
REMARK                         _______ _______ _______ _____ _____    ______ ____
ROOT
ATOM      1  C   UNL     1     -34.370  24.193   4.446  0.00  0.00    +0.035 C 
ENDROOT
BRANCH   1   2
ATOM      2  C   UNL     1     -35.650  23.386   4.687  0.00  0.00    +0.143 C 
ATOM      3  C   UNL     1     -35.596  22.653   6.020  0.00  0.00    +0.035 C 
BRANCH   2   4
ATOM      4  O   UNL     1     -36.766  24.271   4.693  0.00  0.00    -0.245 OA
BRANCH   4   5
ATOM      5  S   UNL     1     -37.691  24.370   3.354  0.00  0.00    -0.005 S 
ATOM      6  O   UNL     1     -37.053  25.245   2.391  0.00  0.00    -0.072 OA
ATOM      7  O   UNL     1     -39.079  24.533   3.736  0.00  0.00    -0.072 OA
ATOM      8  C   UNL     1     -37.458  22.694   2.820  0.00  0.00    +0.181 C 
ENDBRANCH   4   5
ENDBRANCH   2   4
ENDBRANCH   1   2
BRANCH   1   9
ATOM      9  C   UNL     1     -34.314  25.459   5.313  0.00  0.00    +0.035 C 
BRANCH   9  10
ATOM     10  C   UNL     1     -33.617  26.619   4.594  0.00  0.00    +0.143 C 
ATOM     11  C   UNL     1     -34.526  27.242   3.544  0.00  0.00    +0.035 C 
BRANCH  10  12
ATOM     12  O   UNL     1     -33.265  27.616   5.549  0.00  0.00    -0.245 OA
BRANCH  12  13
ATOM     13  S   UNL     1     -32.091  28.682   5.165  0.00  0.00    -0.005 S 
ATOM     14  O   UNL     1     -32.690  29.882   4.618  0.00  0.00    -0.072 OA
ATOM     15  O   UNL     1     -31.009  27.990   4.495  0.00  0.00    -0.072 OA
ATOM     16  C   UNL     1     -31.580  29.029   6.829  0.00  0.00    +0.181 C 
ENDBRANCH  12  13
ENDBRANCH  10  12
ENDBRANCH   9  10
ENDBRANCH   1   9
TORSDOF 7
ENDMDL
MODEL 9
REMARK VINA RESULT:      -4.5      2.519      3.947
REMARK  Name = 5937
REMARK  7 active torsions:
REMARK  status: ('A' for Active; 'I' for Inactive)
REMARK    1  A    between atoms: C_1  and  C_2
REMARK    2  A    between atoms: C_1  and  C_9
REMARK    3  A    between atoms: C_2  and  O_4
REMARK    4  A    between atoms: O_4  and  S_5
REMARK    5  A    between atoms: C_9  and  C_10
REMARK    6  A    between atoms: C_10  and  O_12
REMARK    7  A    between atoms: O_12  and  S_13
REMARK                            x       y       z     vdW  Elec       q    Type
REMARK                         _______ _______ _______ _____ _____    ______ ____
ROOT
ATOM      1  C   UNL     1     -35.769  23.037   2.660  0.00  0.00    +0.035 C 
ENDROOT
BRANCH   1   2
ATOM      2  C   UNL     1     -37.143  22.699   2.071  0.00  0.00    +0.143 C 
ATOM      3  C   UNL     1     -37.228  21.230   1.680  0.00  0.00    +0.035 C 
BRANCH   2   4
ATOM      4  O   UNL     1     -38.149  22.976   3.041  0.00  0.00    -0.245 OA
BRANCH   4   5
ATOM      5  S   UNL     1     -39.459  23.832   2.585  0.00  0.00    -0.005 S 
ATOM      6  O   UNL     1     -39.879  24.690   3.675  0.00  0.00    -0.072 OA
ATOM      7  O   UNL     1     -40.387  22.962   1.892  0.00  0.00    -0.072 OA
ATOM      8  C   UNL     1     -38.636  24.837   1.376  0.00  0.00    +0.181 C 
ENDBRANCH   4   5
ENDBRANCH   2   4
ENDBRANCH   1   2
BRANCH   1   9
ATOM      9  C   UNL     1     -35.474  22.233   3.935  0.00  0.00    +0.035 C 
BRANCH   9  10
ATOM     10  C   UNL     1     -35.485  23.116   5.187  0.00  0.00    +0.143 C 
ATOM     11  C   UNL     1     -35.280  22.286   6.447  0.00  0.00    +0.035 C 
BRANCH  10  12
ATOM     12  O   UNL     1     -34.436  24.075   5.092  0.00  0.00    -0.245 OA
BRANCH  12  13
ATOM     13  S   UNL     1     -34.789  25.646   5.358  0.00  0.00    -0.005 S 
ATOM     14  O   UNL     1     -33.874  26.184   6.344  0.00  0.00    -0.072 OA
ATOM     15  O   UNL     1     -36.224  25.806   5.473  0.00  0.00    -0.072 OA
ATOM     16  C   UNL     1     -34.292  26.239   3.761  0.00  0.00    +0.181 C 
ENDBRANCH  12  13
ENDBRANCH  10  12
ENDBRANCH   9  10
ENDBRANCH   1   9
TORSDOF 7
ENDMDL
