MODEL 1
REMARK VINA RESULT:      -5.3      0.000      0.000
REMARK  Name = 53721222
REMARK  14 active torsions:
REMARK  status: ('A' for Active; 'I' for Inactive)
REMARK    1  A    between atoms: N_2  and  CA_5
REMARK    2  A    between atoms: C_3  and  C_19
REMARK    3  A    between atoms: CA_5  and  C_8
REMARK    4  A    between atoms: CA_5  and  CB_15
REMARK    5  A    between atoms: N_7  and  CA_10
REMARK    6  A    between atoms: CA_10  and  C_12
REMARK    7  A    between atoms: C_12  and  O_13
REMARK    8  A    between atoms: CB_15  and  SG_16
REMARK    9  A    between atoms: SG_16  and  C_18
REMARK   10  A    between atoms: C_19  and  C_20
REMARK   11  A    between atoms: C_20  and  CA_21
REMARK   12  A    between atoms: CA_21  and  N_22
REMARK   13  A    between atoms: CA_21  and  C_27
REMARK   14  A    between atoms: C_27  and  O_28
REMARK                            x       y       z     vdW  Elec       q    Type
REMARK                         _______ _______ _______ _____ _____    ______ ____
ROOT
ATOM      1  O   UNL     1     -35.055  20.786   4.272  0.00  0.00    -0.275 OA
ATOM      2  N   UNL     1     -36.506  22.533   3.782  0.00  0.00    -0.298 N 
ATOM      3  C   UNL     1     -35.511  21.900   4.515  0.00  0.00    +0.223 C 
ATOM      4  H   UNL     1     -36.800  23.430   4.064  0.00  0.00    +0.150 HD
ENDROOT
BRANCH   2   5
ATOM      5  CA  UNL     1     -37.127  21.933   2.625  0.00  0.00    +0.159 C 
BRANCH   5   8
ATOM      6  O   UNL     1     -39.465  21.845   1.977  0.00  0.00    -0.273 OA
ATOM      7  N   UNL     1     -38.654  23.782   2.961  0.00  0.00    -0.294 N 
ATOM      8  C   ACE A   1     -38.545  22.484   2.482  0.00  0.00    +0.242 C 
ATOM      9  H   UNL     1     -37.857  24.211   3.350  0.00  0.00    +0.150 HD
BRANCH   7  10
ATOM     10  CA  UNL     1     -39.889  24.529   2.914  0.00  0.00    +0.200 C 
BRANCH  10  12
ATOM     11  OXT UNL     1     -40.421  26.765   2.199  0.00  0.00    -0.248 OA
ATOM     12  C   UNL     1     -39.671  26.017   2.814  0.00  0.00    +0.334 C 
BRANCH  12  13
ATOM     13  O   UNL     1     -38.568  26.447   3.470  0.00  0.00    -0.479 OA
ATOM     14  H   UNL     1     -38.275  27.331   3.366  0.00  0.00    +0.295 HD
ENDBRANCH  12  13
ENDBRANCH  10  12
ENDBRANCH   7  10
ENDBRANCH   5   8
BRANCH   5  15
ATOM     15  CB  UNL     1     -36.278  22.102   1.363  0.00  0.00    +0.088 C 
BRANCH  15  16
ATOM     16  SG  UNL     1     -35.850  20.527   0.549  0.00  0.00    -0.120 S 
BRANCH  16  18
ATOM     17 CL   UNL     1     -33.515  19.071   1.582  0.00  0.00    -0.101 Cl
ATOM     18  C   UNL     1     -34.064  20.578   0.822  0.00  0.00    +0.152 C 
ENDBRANCH  16  18
ENDBRANCH  15  16
ENDBRANCH   5  15
ENDBRANCH   2   5
BRANCH   3  19
ATOM     19  C   UNL     1     -35.047  22.756   5.681  0.00  0.00    +0.083 C 
BRANCH  19  20
ATOM     20  C   UNL     1     -35.655  24.161   5.652  0.00  0.00    -0.001 C 
BRANCH  20  21
ATOM     21  CA  UNL     1     -34.736  25.193   4.988  0.00  0.00    +0.036 C 
BRANCH  21  22
ATOM     22  N   UNL     1     -34.354  26.211   5.971  0.00  0.00    +0.389 N 
ATOM     23  H1  UNL     1     -34.041  25.754   6.828  0.00  0.00    -0.088 HD
ATOM     24  H2  UNL     1     -35.158  26.804   6.176  0.00  0.00    -0.088 HD
ATOM     25  H3  UNL     1     -33.598  26.780   5.593  0.00  0.00    -0.088 HD
ENDBRANCH  21  22
BRANCH  21  27
ATOM     26  OXT UNL     1     -35.873  25.396   2.842  0.00  0.00    -0.253 OA
ATOM     27  C   UNL     1     -35.449  25.922   3.863  0.00  0.00    +0.293 C 
BRANCH  27  28
ATOM     28  O   UNL     1     -35.550  27.256   4.097  0.00  0.00    -0.482 OA
ATOM     29  H   UNL     1     -36.045  27.798   3.515  0.00  0.00    +0.295 HD
ENDBRANCH  27  28
ENDBRANCH  21  27
ENDBRANCH  20  21
ENDBRANCH  19  20
ENDBRANCH   3  19
TORSDOF 14
ENDMDL
MODEL 2
REMARK VINA RESULT:      -4.9      1.661      4.359
REMARK  Name = 53721222
REMARK  14 active torsions:
REMARK  status: ('A' for Active; 'I' for Inactive)
REMARK    1  A    between atoms: N_2  and  CA_5
REMARK    2  A    between atoms: C_3  and  C_19
REMARK    3  A    between atoms: CA_5  and  C_8
REMARK    4  A    between atoms: CA_5  and  CB_15
REMARK    5  A    between atoms: N_7  and  CA_10
REMARK    6  A    between atoms: CA_10  and  C_12
REMARK    7  A    between atoms: C_12  and  O_13
REMARK    8  A    between atoms: CB_15  and  SG_16
REMARK    9  A    between atoms: SG_16  and  C_18
REMARK   10  A    between atoms: C_19  and  C_20
REMARK   11  A    between atoms: C_20  and  CA_21
REMARK   12  A    between atoms: CA_21  and  N_22
REMARK   13  A    between atoms: CA_21  and  C_27
REMARK   14  A    between atoms: C_27  and  O_28
REMARK                            x       y       z     vdW  Elec       q    Type
REMARK                         _______ _______ _______ _____ _____    ______ ____
ROOT
ATOM      1  O   UNL     1     -37.553  23.211   0.949  0.00  0.00    -0.275 OA
ATOM      2  N   UNL     1     -37.504  22.412   3.130  0.00  0.00    -0.298 N 
ATOM      3  C   UNL     1     -38.130  22.856   1.973  0.00  0.00    +0.223 C 
ATOM      4  H   UNL     1     -38.063  22.151   3.897  0.00  0.00    +0.150 HD
ENDROOT
BRANCH   2   5
ATOM      5  CA  UNL     1     -36.068  22.318   3.256  0.00  0.00    +0.159 C 
BRANCH   5   8
ATOM      6  O   UNL     1     -35.966  22.438   5.678  0.00  0.00    -0.273 OA
ATOM      7  N   UNL     1     -34.899  24.080   4.434  0.00  0.00    -0.294 N 
ATOM      8  C   ACE A   1     -35.648  22.923   4.594  0.00  0.00    +0.242 C 
ATOM      9  H   UNL     1     -34.695  24.390   3.522  0.00  0.00    +0.150 HD
BRANCH   7  10
ATOM     10  CA  UNL     1     -34.405  24.850   5.553  0.00  0.00    +0.200 C 
BRANCH  10  12
ATOM     11  OXT UNL     1     -35.161  26.939   4.629  0.00  0.00    -0.248 OA
ATOM     12  C   UNL     1     -34.306  26.324   5.253  0.00  0.00    +0.334 C 
BRANCH  12  13
ATOM     13  O   UNL     1     -33.182  26.900   5.738  0.00  0.00    -0.479 OA
ATOM     14  H   UNL     1     -32.365  26.444   5.695  0.00  0.00    +0.295 HD
ENDBRANCH  12  13
ENDBRANCH  10  12
ENDBRANCH   7  10
ENDBRANCH   5   8
BRANCH   5  15
ATOM     15  CB  UNL     1     -35.565  20.887   3.049  0.00  0.00    +0.088 C 
BRANCH  15  16
ATOM     16  SG  UNL     1     -35.244  20.467   1.304  0.00  0.00    -0.120 S 
BRANCH  16  18
ATOM     17 CL   UNL     1     -32.444  19.886   0.629  0.00  0.00    -0.101 Cl
ATOM     18  C   UNL     1     -33.851  19.346   1.564  0.00  0.00    +0.152 C 
ENDBRANCH  16  18
ENDBRANCH  15  16
ENDBRANCH   5  15
ENDBRANCH   2   5
BRANCH   3  19
ATOM     19  C   UNL     1     -39.642  22.861   2.124  0.00  0.00    +0.083 C 
BRANCH  19  20
ATOM     20  C   UNL     1     -40.226  24.275   2.090  0.00  0.00    -0.001 C 
BRANCH  20  21
ATOM     21  CA  UNL     1     -39.854  25.103   3.326  0.00  0.00    +0.036 C 
BRANCH  21  22
ATOM     22  N   UNL     1     -40.921  26.067   3.608  0.00  0.00    +0.389 N 
ATOM     23  H1  UNL     1     -41.252  26.472   2.733  0.00  0.00    -0.088 HD
ATOM     24  H2  UNL     1     -40.561  26.805   4.212  0.00  0.00    -0.088 HD
ATOM     25  H3  UNL     1     -41.693  25.591   4.076  0.00  0.00    -0.088 HD
ENDBRANCH  21  22
BRANCH  21  27
ATOM     26  OXT UNL     1     -38.432  26.719   2.183  0.00  0.00    -0.253 OA
ATOM     27  C   UNL     1     -38.590  25.910   3.088  0.00  0.00    +0.293 C 
BRANCH  27  28
ATOM     28  O   UNL     1     -37.616  25.618   3.989  0.00  0.00    -0.482 OA
ATOM     29  H   UNL     1     -37.608  24.784   4.417  0.00  0.00    +0.295 HD
ENDBRANCH  27  28
ENDBRANCH  21  27
ENDBRANCH  20  21
ENDBRANCH  19  20
ENDBRANCH   3  19
TORSDOF 14
ENDMDL
MODEL 3
REMARK VINA RESULT:      -4.8      1.418      1.498
REMARK  Name = 53721222
REMARK  14 active torsions:
REMARK  status: ('A' for Active; 'I' for Inactive)
REMARK    1  A    between atoms: N_2  and  CA_5
REMARK    2  A    between atoms: C_3  and  C_19
REMARK    3  A    between atoms: CA_5  and  C_8
REMARK    4  A    between atoms: CA_5  and  CB_15
REMARK    5  A    between atoms: N_7  and  CA_10
REMARK    6  A    between atoms: CA_10  and  C_12
REMARK    7  A    between atoms: C_12  and  O_13
REMARK    8  A    between atoms: CB_15  and  SG_16
REMARK    9  A    between atoms: SG_16  and  C_18
REMARK   10  A    between atoms: C_19  and  C_20
REMARK   11  A    between atoms: C_20  and  CA_21
REMARK   12  A    between atoms: CA_21  and  N_22
REMARK   13  A    between atoms: CA_21  and  C_27
REMARK   14  A    between atoms: C_27  and  O_28
REMARK                            x       y       z     vdW  Elec       q    Type
REMARK                         _______ _______ _______ _____ _____    ______ ____
ROOT
ATOM      1  O   UNL     1     -35.166  20.882   5.223  0.00  0.00    -0.275 OA
ATOM      2  N   UNL     1     -35.738  22.462   3.618  0.00  0.00    -0.298 N 
ATOM      3  C   UNL     1     -35.307  22.050   4.872  0.00  0.00    +0.223 C 
ATOM      4  H   UNL     1     -35.817  23.427   3.441  0.00  0.00    +0.150 HD
ENDROOT
BRANCH   2   5
ATOM      5  CA  UNL     1     -36.077  21.535   2.564  0.00  0.00    +0.159 C 
BRANCH   5   8
ATOM      6  O   UNL     1     -37.640  21.811   0.727  0.00  0.00    -0.273 OA
ATOM      7  N   UNL     1     -38.237  22.597   2.827  0.00  0.00    -0.294 N 
ATOM      8  C   ACE A   1     -37.390  21.976   1.919  0.00  0.00    +0.242 C 
ATOM      9  H   UNL     1     -37.946  22.681   3.764  0.00  0.00    +0.150 HD
BRANCH   7  10
ATOM     10  CA  UNL     1     -39.529  23.124   2.451  0.00  0.00    +0.200 C 
BRANCH  10  12
ATOM     11  OXT UNL     1     -40.590  25.285   2.454  0.00  0.00    -0.248 OA
ATOM     12  C   UNL     1     -39.748  24.535   2.934  0.00  0.00    +0.334 C 
BRANCH  12  13
ATOM     13  O   UNL     1     -38.927  24.894   3.948  0.00  0.00    -0.479 OA
ATOM     14  H   UNL     1     -37.998  24.881   3.826  0.00  0.00    +0.295 HD
ENDBRANCH  12  13
ENDBRANCH  10  12
ENDBRANCH   7  10
ENDBRANCH   5   8
BRANCH   5  15
ATOM     15  CB  UNL     1     -34.934  21.361   1.561  0.00  0.00    +0.088 C 
BRANCH  15  16
ATOM     16  SG  UNL     1     -34.221  19.683   1.542  0.00  0.00    -0.120 S 
BRANCH  16  18
ATOM     17 CL   UNL     1     -32.841  21.704  -0.085  0.00  0.00    -0.101 Cl
ATOM     18  C   UNL     1     -32.799  20.023   0.481  0.00  0.00    +0.152 C 
ENDBRANCH  16  18
ENDBRANCH  15  16
ENDBRANCH   5  15
ENDBRANCH   2   5
BRANCH   3  19
ATOM     19  C   UNL     1     -35.031  23.234   5.783  0.00  0.00    +0.083 C 
BRANCH  19  20
ATOM     20  C   UNL     1     -34.471  24.438   5.022  0.00  0.00    -0.001 C 
BRANCH  20  21
ATOM     21  CA  UNL     1     -35.368  25.677   5.125  0.00  0.00    +0.036 C 
BRANCH  21  22
ATOM     22  N   UNL     1     -36.641  25.308   5.750  0.00  0.00    +0.389 N 
ATOM     23  H1  UNL     1     -37.191  26.149   5.923  0.00  0.00    -0.088 HD
ATOM     24  H2  UNL     1     -36.461  24.832   6.633  0.00  0.00    -0.088 HD
ATOM     25  H3  UNL     1     -37.157  24.686   5.128  0.00  0.00    -0.088 HD
ENDBRANCH  21  22
BRANCH  21  27
ATOM     26  OXT UNL     1     -36.122  25.569   2.810  0.00  0.00    -0.253 OA
ATOM     27  C   UNL     1     -35.703  26.230   3.751  0.00  0.00    +0.293 C 
BRANCH  27  28
ATOM     28  O   UNL     1     -35.459  27.564   3.660  0.00  0.00    -0.482 OA
ATOM     29  H   UNL     1     -35.800  28.147   4.308  0.00  0.00    +0.295 HD
ENDBRANCH  27  28
ENDBRANCH  21  27
ENDBRANCH  20  21
ENDBRANCH  19  20
ENDBRANCH   3  19
TORSDOF 14
ENDMDL
MODEL 4
REMARK VINA RESULT:      -4.8      2.043      2.231
REMARK  Name = 53721222
REMARK  14 active torsions:
REMARK  status: ('A' for Active; 'I' for Inactive)
REMARK    1  A    between atoms: N_2  and  CA_5
REMARK    2  A    between atoms: C_3  and  C_19
REMARK    3  A    between atoms: CA_5  and  C_8
REMARK    4  A    between atoms: CA_5  and  CB_15
REMARK    5  A    between atoms: N_7  and  CA_10
REMARK    6  A    between atoms: CA_10  and  C_12
REMARK    7  A    between atoms: C_12  and  O_13
REMARK    8  A    between atoms: CB_15  and  SG_16
REMARK    9  A    between atoms: SG_16  and  C_18
REMARK   10  A    between atoms: C_19  and  C_20
REMARK   11  A    between atoms: C_20  and  CA_21
REMARK   12  A    between atoms: CA_21  and  N_22
REMARK   13  A    between atoms: CA_21  and  C_27
REMARK   14  A    between atoms: C_27  and  O_28
REMARK                            x       y       z     vdW  Elec       q    Type
REMARK                         _______ _______ _______ _____ _____    ______ ____
ROOT
ATOM      1  O   UNL     1     -35.254  20.803   4.032  0.00  0.00    -0.275 OA
ATOM      2  N   UNL     1     -36.595  22.678   3.745  0.00  0.00    -0.298 N 
ATOM      3  C   UNL     1     -35.602  21.932   4.366  0.00  0.00    +0.223 C 
ATOM      4  H   UNL     1     -36.796  23.577   4.094  0.00  0.00    +0.150 HD
ENDROOT
BRANCH   2   5
ATOM      5  CA  UNL     1     -37.344  22.193   2.610  0.00  0.00    +0.159 C 
BRANCH   5   8
ATOM      6  O   UNL     1     -39.696  22.389   2.042  0.00  0.00    -0.273 OA
ATOM      7  N   UNL     1     -38.688  24.110   3.228  0.00  0.00    -0.294 N 
ATOM      8  C   ACE A   1     -38.709  22.878   2.588  0.00  0.00    +0.242 C 
ATOM      9  H   UNL     1     -37.846  24.416   3.636  0.00  0.00    +0.150 HD
BRANCH   7  10
ATOM     10  CA  UNL     1     -39.852  24.961   3.317  0.00  0.00    +0.200 C 
BRANCH  10  12
ATOM     11  OXT UNL     1     -40.635  26.854   2.053  0.00  0.00    -0.248 OA
ATOM     12  C   UNL     1     -39.694  26.252   2.556  0.00  0.00    +0.334 C 
BRANCH  12  13
ATOM     13  O   UNL     1     -38.413  26.683   2.481  0.00  0.00    -0.479 OA
ATOM     14  H   UNL     1     -37.805  26.465   3.160  0.00  0.00    +0.295 HD
ENDBRANCH  12  13
ENDBRANCH  10  12
ENDBRANCH   7  10
ENDBRANCH   5   8
BRANCH   5  15
ATOM     15  CB  UNL     1     -36.567  22.342   1.300  0.00  0.00    +0.088 C 
BRANCH  15  16
ATOM     16  SG  UNL     1     -35.566  23.863   1.209  0.00  0.00    -0.120 S 
BRANCH  16  18
ATOM     17 CL   UNL     1     -35.997  26.444  -0.129  0.00  0.00    -0.101 Cl
ATOM     18  C   UNL     1     -36.634  24.803   0.094  0.00  0.00    +0.152 C 
ENDBRANCH  16  18
ENDBRANCH  15  16
ENDBRANCH   5  15
ENDBRANCH   2   5
BRANCH   3  19
ATOM     19  C   UNL     1     -34.988  22.684   5.534  0.00  0.00    +0.083 C 
BRANCH  19  20
ATOM     20  C   UNL     1     -35.608  24.069   5.727  0.00  0.00    -0.001 C 
BRANCH  20  21
ATOM     21  CA  UNL     1     -34.810  25.180   5.035  0.00  0.00    +0.036 C 
BRANCH  21  22
ATOM     22  N   UNL     1     -34.077  25.954   6.039  0.00  0.00    +0.389 N 
ATOM     23  H1  UNL     1     -34.697  26.654   6.448  0.00  0.00    -0.088 HD
ATOM     24  H2  UNL     1     -33.283  26.419   5.598  0.00  0.00    -0.088 HD
ATOM     25  H3  UNL     1     -33.741  25.328   6.771  0.00  0.00    -0.088 HD
ENDBRANCH  21  22
BRANCH  21  27
ATOM     26  OXT UNL     1     -35.421  26.828   3.345  0.00  0.00    -0.253 OA
ATOM     27  C   UNL     1     -35.730  26.155   4.320  0.00  0.00    +0.293 C 
BRANCH  27  28
ATOM     28  O   UNL     1     -36.955  26.228   4.903  0.00  0.00    -0.482 OA
ATOM     29  H   UNL     1     -37.691  25.812   4.500  0.00  0.00    +0.295 HD
ENDBRANCH  27  28
ENDBRANCH  21  27
ENDBRANCH  20  21
ENDBRANCH  19  20
ENDBRANCH   3  19
TORSDOF 14
ENDMDL
MODEL 5
REMARK VINA RESULT:      -4.7      1.306      1.306
REMARK  Name = 53721222
REMARK  14 active torsions:
REMARK  status: ('A' for Active; 'I' for Inactive)
REMARK    1  A    between atoms: N_2  and  CA_5
REMARK    2  A    between atoms: C_3  and  C_19
REMARK    3  A    between atoms: CA_5  and  C_8
REMARK    4  A    between atoms: CA_5  and  CB_15
REMARK    5  A    between atoms: N_7  and  CA_10
REMARK    6  A    between atoms: CA_10  and  C_12
REMARK    7  A    between atoms: C_12  and  O_13
REMARK    8  A    between atoms: CB_15  and  SG_16
REMARK    9  A    between atoms: SG_16  and  C_18
REMARK   10  A    between atoms: C_19  and  C_20
REMARK   11  A    between atoms: C_20  and  CA_21
REMARK   12  A    between atoms: CA_21  and  N_22
REMARK   13  A    between atoms: CA_21  and  C_27
REMARK   14  A    between atoms: C_27  and  O_28
REMARK                            x       y       z     vdW  Elec       q    Type
REMARK                         _______ _______ _______ _____ _____    ______ ____
ROOT
ATOM      1  O   UNL     1     -35.304  20.849   3.770  0.00  0.00    -0.275 OA
ATOM      2  N   UNL     1     -36.807  22.564   3.324  0.00  0.00    -0.298 N 
ATOM      3  C   UNL     1     -35.720  21.988   3.967  0.00  0.00    +0.223 C 
ATOM      4  H   UNL     1     -37.056  23.487   3.557  0.00  0.00    +0.150 HD
ENDROOT
BRANCH   2   5
ATOM      5  CA  UNL     1     -37.586  21.867   2.327  0.00  0.00    +0.159 C 
BRANCH   5   8
ATOM      6  O   UNL     1     -40.004  21.818   2.121  0.00  0.00    -0.273 OA
ATOM      7  N   UNL     1     -38.949  23.868   2.378  0.00  0.00    -0.294 N 
ATOM      8  C   ACE A   1     -38.982  22.485   2.270  0.00  0.00    +0.242 C 
ATOM      9  H   UNL     1     -38.078  24.312   2.495  0.00  0.00    +0.150 HD
BRANCH   7  10
ATOM     10  CA  UNL     1     -40.141  24.682   2.326  0.00  0.00    +0.200 C 
BRANCH  10  12
ATOM     11  OXT UNL     1     -40.821  26.904   2.955  0.00  0.00    -0.248 OA
ATOM     12  C   UNL     1     -39.945  26.048   2.934  0.00  0.00    +0.334 C 
BRANCH  12  13
ATOM     13  O   UNL     1     -38.710  26.236   3.454  0.00  0.00    -0.479 OA
ATOM     14  H   UNL     1     -38.613  26.489   4.351  0.00  0.00    +0.295 HD
ENDBRANCH  12  13
ENDBRANCH  10  12
ENDBRANCH   7  10
ENDBRANCH   5   8
BRANCH   5  15
ATOM     15  CB  UNL     1     -36.881  21.827   0.969  0.00  0.00    +0.088 C 
BRANCH  15  16
ATOM     16  SG  UNL     1     -37.460  20.485  -0.120  0.00  0.00    -0.120 S 
BRANCH  16  18
ATOM     17 CL   UNL     1     -35.748  18.219  -0.874  0.00  0.00    -0.101 Cl
ATOM     18  C   UNL     1     -36.367  19.179   0.483  0.00  0.00    +0.152 C 
ENDBRANCH  16  18
ENDBRANCH  15  16
ENDBRANCH   5  15
ENDBRANCH   2   5
BRANCH   3  19
ATOM     19  C   UNL     1     -35.094  22.942   4.970  0.00  0.00    +0.083 C 
BRANCH  19  20
ATOM     20  C   UNL     1     -36.027  24.101   5.331  0.00  0.00    -0.001 C 
BRANCH  20  21
ATOM     21  CA  UNL     1     -35.439  25.472   4.974  0.00  0.00    +0.036 C 
BRANCH  21  22
ATOM     22  N   UNL     1     -36.377  26.524   5.372  0.00  0.00    +0.389 N 
ATOM     23  H1  UNL     1     -35.870  27.268   5.852  0.00  0.00    -0.088 HD
ATOM     24  H2  UNL     1     -37.082  26.134   5.997  0.00  0.00    -0.088 HD
ATOM     25  H3  UNL     1     -36.832  26.904   4.542  0.00  0.00    -0.088 HD
ENDBRANCH  21  22
BRANCH  21  27
ATOM     26  OXT UNL     1     -36.088  25.376   2.627  0.00  0.00    -0.253 OA
ATOM     27  C   UNL     1     -35.238  25.611   3.475  0.00  0.00    +0.293 C 
BRANCH  27  28
ATOM     28  O   UNL     1     -33.977  26.009   3.161  0.00  0.00    -0.482 OA
ATOM     29  H   UNL     1     -33.241  25.510   3.453  0.00  0.00    +0.295 HD
ENDBRANCH  27  28
ENDBRANCH  21  27
ENDBRANCH  20  21
ENDBRANCH  19  20
ENDBRANCH   3  19
TORSDOF 14
ENDMDL
MODEL 6
REMARK VINA RESULT:      -4.7      3.724      5.501
REMARK  Name = 53721222
REMARK  14 active torsions:
REMARK  status: ('A' for Active; 'I' for Inactive)
REMARK    1  A    between atoms: N_2  and  CA_5
REMARK    2  A    between atoms: C_3  and  C_19
REMARK    3  A    between atoms: CA_5  and  C_8
REMARK    4  A    between atoms: CA_5  and  CB_15
REMARK    5  A    between atoms: N_7  and  CA_10
REMARK    6  A    between atoms: CA_10  and  C_12
REMARK    7  A    between atoms: C_12  and  O_13
REMARK    8  A    between atoms: CB_15  and  SG_16
REMARK    9  A    between atoms: SG_16  and  C_18
REMARK   10  A    between atoms: C_19  and  C_20
REMARK   11  A    between atoms: C_20  and  CA_21
REMARK   12  A    between atoms: CA_21  and  N_22
REMARK   13  A    between atoms: CA_21  and  C_27
REMARK   14  A    between atoms: C_27  and  O_28
REMARK                            x       y       z     vdW  Elec       q    Type
REMARK                         _______ _______ _______ _____ _____    ______ ____
ROOT
ATOM      1  O   UNL     1     -33.153  25.667   3.496  0.00  0.00    -0.275 OA
ATOM      2  N   UNL     1     -35.116  26.848   3.882  0.00  0.00    -0.298 N 
ATOM      3  C   UNL     1     -34.127  25.926   4.197  0.00  0.00    +0.223 C 
ATOM      4  H   UNL     1     -35.857  26.978   4.518  0.00  0.00    +0.150 HD
ENDROOT
BRANCH   2   5
ATOM      5  CA  UNL     1     -35.104  27.622   2.664  0.00  0.00    +0.159 C 
BRANCH   5   8
ATOM      6  O   UNL     1     -36.909  28.451   1.268  0.00  0.00    -0.273 OA
ATOM      7  N   UNL     1     -37.239  26.496   2.472  0.00  0.00    -0.294 N 
ATOM      8  C   ACE A   1     -36.499  27.588   2.042  0.00  0.00    +0.242 C 
ATOM      9  H   UNL     1     -36.821  25.857   3.095  0.00  0.00    +0.150 HD
BRANCH   7  10
ATOM     10  CA  UNL     1     -38.598  26.257   2.044  0.00  0.00    +0.200 C 
BRANCH  10  12
ATOM     11  OXT UNL     1     -40.134  24.425   2.321  0.00  0.00    -0.248 OA
ATOM     12  C   UNL     1     -39.265  25.140   2.804  0.00  0.00    +0.334 C 
BRANCH  12  13
ATOM     13  O   UNL     1     -38.810  25.001   4.072  0.00  0.00    -0.479 OA
ATOM     14  H   UNL     1     -37.985  25.370   4.317  0.00  0.00    +0.295 HD
ENDBRANCH  12  13
ENDBRANCH  10  12
ENDBRANCH   7  10
ENDBRANCH   5   8
BRANCH   5  15
ATOM     15  CB  UNL     1     -34.571  29.040   2.887  0.00  0.00    +0.088 C 
BRANCH  15  16
ATOM     16  SG  UNL     1     -33.136  29.458   1.844  0.00  0.00    -0.120 S 
BRANCH  16  18
ATOM     17 CL   UNL     1     -32.312  29.115   4.644  0.00  0.00    -0.101 Cl
ATOM     18  C   UNL     1     -31.836  28.869   2.953  0.00  0.00    +0.152 C 
ENDBRANCH  16  18
ENDBRANCH  15  16
ENDBRANCH   5  15
ENDBRANCH   2   5
BRANCH   3  19
ATOM     19  C   UNL     1     -34.397  25.252   5.531  0.00  0.00    +0.083 C 
BRANCH  19  20
ATOM     20  C   UNL     1     -35.684  24.424   5.517  0.00  0.00    -0.001 C 
BRANCH  20  21
ATOM     21  CA  UNL     1     -35.517  23.078   4.801  0.00  0.00    +0.036 C 
BRANCH  21  22
ATOM     22  N   UNL     1     -36.744  22.762   4.064  0.00  0.00    +0.389 N 
ATOM     23  H1  UNL     1     -37.551  23.101   4.587  0.00  0.00    -0.088 HD
ATOM     24  H2  UNL     1     -36.816  21.752   3.942  0.00  0.00    -0.088 HD
ATOM     25  H3  UNL     1     -36.716  23.214   3.151  0.00  0.00    -0.088 HD
ENDBRANCH  21  22
BRANCH  21  27
ATOM     26  OXT UNL     1     -35.264  22.080   7.011  0.00  0.00    -0.253 OA
ATOM     27  C   UNL     1     -35.303  21.949   5.794  0.00  0.00    +0.293 C 
BRANCH  27  28
ATOM     28  O   UNL     1     -35.130  20.750   5.179  0.00  0.00    -0.482 OA
ATOM     29  H   UNL     1     -35.637  20.533   4.422  0.00  0.00    +0.295 HD
ENDBRANCH  27  28
ENDBRANCH  21  27
ENDBRANCH  20  21
ENDBRANCH  19  20
ENDBRANCH   3  19
TORSDOF 14
ENDMDL
MODEL 7
REMARK VINA RESULT:      -4.7      3.134      5.218
REMARK  Name = 53721222
REMARK  14 active torsions:
REMARK  status: ('A' for Active; 'I' for Inactive)
REMARK    1  A    between atoms: N_2  and  CA_5
REMARK    2  A    between atoms: C_3  and  C_19
REMARK    3  A    between atoms: CA_5  and  C_8
REMARK    4  A    between atoms: CA_5  and  CB_15
REMARK    5  A    between atoms: N_7  and  CA_10
REMARK    6  A    between atoms: CA_10  and  C_12
REMARK    7  A    between atoms: C_12  and  O_13
REMARK    8  A    between atoms: CB_15  and  SG_16
REMARK    9  A    between atoms: SG_16  and  C_18
REMARK   10  A    between atoms: C_19  and  C_20
REMARK   11  A    between atoms: C_20  and  CA_21
REMARK   12  A    between atoms: CA_21  and  N_22
REMARK   13  A    between atoms: CA_21  and  C_27
REMARK   14  A    between atoms: C_27  and  O_28
REMARK                            x       y       z     vdW  Elec       q    Type
REMARK                         _______ _______ _______ _____ _____    ______ ____
ROOT
ATOM      1  O   UNL     1     -37.453  26.909   2.210  0.00  0.00    -0.275 OA
ATOM      2  N   UNL     1     -37.827  24.857   3.233  0.00  0.00    -0.298 N 
ATOM      3  C   UNL     1     -37.134  26.040   3.017  0.00  0.00    +0.223 C 
ATOM      4  H   UNL     1     -37.483  24.226   3.906  0.00  0.00    +0.150 HD
ENDROOT
BRANCH   2   5
ATOM      5  CA  UNL     1     -39.029  24.512   2.511  0.00  0.00    +0.159 C 
BRANCH   5   8
ATOM      6  O   UNL     1     -40.051  22.339   2.154  0.00  0.00    -0.273 OA
ATOM      7  N   UNL     1     -37.737  22.507   2.094  0.00  0.00    -0.294 N 
ATOM      8  C   ACE A   1     -39.024  23.011   2.228  0.00  0.00    +0.242 C 
ATOM      9  H   UNL     1     -36.976  23.127   2.170  0.00  0.00    +0.150 HD
BRANCH   7  10
ATOM     10  CA  UNL     1     -37.470  21.108   1.847  0.00  0.00    +0.200 C 
BRANCH  10  12
ATOM     11  OXT UNL     1     -35.165  20.692   1.293  0.00  0.00    -0.248 OA
ATOM     12  C   UNL     1     -36.044  20.723   2.146  0.00  0.00    +0.334 C 
BRANCH  12  13
ATOM     13  O   UNL     1     -35.827  20.415   3.446  0.00  0.00    -0.479 OA
ATOM     14  H   UNL     1     -36.457  19.909   3.919  0.00  0.00    +0.295 HD
ENDBRANCH  12  13
ENDBRANCH  10  12
ENDBRANCH   7  10
ENDBRANCH   5   8
BRANCH   5  15
ATOM     15  CB  UNL     1     -40.291  24.991   3.233  0.00  0.00    +0.088 C 
BRANCH  15  16
ATOM     16  SG  UNL     1     -41.276  26.189   2.274  0.00  0.00    -0.120 S 
BRANCH  16  18
ATOM     17 CL   UNL     1     -41.426  24.684  -0.246  0.00  0.00    -0.101 Cl
ATOM     18  C   UNL     1     -40.515  25.908   0.659  0.00  0.00    +0.152 C 
ENDBRANCH  16  18
ENDBRANCH  15  16
ENDBRANCH   5  15
ENDBRANCH   2   5
BRANCH   3  19
ATOM     19  C   UNL     1     -35.905  26.137   3.905  0.00  0.00    +0.083 C 
BRANCH  19  20
ATOM     20  C   UNL     1     -36.079  25.381   5.225  0.00  0.00    -0.001 C 
BRANCH  20  21
ATOM     21  CA  UNL     1     -34.916  24.428   5.523  0.00  0.00    +0.036 C 
BRANCH  21  22
ATOM     22  N   UNL     1     -33.890  24.570   4.486  0.00  0.00    +0.389 N 
ATOM     23  H1  UNL     1     -33.286  23.748   4.492  0.00  0.00    -0.088 HD
ATOM     24  H2  UNL     1     -33.333  25.404   4.671  0.00  0.00    -0.088 HD
ATOM     25  H3  UNL     1     -34.339  24.656   3.574  0.00  0.00    -0.088 HD
ENDBRANCH  21  22
BRANCH  21  27
ATOM     26  OXT UNL     1     -34.741  22.035   5.949  0.00  0.00    -0.253 OA
ATOM     27  C   UNL     1     -35.370  22.979   5.490  0.00  0.00    +0.293 C 
BRANCH  27  28
ATOM     28  O   UNL     1     -36.565  22.828   4.862  0.00  0.00    -0.482 OA
ATOM     29  H   UNL     1     -36.615  22.893   3.928  0.00  0.00    +0.295 HD
ENDBRANCH  27  28
ENDBRANCH  21  27
ENDBRANCH  20  21
ENDBRANCH  19  20
ENDBRANCH   3  19
TORSDOF 14
ENDMDL
MODEL 8
REMARK VINA RESULT:      -4.6      5.152      8.362
REMARK  Name = 53721222
REMARK  14 active torsions:
REMARK  status: ('A' for Active; 'I' for Inactive)
REMARK    1  A    between atoms: N_2  and  CA_5
REMARK    2  A    between atoms: C_3  and  C_19
REMARK    3  A    between atoms: CA_5  and  C_8
REMARK    4  A    between atoms: CA_5  and  CB_15
REMARK    5  A    between atoms: N_7  and  CA_10
REMARK    6  A    between atoms: CA_10  and  C_12
REMARK    7  A    between atoms: C_12  and  O_13
REMARK    8  A    between atoms: CB_15  and  SG_16
REMARK    9  A    between atoms: SG_16  and  C_18
REMARK   10  A    between atoms: C_19  and  C_20
REMARK   11  A    between atoms: C_20  and  CA_21
REMARK   12  A    between atoms: CA_21  and  N_22
REMARK   13  A    between atoms: CA_21  and  C_27
REMARK   14  A    between atoms: C_27  and  O_28
REMARK                            x       y       z     vdW  Elec       q    Type
REMARK                         _______ _______ _______ _____ _____    ______ ____
ROOT
ATOM      1  O   UNL     1     -35.205  27.069   4.796  0.00  0.00    -0.275 OA
ATOM      2  N   UNL     1     -32.983  26.940   4.128  0.00  0.00    -0.298 N 
ATOM      3  C   UNL     1     -34.193  26.414   4.559  0.00  0.00    +0.223 C 
ATOM      4  H   UNL     1     -32.233  26.324   3.967  0.00  0.00    +0.150 HD
ENDROOT
BRANCH   2   5
ATOM      5  CA  UNL     1     -32.779  28.353   3.906  0.00  0.00    +0.159 C 
BRANCH   5   8
ATOM      6  O   UNL     1     -32.276  29.441   6.017  0.00  0.00    -0.273 OA
ATOM      7  N   UNL     1     -30.517  28.726   4.685  0.00  0.00    -0.294 N 
ATOM      8  C   ACE A   1     -31.858  28.897   4.997  0.00  0.00    +0.242 C 
ATOM      9  H   UNL     1     -30.281  28.276   3.841  0.00  0.00    +0.150 HD
BRANCH   7  10
ATOM     10  CA  UNL     1     -29.452  29.182   5.549  0.00  0.00    +0.200 C 
BRANCH  10  12
ATOM     11  OXT UNL     1     -27.521  27.874   6.142  0.00  0.00    -0.248 OA
ATOM     12  C   UNL     1     -28.729  28.051   6.235  0.00  0.00    +0.334 C 
BRANCH  12  13
ATOM     13  O   UNL     1     -29.543  27.251   6.962  0.00  0.00    -0.479 OA
ATOM     14  H   UNL     1     -29.467  26.320   6.896  0.00  0.00    +0.295 HD
ENDBRANCH  12  13
ENDBRANCH  10  12
ENDBRANCH   7  10
ENDBRANCH   5   8
BRANCH   5  15
ATOM     15  CB  UNL     1     -32.283  28.647   2.488  0.00  0.00    +0.088 C 
BRANCH  15  16
ATOM     16  SG  UNL     1     -33.205  29.978   1.650  0.00  0.00    -0.120 S 
BRANCH  16  18
ATOM     17 CL   UNL     1     -35.504  31.000   3.168  0.00  0.00    -0.101 Cl
ATOM     18  C   UNL     1     -34.847  29.599   2.301  0.00  0.00    +0.152 C 
ENDBRANCH  16  18
ENDBRANCH  15  16
ENDBRANCH   5  15
ENDBRANCH   2   5
BRANCH   3  19
ATOM     19  C   UNL     1     -34.121  24.905   4.716  0.00  0.00    +0.083 C 
BRANCH  19  20
ATOM     20  C   UNL     1     -35.505  24.265   4.844  0.00  0.00    -0.001 C 
BRANCH  20  21
ATOM     21  CA  UNL     1     -35.510  22.777   4.473  0.00  0.00    +0.036 C 
BRANCH  21  22
ATOM     22  N   UNL     1     -36.807  22.423   3.890  0.00  0.00    +0.389 N 
ATOM     23  H1  UNL     1     -37.552  22.878   4.418  0.00  0.00    -0.088 HD
ATOM     24  H2  UNL     1     -36.931  21.412   3.927  0.00  0.00    -0.088 HD
ATOM     25  H3  UNL     1     -36.839  22.734   2.920  0.00  0.00    -0.088 HD
ENDBRANCH  21  22
BRANCH  21  27
ATOM     26  OXT UNL     1     -35.378  22.298   6.859  0.00  0.00    -0.253 OA
ATOM     27  C   UNL     1     -35.331  21.903   5.701  0.00  0.00    +0.293 C 
BRANCH  27  28
ATOM     28  O   UNL     1     -35.082  20.607   5.378  0.00  0.00    -0.482 OA
ATOM     29  H   UNL     1     -35.051  19.954   6.049  0.00  0.00    +0.295 HD
ENDBRANCH  27  28
ENDBRANCH  21  27
ENDBRANCH  20  21
ENDBRANCH  19  20
ENDBRANCH   3  19
TORSDOF 14
ENDMDL
MODEL 9
REMARK VINA RESULT:      -4.6      3.133      6.184
REMARK  Name = 53721222
REMARK  14 active torsions:
REMARK  status: ('A' for Active; 'I' for Inactive)
REMARK    1  A    between atoms: N_2  and  CA_5
REMARK    2  A    between atoms: C_3  and  C_19
REMARK    3  A    between atoms: CA_5  and  C_8
REMARK    4  A    between atoms: CA_5  and  CB_15
REMARK    5  A    between atoms: N_7  and  CA_10
REMARK    6  A    between atoms: CA_10  and  C_12
REMARK    7  A    between atoms: C_12  and  O_13
REMARK    8  A    between atoms: CB_15  and  SG_16
REMARK    9  A    between atoms: SG_16  and  C_18
REMARK   10  A    between atoms: C_19  and  C_20
REMARK   11  A    between atoms: C_20  and  CA_21
REMARK   12  A    between atoms: CA_21  and  N_22
REMARK   13  A    between atoms: CA_21  and  C_27
REMARK   14  A    between atoms: C_27  and  O_28
REMARK                            x       y       z     vdW  Elec       q    Type
REMARK                         _______ _______ _______ _____ _____    ______ ____
ROOT
ATOM      1  O   UNL     1     -38.579  27.133   1.459  0.00  0.00    -0.275 OA
ATOM      2  N   UNL     1     -37.353  25.436   2.466  0.00  0.00    -0.298 N 
ATOM      3  C   UNL     1     -38.442  25.955   1.780  0.00  0.00    +0.223 C 
ATOM      4  H   UNL     1     -37.344  24.473   2.674  0.00  0.00    +0.150 HD
ENDROOT
BRANCH   2   5
ATOM      5  CA  UNL     1     -36.235  26.246   2.888  0.00  0.00    +0.159 C 
BRANCH   5   8
ATOM      6  O   UNL     1     -35.651  26.538   5.227  0.00  0.00    -0.273 OA
ATOM      7  N   UNL     1     -35.502  24.418   4.297  0.00  0.00    -0.294 N 
ATOM      8  C   ACE A   1     -35.777  25.778   4.269  0.00  0.00    +0.242 C 
ATOM      9  H   UNL     1     -35.635  23.892   3.475  0.00  0.00    +0.150 HD
BRANCH   7  10
ATOM     10  CA  UNL     1     -35.028  23.743   5.483  0.00  0.00    +0.200 C 
BRANCH  10  12
ATOM     11  OXT UNL     1     -36.094  21.931   6.655  0.00  0.00    -0.248 OA
ATOM     12  C   UNL     1     -35.581  22.348   5.623  0.00  0.00    +0.334 C 
BRANCH  12  13
ATOM     13  O   UNL     1     -35.457  21.601   4.501  0.00  0.00    -0.479 OA
ATOM     14  H   UNL     1     -34.612  21.305   4.227  0.00  0.00    +0.295 HD
ENDBRANCH  12  13
ENDBRANCH  10  12
ENDBRANCH   7  10
ENDBRANCH   5   8
BRANCH   5  15
ATOM     15  CB  UNL     1     -35.112  26.265   1.848  0.00  0.00    +0.088 C 
BRANCH  15  16
ATOM     16  SG  UNL     1     -34.241  27.863   1.737  0.00  0.00    -0.120 S 
BRANCH  16  18
ATOM     17 CL   UNL     1     -32.700  27.888   4.239  0.00  0.00    -0.101 Cl
ATOM     18  C   UNL     1     -32.701  27.369   2.543  0.00  0.00    +0.152 C 
ENDBRANCH  16  18
ENDBRANCH  15  16
ENDBRANCH   5  15
ENDBRANCH   2   5
BRANCH   3  19
ATOM     19  C   UNL     1     -39.471  24.881   1.471  0.00  0.00    +0.083 C 
BRANCH  19  20
ATOM     20  C   UNL     1     -39.377  23.691   2.428  0.00  0.00    -0.001 C 
BRANCH  20  21
ATOM     21  CA  UNL     1     -39.051  22.375   1.713  0.00  0.00    +0.036 C 
BRANCH  21  22
ATOM     22  N   UNL     1     -39.973  21.331   2.166  0.00  0.00    +0.389 N 
ATOM     23  H1  UNL     1     -40.735  21.236   1.494  0.00  0.00    -0.088 HD
ATOM     24  H2  UNL     1     -40.353  21.584   3.077  0.00  0.00    -0.088 HD
ATOM     25  H3  UNL     1     -39.473  20.445   2.240  0.00  0.00    -0.088 HD
ENDBRANCH  21  22
BRANCH  21  27
ATOM     26  OXT UNL     1     -36.640  22.585   2.003  0.00  0.00    -0.253 OA
ATOM     27  C   UNL     1     -37.650  21.896   2.052  0.00  0.00    +0.293 C 
BRANCH  27  28
ATOM     28  O   UNL     1     -37.627  20.583   2.402  0.00  0.00    -0.482 OA
ATOM     29  H   UNL     1     -37.753  19.922   1.751  0.00  0.00    +0.295 HD
ENDBRANCH  27  28
ENDBRANCH  21  27
ENDBRANCH  20  21
ENDBRANCH  19  20
ENDBRANCH   3  19
TORSDOF 14
ENDMDL
