MODEL 1
REMARK VINA RESULT:      -7.0      0.000      0.000
REMARK  Name = 196512
REMARK  8 active torsions:
REMARK  status: ('A' for Active; 'I' for Inactive)
REMARK    1  A    between atoms: C_2  and  O_7
REMARK    2  A    between atoms: C_3  and  O_9
REMARK    3  A    between atoms: C_4  and  O_11
REMARK    4  A    between atoms: C_5  and  O_17
REMARK    5  A    between atoms: C_6  and  C_14
REMARK    6  A    between atoms: C_14  and  O_15
REMARK    7  A    between atoms: O_17  and  C_19
REMARK    8  A    between atoms: C_21  and  O_28
REMARK                            x       y       z     vdW  Elec       q    Type
REMARK                         _______ _______ _______ _____ _____    ______ ____
ROOT
ATOM      1  O   UNL     1     -37.590  24.193   2.692  0.00  0.00    -0.307 OA
ATOM      2  C   UNL     1     -39.317  22.079   1.792  0.00  0.00    +0.173 C 
ATOM      3  C   UNL     1     -37.939  21.810   2.399  0.00  0.00    +0.210 C 
ATOM      4  C   UNL     1     -39.854  23.446   2.213  0.00  0.00    +0.178 C 
ATOM      5  C   UNL     1     -37.000  22.997   2.188  0.00  0.00    +0.319 C 
ATOM      6  C   UNL     1     -38.797  24.527   2.015  0.00  0.00    +0.246 C 
ENDROOT
BRANCH   2   7
ATOM      7  O   UNL     1     -40.239  21.085   2.241  0.00  0.00    -0.379 OA
ATOM      8  H   UNL     1     -39.849  20.593   2.981  0.00  0.00    +0.211 HD
ENDBRANCH   2   7
BRANCH   3   9
ATOM      9  O   UNL     1     -37.362  20.665   1.772  0.00  0.00    -0.377 OA
ATOM     10  H   UNL     1     -38.060  20.026   1.558  0.00  0.00    +0.211 HD
ENDBRANCH   3   9
BRANCH   4  11
ATOM     11  O   UNL     1     -40.992  23.768   1.414  0.00  0.00    -0.379 OA
ATOM     12  H   UNL     1     -40.737  23.782   0.480  0.00  0.00    +0.211 HD
ENDBRANCH   4  11
BRANCH   6  14
ATOM     13  O   UNL     1     -40.180  26.478   2.341  0.00  0.00    -0.247 OA
ATOM     14  C   UNL     1     -39.212  25.807   2.665  0.00  0.00    +0.344 C 
BRANCH  14  15
ATOM     15  O   UNL     1     -38.364  26.128   3.672  0.00  0.00    -0.478 OA
ATOM     16  H   UNL     1     -38.628  26.740   4.331  0.00  0.00    +0.295 HD
ENDBRANCH  14  15
ENDBRANCH   6  14
BRANCH   5  17
ATOM     17  O   UNL     1     -35.786  22.727   2.889  0.00  0.00    -0.447 OA
BRANCH  17  19
ATOM     18  N   UNL     1     -33.426  27.018   5.356  0.00  0.00    -0.311 N 
ATOM     19  C   UNL     1     -35.225  23.774   3.568  0.00  0.00    +0.175 C 
ATOM     20  C   UNL     1     -34.466  24.708   2.858  0.00  0.00    +0.041 C 
ATOM     21  C   UNL     1     -35.414  23.897   4.941  0.00  0.00    +0.174 C 
ATOM     22  C   UNL     1     -33.885  25.788   3.552  0.00  0.00    +0.018 C 
ATOM     23  C   UNL     1     -34.089  25.890   4.929  0.00  0.00    +0.052 C 
ATOM     24  C   UNL     1     -34.848  24.961   5.651  0.00  0.00    +0.055 C 
ATOM     25  C   UNL     1     -33.076  26.893   3.167  0.00  0.00    +0.017 C 
ATOM     26  C   UNL     1     -32.810  27.630   4.298  0.00  0.00    +0.062 C 
ATOM     27  H   UNL     1     -33.398  27.337   6.286  0.00  0.00    +0.152 HD
BRANCH  21  28
ATOM     28  O   UNL     1     -36.159  22.976   5.619  0.00  0.00    -0.468 OA
ATOM     29  C   UNL     1     -35.447  21.971   6.336  0.00  0.00    +0.253 C 
ENDBRANCH  21  28
ENDBRANCH  17  19
ENDBRANCH   5  17
TORSDOF 8
ENDMDL
MODEL 2
REMARK VINA RESULT:      -6.4      3.984      7.252
REMARK  Name = 196512
REMARK  8 active torsions:
REMARK  status: ('A' for Active; 'I' for Inactive)
REMARK    1  A    between atoms: C_2  and  O_7
REMARK    2  A    between atoms: C_3  and  O_9
REMARK    3  A    between atoms: C_4  and  O_11
REMARK    4  A    between atoms: C_5  and  O_17
REMARK    5  A    between atoms: C_6  and  C_14
REMARK    6  A    between atoms: C_14  and  O_15
REMARK    7  A    between atoms: O_17  and  C_19
REMARK    8  A    between atoms: C_21  and  O_28
REMARK                            x       y       z     vdW  Elec       q    Type
REMARK                         _______ _______ _______ _____ _____    ______ ____
ROOT
ATOM      1  O   UNL     1     -33.341  27.813   5.107  0.00  0.00    -0.307 OA
ATOM      2  C   UNL     1     -32.825  29.457   2.807  0.00  0.00    +0.173 C 
ATOM      3  C   UNL     1     -34.154  28.729   3.013  0.00  0.00    +0.210 C 
ATOM      4  C   UNL     1     -32.085  29.652   4.131  0.00  0.00    +0.178 C 
ATOM      5  C   UNL     1     -33.973  27.479   3.873  0.00  0.00    +0.319 C 
ATOM      6  C   UNL     1     -32.036  28.348   4.919  0.00  0.00    +0.246 C 
ENDROOT
BRANCH   2   7
ATOM      7  O   UNL     1     -33.069  30.747   2.244  0.00  0.00    -0.379 OA
ATOM      8  H   UNL     1     -32.492  31.400   2.670  0.00  0.00    +0.211 HD
ENDBRANCH   2   7
BRANCH   3   9
ATOM      9  O   UNL     1     -34.674  28.328   1.745  0.00  0.00    -0.377 OA
ATOM     10  H   UNL     1     -35.512  28.789   1.578  0.00  0.00    +0.211 HD
ENDBRANCH   3   9
BRANCH   4  11
ATOM     11  O   UNL     1     -30.750  30.075   3.863  0.00  0.00    -0.379 OA
ATOM     12  H   UNL     1     -30.401  29.583   3.104  0.00  0.00    +0.211 HD
ENDBRANCH   4  11
BRANCH   6  14
ATOM     13  O   UNL     1     -31.519  29.672   6.869  0.00  0.00    -0.247 OA
ATOM     14  C   UNL     1     -31.558  28.584   6.315  0.00  0.00    +0.344 C 
BRANCH  14  15
ATOM     15  O   UNL     1     -31.169  27.421   6.891  0.00  0.00    -0.478 OA
ATOM     16  H   UNL     1     -30.427  27.405   7.462  0.00  0.00    +0.295 HD
ENDBRANCH  14  15
ENDBRANCH   6  14
BRANCH   5  17
ATOM     17  O   UNL     1     -35.266  26.930   4.127  0.00  0.00    -0.447 OA
BRANCH  17  19
ATOM     18  N   UNL     1     -35.591  21.467   4.477  0.00  0.00    -0.311 N 
ATOM     19  C   UNL     1     -35.359  25.564   4.142  0.00  0.00    +0.175 C 
ATOM     20  C   UNL     1     -35.205  24.892   5.358  0.00  0.00    +0.041 C 
ATOM     21  C   UNL     1     -35.603  24.868   2.963  0.00  0.00    +0.174 C 
ATOM     22  C   UNL     1     -35.299  23.486   5.379  0.00  0.00    +0.018 C 
ATOM     23  C   UNL     1     -35.545  22.811   4.182  0.00  0.00    +0.052 C 
ATOM     24  C   UNL     1     -35.702  23.473   2.959  0.00  0.00    +0.055 C 
ATOM     25  C   UNL     1     -35.198  22.502   6.401  0.00  0.00    +0.017 C 
ATOM     26  C   UNL     1     -35.382  21.270   5.815  0.00  0.00    +0.062 C 
ATOM     27  H   UNL     1     -35.750  20.751   3.820  0.00  0.00    +0.152 HD
BRANCH  21  28
ATOM     28  O   UNL     1     -35.752  25.540   1.784  0.00  0.00    -0.468 OA
ATOM     29  C   UNL     1     -37.082  25.727   1.310  0.00  0.00    +0.253 C 
ENDBRANCH  21  28
ENDBRANCH  17  19
ENDBRANCH   5  17
TORSDOF 8
ENDMDL
MODEL 3
REMARK VINA RESULT:      -6.4      1.845      2.735
REMARK  Name = 196512
REMARK  8 active torsions:
REMARK  status: ('A' for Active; 'I' for Inactive)
REMARK    1  A    between atoms: C_2  and  O_7
REMARK    2  A    between atoms: C_3  and  O_9
REMARK    3  A    between atoms: C_4  and  O_11
REMARK    4  A    between atoms: C_5  and  O_17
REMARK    5  A    between atoms: C_6  and  C_14
REMARK    6  A    between atoms: C_14  and  O_15
REMARK    7  A    between atoms: O_17  and  C_19
REMARK    8  A    between atoms: C_21  and  O_28
REMARK                            x       y       z     vdW  Elec       q    Type
REMARK                         _______ _______ _______ _____ _____    ______ ____
ROOT
ATOM      1  O   UNL     1     -37.500  21.972   2.369  0.00  0.00    -0.307 OA
ATOM      2  C   UNL     1     -36.887  19.706   0.712  0.00  0.00    +0.173 C 
ATOM      3  C   UNL     1     -35.925  20.222   1.783  0.00  0.00    +0.210 C 
ATOM      4  C   UNL     1     -38.324  20.143   0.996  0.00  0.00    +0.178 C 
ATOM      5  C   UNL     1     -36.136  21.713   2.044  0.00  0.00    +0.319 C 
ATOM      6  C   UNL     1     -38.384  21.634   1.306  0.00  0.00    +0.246 C 
ENDROOT
BRANCH   2   7
ATOM      7  O   UNL     1     -36.855  18.278   0.691  0.00  0.00    -0.379 OA
ATOM      8  H   UNL     1     -37.414  17.932   1.404  0.00  0.00    +0.211 HD
ENDBRANCH   2   7
BRANCH   3   9
ATOM      9  O   UNL     1     -34.580  20.032   1.342  0.00  0.00    -0.377 OA
ATOM     10  H   UNL     1     -34.006  19.880   2.110  0.00  0.00    +0.211 HD
ENDBRANCH   3   9
BRANCH   4  11
ATOM     11  O   UNL     1     -39.127  19.882  -0.154  0.00  0.00    -0.379 OA
ATOM     12  H   UNL     1     -38.647  19.294  -0.757  0.00  0.00    +0.211 HD
ENDBRANCH   4  11
BRANCH   6  14
ATOM     13  O   UNL     1     -40.176  23.151   1.864  0.00  0.00    -0.247 OA
ATOM     14  C   UNL     1     -39.726  22.015   1.842  0.00  0.00    +0.344 C 
BRANCH  14  15
ATOM     15  O   UNL     1     -40.384  20.925   2.304  0.00  0.00    -0.478 OA
ATOM     16  H   UNL     1     -39.910  20.236   2.728  0.00  0.00    +0.295 HD
ENDBRANCH  14  15
ENDBRANCH   6  14
BRANCH   5  17
ATOM     17  O   UNL     1     -35.300  22.091   3.137  0.00  0.00    -0.447 OA
BRANCH  17  19
ATOM     18  N   UNL     1     -35.155  27.464   4.221  0.00  0.00    -0.311 N 
ATOM     19  C   UNL     1     -35.293  23.418   3.473  0.00  0.00    +0.175 C 
ATOM     20  C   UNL     1     -34.791  24.343   2.554  0.00  0.00    +0.041 C 
ATOM     21  C   UNL     1     -35.781  23.827   4.710  0.00  0.00    +0.174 C 
ATOM     22  C   UNL     1     -34.781  25.710   2.894  0.00  0.00    +0.018 C 
ATOM     23  C   UNL     1     -35.276  26.095   4.142  0.00  0.00    +0.052 C 
ATOM     24  C   UNL     1     -35.782  25.178   5.070  0.00  0.00    +0.055 C 
ATOM     25  C   UNL     1     -34.358  26.894   2.229  0.00  0.00    +0.017 C 
ATOM     26  C   UNL     1     -34.601  27.956   3.070  0.00  0.00    +0.062 C 
ATOM     27  H   UNL     1     -35.426  28.010   4.994  0.00  0.00    +0.152 HD
BRANCH  21  28
ATOM     28  O   UNL     1     -36.268  22.910   5.596  0.00  0.00    -0.468 OA
ATOM     29  C   UNL     1     -35.316  22.228   6.409  0.00  0.00    +0.253 C 
ENDBRANCH  21  28
ENDBRANCH  17  19
ENDBRANCH   5  17
TORSDOF 8
ENDMDL
MODEL 4
REMARK VINA RESULT:      -6.4      3.050      7.049
REMARK  Name = 196512
REMARK  8 active torsions:
REMARK  status: ('A' for Active; 'I' for Inactive)
REMARK    1  A    between atoms: C_2  and  O_7
REMARK    2  A    between atoms: C_3  and  O_9
REMARK    3  A    between atoms: C_4  and  O_11
REMARK    4  A    between atoms: C_5  and  O_17
REMARK    5  A    between atoms: C_6  and  C_14
REMARK    6  A    between atoms: C_14  and  O_15
REMARK    7  A    between atoms: O_17  and  C_19
REMARK    8  A    between atoms: C_21  and  O_28
REMARK                            x       y       z     vdW  Elec       q    Type
REMARK                         _______ _______ _______ _____ _____    ______ ____
ROOT
ATOM      1  O   UNL     1     -37.088  23.272   4.221  0.00  0.00    -0.307 OA
ATOM      2  C   UNL     1     -35.736  25.798   3.999  0.00  0.00    +0.173 C 
ATOM      3  C   UNL     1     -37.254  25.667   3.870  0.00  0.00    +0.210 C 
ATOM      4  C   UNL     1     -35.137  24.618   4.764  0.00  0.00    +0.178 C 
ATOM      5  C   UNL     1     -37.649  24.275   3.378  0.00  0.00    +0.319 C 
ATOM      6  C   UNL     1     -35.665  23.297   4.218  0.00  0.00    +0.246 C 
ENDROOT
BRANCH   2   7
ATOM      7  O   UNL     1     -35.420  26.994   4.714  0.00  0.00    -0.379 OA
ATOM      8  H   UNL     1     -36.025  27.091   5.465  0.00  0.00    +0.211 HD
ENDBRANCH   2   7
BRANCH   3   9
ATOM      9  O   UNL     1     -37.733  26.627   2.929  0.00  0.00    -0.377 OA
ATOM     10  H   UNL     1     -38.266  26.179   2.252  0.00  0.00    +0.211 HD
ENDBRANCH   3   9
BRANCH   4  11
ATOM     11  O   UNL     1     -33.718  24.639   4.620  0.00  0.00    -0.379 OA
ATOM     12  H   UNL     1     -33.328  23.940   5.167  0.00  0.00    +0.211 HD
ENDBRANCH   4  11
BRANCH   6  14
ATOM     13  O   UNL     1     -34.902  22.277   6.268  0.00  0.00    -0.247 OA
ATOM     14  C   UNL     1     -35.300  22.161   5.118  0.00  0.00    +0.344 C 
BRANCH  14  15
ATOM     15  O   UNL     1     -35.469  20.975   4.485  0.00  0.00    -0.478 OA
ATOM     16  H   UNL     1     -36.324  20.600   4.413  0.00  0.00    +0.295 HD
ENDBRANCH  14  15
ENDBRANCH   6  14
BRANCH   5  17
ATOM     17  O   UNL     1     -39.073  24.186   3.406  0.00  0.00    -0.447 OA
BRANCH  17  19
ATOM     18  N   UNL     1     -41.436  22.565  -1.269  0.00  0.00    -0.311 N 
ATOM     19  C   UNL     1     -39.690  23.849   2.231  0.00  0.00    +0.175 C 
ATOM     20  C   UNL     1     -39.561  22.542   1.754  0.00  0.00    +0.041 C 
ATOM     21  C   UNL     1     -40.429  24.799   1.533  0.00  0.00    +0.174 C 
ATOM     22  C   UNL     1     -40.192  22.190   0.545  0.00  0.00    +0.018 C 
ATOM     23  C   UNL     1     -40.929  23.161  -0.137  0.00  0.00    +0.052 C 
ATOM     24  C   UNL     1     -41.065  24.473   0.332  0.00  0.00    +0.055 C 
ATOM     25  C   UNL     1     -40.274  20.992  -0.218  0.00  0.00    +0.017 C 
ATOM     26  C   UNL     1     -41.045  21.254  -1.327  0.00  0.00    +0.062 C 
ATOM     27  H   UNL     1     -41.997  23.016  -1.940  0.00  0.00    +0.152 HD
BRANCH  21  28
ATOM     28  O   UNL     1     -40.545  26.071   2.014  0.00  0.00    -0.468 OA
ATOM     29  C   UNL     1     -41.753  26.397   2.696  0.00  0.00    +0.253 C 
ENDBRANCH  21  28
ENDBRANCH  17  19
ENDBRANCH   5  17
TORSDOF 8
ENDMDL
MODEL 5
REMARK VINA RESULT:      -6.1      1.632      2.058
REMARK  Name = 196512
REMARK  8 active torsions:
REMARK  status: ('A' for Active; 'I' for Inactive)
REMARK    1  A    between atoms: C_2  and  O_7
REMARK    2  A    between atoms: C_3  and  O_9
REMARK    3  A    between atoms: C_4  and  O_11
REMARK    4  A    between atoms: C_5  and  O_17
REMARK    5  A    between atoms: C_6  and  C_14
REMARK    6  A    between atoms: C_14  and  O_15
REMARK    7  A    between atoms: O_17  and  C_19
REMARK    8  A    between atoms: C_21  and  O_28
REMARK                            x       y       z     vdW  Elec       q    Type
REMARK                         _______ _______ _______ _____ _____    ______ ____
ROOT
ATOM      1  O   UNL     1     -39.912  25.304   3.435  0.00  0.00    -0.307 OA
ATOM      2  C   UNL     1     -40.318  23.867   0.980  0.00  0.00    +0.173 C 
ATOM      3  C   UNL     1     -39.320  23.407   2.043  0.00  0.00    +0.210 C 
ATOM      4  C   UNL     1     -41.391  24.777   1.579  0.00  0.00    +0.178 C 
ATOM      5  C   UNL     1     -38.815  24.586   2.875  0.00  0.00    +0.319 C 
ATOM      6  C   UNL     1     -40.758  25.865   2.438  0.00  0.00    +0.246 C 
ENDROOT
BRANCH   2   7
ATOM      7  O   UNL     1     -40.971  22.729   0.414  0.00  0.00    -0.379 OA
ATOM      8  H   UNL     1     -41.821  23.000   0.033  0.00  0.00    +0.211 HD
ENDBRANCH   2   7
BRANCH   3   9
ATOM      9  O   UNL     1     -38.198  22.797   1.406  0.00  0.00    -0.377 OA
ATOM     10  H   UNL     1     -38.495  22.025   0.897  0.00  0.00    +0.211 HD
ENDBRANCH   3   9
BRANCH   4  11
ATOM     11  O   UNL     1     -42.122  25.396   0.521  0.00  0.00    -0.379 OA
ATOM     12  H   UNL     1     -43.002  24.994   0.459  0.00  0.00    +0.211 HD
ENDBRANCH   4  11
BRANCH   6  14
ATOM     13  O   UNL     1     -43.000  26.509   3.055  0.00  0.00    -0.247 OA
ATOM     14  C   UNL     1     -41.794  26.589   3.234  0.00  0.00    +0.344 C 
BRANCH  14  15
ATOM     15  O   UNL     1     -41.215  27.355   4.190  0.00  0.00    -0.478 OA
ATOM     16  H   UNL     1     -40.486  27.024   4.678  0.00  0.00    +0.295 HD
ENDBRANCH  14  15
ENDBRANCH   6  14
BRANCH   5  17
ATOM     17  O   UNL     1     -37.995  24.066   3.921  0.00  0.00    -0.447 OA
BRANCH  17  19
ATOM     18  N   UNL     1     -33.317  26.842   4.617  0.00  0.00    -0.311 N 
ATOM     19  C   UNL     1     -36.807  24.709   4.144  0.00  0.00    +0.175 C 
ATOM     20  C   UNL     1     -36.527  25.874   3.425  0.00  0.00    +0.041 C 
ATOM     21  C   UNL     1     -35.903  24.203   5.073  0.00  0.00    +0.174 C 
ATOM     22  C   UNL     1     -35.306  26.540   3.650  0.00  0.00    +0.018 C 
ATOM     23  C   UNL     1     -34.415  26.013   4.588  0.00  0.00    +0.052 C 
ATOM     24  C   UNL     1     -34.686  24.847   5.314  0.00  0.00    +0.055 C 
ATOM     25  C   UNL     1     -34.703  27.714   3.117  0.00  0.00    +0.017 C 
ATOM     26  C   UNL     1     -33.482  27.873   3.731  0.00  0.00    +0.062 C 
ATOM     27  H   UNL     1     -32.528  26.713   5.189  0.00  0.00    +0.152 HD
BRANCH  21  28
ATOM     28  O   UNL     1     -36.193  23.064   5.767  0.00  0.00    -0.468 OA
ATOM     29  C   UNL     1     -35.096  22.229   6.127  0.00  0.00    +0.253 C 
ENDBRANCH  21  28
ENDBRANCH  17  19
ENDBRANCH   5  17
TORSDOF 8
ENDMDL
MODEL 6
REMARK VINA RESULT:      -6.1      3.713      6.381
REMARK  Name = 196512
REMARK  8 active torsions:
REMARK  status: ('A' for Active; 'I' for Inactive)
REMARK    1  A    between atoms: C_2  and  O_7
REMARK    2  A    between atoms: C_3  and  O_9
REMARK    3  A    between atoms: C_4  and  O_11
REMARK    4  A    between atoms: C_5  and  O_17
REMARK    5  A    between atoms: C_6  and  C_14
REMARK    6  A    between atoms: C_14  and  O_15
REMARK    7  A    between atoms: O_17  and  C_19
REMARK    8  A    between atoms: C_21  and  O_28
REMARK                            x       y       z     vdW  Elec       q    Type
REMARK                         _______ _______ _______ _____ _____    ______ ____
ROOT
ATOM      1  O   UNL     1     -35.859  22.350   3.394  0.00  0.00    -0.307 OA
ATOM      2  C   UNL     1     -36.229  25.186   3.674  0.00  0.00    +0.173 C 
ATOM      3  C   UNL     1     -36.609  24.432   2.399  0.00  0.00    +0.210 C 
ATOM      4  C   UNL     1     -36.171  24.249   4.880  0.00  0.00    +0.178 C 
ATOM      5  C   UNL     1     -35.765  23.169   2.230  0.00  0.00    +0.319 C 
ATOM      6  C   UNL     1     -35.357  23.001   4.556  0.00  0.00    +0.246 C 
ENDROOT
BRANCH   2   7
ATOM      7  O   UNL     1     -37.207  26.192   3.943  0.00  0.00    -0.379 OA
ATOM      8  H   UNL     1     -37.724  26.363   3.140  0.00  0.00    +0.211 HD
ENDBRANCH   2   7
BRANCH   3   9
ATOM      9  O   UNL     1     -36.386  25.274   1.268  0.00  0.00    -0.377 OA
ATOM     10  H   UNL     1     -35.925  24.772   0.576  0.00  0.00    +0.211 HD
ENDBRANCH   3   9
BRANCH   4  11
ATOM     11  O   UNL     1     -35.551  24.929   5.971  0.00  0.00    -0.379 OA
ATOM     12  H   UNL     1     -35.633  24.392   6.774  0.00  0.00    +0.211 HD
ENDBRANCH   4  11
BRANCH   6  14
ATOM     13  O   UNL     1     -35.969  22.174   6.739  0.00  0.00    -0.247 OA
ATOM     14  C   UNL     1     -35.515  21.968   5.623  0.00  0.00    +0.344 C 
BRANCH  14  15
ATOM     15  O   UNL     1     -35.083  20.760   5.186  0.00  0.00    -0.478 OA
ATOM     16  H   UNL     1     -34.306  20.381   5.547  0.00  0.00    +0.295 HD
ENDBRANCH  14  15
ENDBRANCH   6  14
BRANCH   5  17
ATOM     17  O   UNL     1     -36.262  22.457   1.098  0.00  0.00    -0.447 OA
BRANCH  17  19
ATOM     18  N   UNL     1     -34.112  17.453   0.455  0.00  0.00    -0.311 N 
ATOM     19  C   UNL     1     -35.792  21.183   0.922  0.00  0.00    +0.175 C 
ATOM     20  C   UNL     1     -34.426  20.940   1.089  0.00  0.00    +0.041 C 
ATOM     21  C   UNL     1     -36.668  20.156   0.583  0.00  0.00    +0.174 C 
ATOM     22  C   UNL     1     -33.937  19.631   0.908  0.00  0.00    +0.018 C 
ATOM     23  C   UNL     1     -34.837  18.618   0.569  0.00  0.00    +0.052 C 
ATOM     24  C   UNL     1     -36.207  18.850   0.400  0.00  0.00    +0.055 C 
ATOM     25  C   UNL     1     -32.649  19.034   0.992  0.00  0.00    +0.017 C 
ATOM     26  C   UNL     1     -32.789  17.694   0.709  0.00  0.00    +0.062 C 
ATOM     27  H   UNL     1     -34.490  16.575   0.224  0.00  0.00    +0.152 HD
BRANCH  21  28
ATOM     28  O   UNL     1     -38.000  20.412   0.425  0.00  0.00    -0.468 OA
ATOM     29  C   UNL     1     -38.679  19.691  -0.600  0.00  0.00    +0.253 C 
ENDBRANCH  21  28
ENDBRANCH  17  19
ENDBRANCH   5  17
TORSDOF 8
ENDMDL
MODEL 7
REMARK VINA RESULT:      -6.0      3.499      6.013
REMARK  Name = 196512
REMARK  8 active torsions:
REMARK  status: ('A' for Active; 'I' for Inactive)
REMARK    1  A    between atoms: C_2  and  O_7
REMARK    2  A    between atoms: C_3  and  O_9
REMARK    3  A    between atoms: C_4  and  O_11
REMARK    4  A    between atoms: C_5  and  O_17
REMARK    5  A    between atoms: C_6  and  C_14
REMARK    6  A    between atoms: C_14  and  O_15
REMARK    7  A    between atoms: O_17  and  C_19
REMARK    8  A    between atoms: C_21  and  O_28
REMARK                            x       y       z     vdW  Elec       q    Type
REMARK                         _______ _______ _______ _____ _____    ______ ____
ROOT
ATOM      1  O   UNL     1     -35.849  23.451   3.867  0.00  0.00    -0.307 OA
ATOM      2  C   UNL     1     -37.540  25.630   3.059  0.00  0.00    +0.173 C 
ATOM      3  C   UNL     1     -37.930  24.167   2.845  0.00  0.00    +0.210 C 
ATOM      4  C   UNL     1     -36.502  25.774   4.172  0.00  0.00    +0.178 C 
ATOM      5  C   UNL     1     -36.694  23.276   2.732  0.00  0.00    +0.319 C 
ATOM      6  C   UNL     1     -35.360  24.783   3.976  0.00  0.00    +0.246 C 
ENDROOT
BRANCH   2   7
ATOM      7  O   UNL     1     -38.695  26.383   3.433  0.00  0.00    -0.379 OA
ATOM      8  H   UNL     1     -39.162  25.923   4.149  0.00  0.00    +0.211 HD
ENDBRANCH   2   7
BRANCH   3   9
ATOM      9  O   UNL     1     -38.678  24.050   1.635  0.00  0.00    -0.377 OA
ATOM     10  H   UNL     1     -38.899  24.935   1.303  0.00  0.00    +0.211 HD
ENDBRANCH   3   9
BRANCH   4  11
ATOM     11  O   UNL     1     -35.970  27.097   4.147  0.00  0.00    -0.379 OA
ATOM     12  H   UNL     1     -35.315  27.195   4.855  0.00  0.00    +0.211 HD
ENDBRANCH   4  11
BRANCH   6  14
ATOM     13  O   UNL     1     -33.664  25.578   5.498  0.00  0.00    -0.247 OA
ATOM     14  C   UNL     1     -34.485  24.729   5.187  0.00  0.00    +0.344 C 
BRANCH  14  15
ATOM     15  O   UNL     1     -34.726  23.603   5.901  0.00  0.00    -0.478 OA
ATOM     16  H   UNL     1     -34.457  22.770   5.567  0.00  0.00    +0.295 HD
ENDBRANCH  14  15
ENDBRANCH   6  14
BRANCH   5  17
ATOM     17  O   UNL     1     -37.134  21.920   2.664  0.00  0.00    -0.447 OA
BRANCH  17  19
ATOM     18  N   UNL     1     -34.209  18.572  -0.545  0.00  0.00    -0.311 N 
ATOM     19  C   UNL     1     -36.453  21.096   1.809  0.00  0.00    +0.175 C 
ATOM     20  C   UNL     1     -35.285  20.475   2.261  0.00  0.00    +0.041 C 
ATOM     21  C   UNL     1     -36.923  20.888   0.517  0.00  0.00    +0.174 C 
ATOM     22  C   UNL     1     -34.579  19.627   1.386  0.00  0.00    +0.018 C 
ATOM     23  C   UNL     1     -35.072  19.433   0.093  0.00  0.00    +0.052 C 
ATOM     24  C   UNL     1     -36.240  20.050  -0.369  0.00  0.00    +0.055 C 
ATOM     25  C   UNL     1     -33.390  18.853   1.499  0.00  0.00    +0.017 C 
ATOM     26  C   UNL     1     -33.189  18.216   0.296  0.00  0.00    +0.062 C 
ATOM     27  H   UNL     1     -34.309  18.259  -1.473  0.00  0.00    +0.152 HD
BRANCH  21  28
ATOM     28  O   UNL     1     -38.066  21.502   0.093  0.00  0.00    -0.468 OA
ATOM     29  C   UNL     1     -39.253  20.714   0.069  0.00  0.00    +0.253 C 
ENDBRANCH  21  28
ENDBRANCH  17  19
ENDBRANCH   5  17
TORSDOF 8
ENDMDL
MODEL 8
REMARK VINA RESULT:      -5.9      2.999      6.864
REMARK  Name = 196512
REMARK  8 active torsions:
REMARK  status: ('A' for Active; 'I' for Inactive)
REMARK    1  A    between atoms: C_2  and  O_7
REMARK    2  A    between atoms: C_3  and  O_9
REMARK    3  A    between atoms: C_4  and  O_11
REMARK    4  A    between atoms: C_5  and  O_17
REMARK    5  A    between atoms: C_6  and  C_14
REMARK    6  A    between atoms: C_14  and  O_15
REMARK    7  A    between atoms: O_17  and  C_19
REMARK    8  A    between atoms: C_21  and  O_28
REMARK                            x       y       z     vdW  Elec       q    Type
REMARK                         _______ _______ _______ _____ _____    ______ ____
ROOT
ATOM      1  O   UNL     1     -36.822  23.030   4.365  0.00  0.00    -0.307 OA
ATOM      2  C   UNL     1     -35.821  25.719   4.215  0.00  0.00    +0.173 C 
ATOM      3  C   UNL     1     -37.223  25.338   3.737  0.00  0.00    +0.210 C 
ATOM      4  C   UNL     1     -35.280  24.703   5.221  0.00  0.00    +0.178 C 
ATOM      5  C   UNL     1     -37.283  23.872   3.311  0.00  0.00    +0.319 C 
ATOM      6  C   UNL     1     -35.463  23.281   4.704  0.00  0.00    +0.246 C 
ENDROOT
BRANCH   2   7
ATOM      7  O   UNL     1     -35.865  26.994   4.857  0.00  0.00    -0.379 OA
ATOM      8  H   UNL     1     -36.172  26.886   5.771  0.00  0.00    +0.211 HD
ENDBRANCH   2   7
BRANCH   3   9
ATOM      9  O   UNL     1     -37.573  26.145   2.613  0.00  0.00    -0.377 OA
ATOM     10  H   UNL     1     -37.819  27.034   2.916  0.00  0.00    +0.211 HD
ENDBRANCH   3   9
BRANCH   4  11
ATOM     11  O   UNL     1     -33.888  24.941   5.423  0.00  0.00    -0.379 OA
ATOM     12  H   UNL     1     -33.621  24.580   6.283  0.00  0.00    +0.211 HD
ENDBRANCH   4  11
BRANCH   6  14
ATOM     13  O   UNL     1     -34.098  21.773   6.004  0.00  0.00    -0.247 OA
ATOM     14  C   UNL     1     -35.187  22.280   5.779  0.00  0.00    +0.344 C 
BRANCH  14  15
ATOM     15  O   UNL     1     -36.315  22.007   6.478  0.00  0.00    -0.478 OA
ATOM     16  H   UNL     1     -36.263  21.807   7.392  0.00  0.00    +0.295 HD
ENDBRANCH  14  15
ENDBRANCH   6  14
BRANCH   5  17
ATOM     17  O   UNL     1     -38.641  23.559   3.003  0.00  0.00    -0.447 OA
BRANCH  17  19
ATOM     18  N   UNL     1     -39.208  19.771  -0.921  0.00  0.00    -0.311 N 
ATOM     19  C   UNL     1     -38.848  22.643   2.007  0.00  0.00    +0.175 C 
ATOM     20  C   UNL     1     -37.863  21.683   1.760  0.00  0.00    +0.041 C 
ATOM     21  C   UNL     1     -40.022  22.676   1.261  0.00  0.00    +0.174 C 
ATOM     22  C   UNL     1     -38.069  20.738   0.736  0.00  0.00    +0.018 C 
ATOM     23  C   UNL     1     -39.256  20.791   0.001  0.00  0.00    +0.052 C 
ATOM     24  C   UNL     1     -40.250  21.748   0.241  0.00  0.00    +0.055 C 
ATOM     25  C   UNL     1     -37.308  19.652   0.221  0.00  0.00    +0.017 C 
ATOM     26  C   UNL     1     -38.035  19.078  -0.797  0.00  0.00    +0.062 C 
ATOM     27  H   UNL     1     -39.914  19.571  -1.577  0.00  0.00    +0.152 HD
BRANCH  21  28
ATOM     28  O   UNL     1     -40.974  23.620   1.516  0.00  0.00    -0.468 OA
ATOM     29  C   UNL     1     -41.288  24.523   0.460  0.00  0.00    +0.253 C 
ENDBRANCH  21  28
ENDBRANCH  17  19
ENDBRANCH   5  17
TORSDOF 8
ENDMDL
MODEL 9
REMARK VINA RESULT:      -5.8      2.956      6.255
REMARK  Name = 196512
REMARK  8 active torsions:
REMARK  status: ('A' for Active; 'I' for Inactive)
REMARK    1  A    between atoms: C_2  and  O_7
REMARK    2  A    between atoms: C_3  and  O_9
REMARK    3  A    between atoms: C_4  and  O_11
REMARK    4  A    between atoms: C_5  and  O_17
REMARK    5  A    between atoms: C_6  and  C_14
REMARK    6  A    between atoms: C_14  and  O_15
REMARK    7  A    between atoms: O_17  and  C_19
REMARK    8  A    between atoms: C_21  and  O_28
REMARK                            x       y       z     vdW  Elec       q    Type
REMARK                         _______ _______ _______ _____ _____    ______ ____
ROOT
ATOM      1  O   UNL     1     -36.507  24.946   3.505  0.00  0.00    -0.307 OA
ATOM      2  C   UNL     1     -36.215  22.160   4.143  0.00  0.00    +0.173 C 
ATOM      3  C   UNL     1     -36.967  22.642   2.902  0.00  0.00    +0.210 C 
ATOM      4  C   UNL     1     -35.234  23.218   4.647  0.00  0.00    +0.178 C 
ATOM      5  C   UNL     1     -37.538  24.044   3.112  0.00  0.00    +0.319 C 
ATOM      6  C   UNL     1     -35.912  24.580   4.745  0.00  0.00    +0.246 C 
ENDROOT
BRANCH   2   7
ATOM      7  O   UNL     1     -35.469  20.984   3.822  0.00  0.00    -0.379 OA
ATOM      8  H   UNL     1     -36.023  20.382   3.301  0.00  0.00    +0.211 HD
ENDBRANCH   2   7
BRANCH   3   9
ATOM      9  O   UNL     1     -38.051  21.753   2.632  0.00  0.00    -0.377 OA
ATOM     10  H   UNL     1     -37.956  21.389   1.737  0.00  0.00    +0.211 HD
ENDBRANCH   3   9
BRANCH   4  11
ATOM     11  O   UNL     1     -34.767  22.845   5.942  0.00  0.00    -0.379 OA
ATOM     12  H   UNL     1     -35.262  23.333   6.617  0.00  0.00    +0.211 HD
ENDBRANCH   4  11
BRANCH   6  14
ATOM     13  O   UNL     1     -33.718  25.483   5.187  0.00  0.00    -0.247 OA
ATOM     14  C   UNL     1     -34.908  25.662   4.976  0.00  0.00    +0.344 C 
BRANCH  14  15
ATOM     15  O   UNL     1     -35.497  26.881   4.922  0.00  0.00    -0.478 OA
ATOM     16  H   UNL     1     -35.302  27.465   4.217  0.00  0.00    +0.295 HD
ENDBRANCH  14  15
ENDBRANCH   6  14
BRANCH   5  17
ATOM     17  O   UNL     1     -38.110  24.474   1.877  0.00  0.00    -0.447 OA
BRANCH  17  19
ATOM     18  N   UNL     1     -43.288  26.238   2.263  0.00  0.00    -0.311 N 
ATOM     19  C   UNL     1     -39.419  24.875   1.914  0.00  0.00    +0.175 C 
ATOM     20  C   UNL     1     -39.826  25.749   2.925  0.00  0.00    +0.041 C 
ATOM     21  C   UNL     1     -40.318  24.413   0.958  0.00  0.00    +0.174 C 
ATOM     22  C   UNL     1     -41.172  26.164   2.969  0.00  0.00    +0.018 C 
ATOM     23  C   UNL     1     -42.055  25.687   1.998  0.00  0.00    +0.052 C 
ATOM     24  C   UNL     1     -41.657  24.811   0.980  0.00  0.00    +0.055 C 
ATOM     25  C   UNL     1     -41.919  27.019   3.827  0.00  0.00    +0.017 C 
ATOM     26  C   UNL     1     -43.215  27.044   3.368  0.00  0.00    +0.062 C 
ATOM     27  H   UNL     1     -44.103  26.076   1.737  0.00  0.00    +0.152 HD
BRANCH  21  28
ATOM     28  O   UNL     1     -39.902  23.560  -0.023  0.00  0.00    -0.468 OA
ATOM     29  C   UNL     1     -40.414  22.230   0.017  0.00  0.00    +0.253 C 
ENDBRANCH  21  28
ENDBRANCH  17  19
ENDBRANCH   5  17
TORSDOF 8
ENDMDL
