MODEL 1
REMARK VINA RESULT:      -7.2      0.000      0.000
REMARK  Name = 204810
REMARK  4 active torsions:
REMARK  status: ('A' for Active; 'I' for Inactive)
REMARK    1  A    between atoms: C_2  and  O_28
REMARK    2  A    between atoms: C_8  and  C_23
REMARK    3  A    between atoms: C_11  and  O_30
REMARK    4  A    between atoms: C_20  and  O_32
REMARK                            x       y       z     vdW  Elec       q    Type
REMARK                         _______ _______ _______ _____ _____    ______ ____
ROOT
ATOM      1  O   UNL     1     -36.573  28.368   1.786  0.00  0.00    -0.294 OA
ATOM      2  C   UNL     1     -34.403  25.819   3.991  0.00  0.00    +0.091 C 
ATOM      3  C   UNL     1     -33.633  27.110   3.601  0.00  0.00    +0.032 C 
ATOM      4  C   UNL     1     -35.348  25.268   2.841  0.00  0.00    +0.058 C 
ATOM      5  C   UNL     1     -34.539  28.238   3.067  0.00  0.00    +0.062 C 
ATOM      6  C   UNL     1     -33.704  29.419   2.431  0.00  0.00    +0.007 C 
ATOM      7  C   UNL     1     -32.272  29.486   3.077  0.00  0.00    +0.003 C 
ATOM      8  C   UNL     1     -36.748  25.109   3.543  0.00  0.00    +0.030 C 
ATOM      9  C   UNL     1     -32.749  27.646   4.750  0.00  0.00    +0.003 C 
ATOM     10  C   UNL     1     -35.316  25.980   5.222  0.00  0.00    +0.027 C 
ATOM     11  C   UNL     1     -35.423  26.256   1.648  0.00  0.00    +0.170 C 
ATOM     12  C   UNL     1     -32.325  29.108   4.563  0.00  0.00    +0.000 C 
ATOM     13  C   UNL     1     -35.614  27.682   2.139  0.00  0.00    +0.177 C 
ATOM     14  C   UNL     1     -36.402  24.937   5.020  0.00  0.00    +0.007 C 
ATOM     15  C   UNL     1     -34.493  30.738   2.677  0.00  0.00    +0.003 C 
ATOM     16  C   UNL     1     -31.552  30.828   2.860  0.00  0.00    +0.029 C 
ATOM     17  C   UNL     1     -34.845  23.910   2.289  0.00  0.00    +0.006 C 
ATOM     18  C   UNL     1     -33.513  29.221   0.906  0.00  0.00    +0.000 C 
ATOM     19  C   UNL     1     -33.707  32.010   2.387  0.00  0.00    +0.029 C 
ATOM     20  C   UNL     1     -32.410  32.043   3.181  0.00  0.00    +0.111 C 
ENDROOT
BRANCH   8  23
ATOM     21  O   UNL     1     -38.173  21.741   2.483  0.00  0.00    -0.418 OA
ATOM     22  O   UNL     1     -40.245  21.206   1.716  0.00  0.00    -0.244 OA
ATOM     23  C   UNL     1     -37.666  24.034   3.054  0.00  0.00    +0.016 C 
ATOM     24  C   UNL     1     -39.009  24.393   2.679  0.00  0.00    +0.006 C 
ATOM     25  C   UNL     1     -37.312  22.749   2.941  0.00  0.00    +0.179 C 
ATOM     26  C   UNL     1     -39.867  23.470   2.236  0.00  0.00    +0.082 C 
ATOM     27  C   UNL     1     -39.458  22.055   2.120  0.00  0.00    +0.346 C 
ENDBRANCH   8  23
BRANCH   2  28
ATOM     28  O   UNL     1     -33.433  24.830   4.370  0.00  0.00    -0.387 OA
ATOM     29  H   UNL     1     -33.843  23.951   4.353  0.00  0.00    +0.210 HD
ENDBRANCH   2  28
BRANCH  11  30
ATOM     30  O   UNL     1     -36.476  25.911   0.765  0.00  0.00    -0.377 OA
ATOM     31  H   UNL     1     -36.946  26.715   0.493  0.00  0.00    +0.211 HD
ENDBRANCH  11  30
BRANCH  20  32
ATOM     32  O   UNL     1     -31.702  33.230   2.840  0.00  0.00    -0.384 OA
ATOM     33  H   UNL     1     -32.001  33.959   3.406  0.00  0.00    +0.210 HD
ENDBRANCH  20  32
TORSDOF 4
ENDMDL
MODEL 2
REMARK VINA RESULT:      -7.2      4.926      7.532
REMARK  Name = 204810
REMARK  4 active torsions:
REMARK  status: ('A' for Active; 'I' for Inactive)
REMARK    1  A    between atoms: C_2  and  O_28
REMARK    2  A    between atoms: C_8  and  C_23
REMARK    3  A    between atoms: C_11  and  O_30
REMARK    4  A    between atoms: C_20  and  O_32
REMARK                            x       y       z     vdW  Elec       q    Type
REMARK                         _______ _______ _______ _____ _____    ______ ____
ROOT
ATOM      1  O   UNL     1     -35.189  20.274   3.170  0.00  0.00    -0.294 OA
ATOM      2  C   UNL     1     -34.119  21.789  -0.383  0.00  0.00    +0.091 C 
ATOM      3  C   UNL     1     -34.838  22.814   0.536  0.00  0.00    +0.032 C 
ATOM      4  C   UNL     1     -34.719  20.322  -0.294  0.00  0.00    +0.058 C 
ATOM      5  C   UNL     1     -34.940  22.367   2.007  0.00  0.00    +0.062 C 
ATOM      6  C   UNL     1     -35.905  23.296   2.844  0.00  0.00    +0.007 C 
ATOM      7  C   UNL     1     -35.962  24.735   2.214  0.00  0.00    +0.003 C 
ATOM      8  C   UNL     1     -33.466  19.417   0.002  0.00  0.00    +0.030 C 
ATOM      9  C   UNL     1     -34.211  24.226   0.457  0.00  0.00    +0.003 C 
ATOM     10  C   UNL     1     -32.614  21.629  -0.090  0.00  0.00    +0.027 C 
ATOM     11  C   UNL     1     -35.775  20.211   0.835  0.00  0.00    +0.170 C 
ATOM     12  C   UNL     1     -34.599  25.130   1.632  0.00  0.00    +0.000 C 
ATOM     13  C   UNL     1     -35.283  20.884   2.105  0.00  0.00    +0.177 C 
ATOM     14  C   UNL     1     -32.292  20.219  -0.553  0.00  0.00    +0.007 C 
ATOM     15  C   UNL     1     -35.364  23.343   4.304  0.00  0.00    +0.003 C 
ATOM     16  C   UNL     1     -36.505  25.813   3.167  0.00  0.00    +0.029 C 
ATOM     17  C   UNL     1     -35.406  19.904  -1.618  0.00  0.00    +0.006 C 
ATOM     18  C   UNL     1     -37.352  22.742   2.860  0.00  0.00    +0.000 C 
ATOM     19  C   UNL     1     -36.000  24.414   5.181  0.00  0.00    +0.029 C 
ATOM     20  C   UNL     1     -35.863  25.790   4.547  0.00  0.00    +0.111 C 
ENDROOT
BRANCH   8  23
ATOM     21  O   UNL     1     -33.957  15.652  -0.289  0.00  0.00    -0.418 OA
ATOM     22  O   UNL     1     -33.446  14.239  -1.995  0.00  0.00    -0.244 OA
ATOM     23  C   UNL     1     -33.474  18.010  -0.507  0.00  0.00    +0.016 C 
ATOM     24  C   UNL     1     -32.942  17.750  -1.819  0.00  0.00    +0.006 C 
ATOM     25  C   UNL     1     -33.949  16.971   0.188  0.00  0.00    +0.179 C 
ATOM     26  C   UNL     1     -32.927  16.511  -2.320  0.00  0.00    +0.082 C 
ATOM     27  C   UNL     1     -33.458  15.376  -1.536  0.00  0.00    +0.346 C 
ENDBRANCH   8  23
BRANCH   2  28
ATOM     28  O   UNL     1     -34.188  22.286  -1.729  0.00  0.00    -0.387 OA
ATOM     29  H   UNL     1     -34.942  22.891  -1.813  0.00  0.00    +0.210 HD
ENDBRANCH   2  28
BRANCH  11  30
ATOM     30  O   UNL     1     -36.093  18.857   1.106  0.00  0.00    -0.377 OA
ATOM     31  H   UNL     1     -36.351  18.765   2.036  0.00  0.00    +0.211 HD
ENDBRANCH  11  30
BRANCH  20  32
ATOM     32  O   UNL     1     -36.509  26.740   5.389  0.00  0.00    -0.384 OA
ATOM     33  H   UNL     1     -36.883  27.453   4.845  0.00  0.00    +0.210 HD
ENDBRANCH  20  32
TORSDOF 4
ENDMDL
MODEL 3
REMARK VINA RESULT:      -7.0      4.683      7.681
REMARK  Name = 204810
REMARK  4 active torsions:
REMARK  status: ('A' for Active; 'I' for Inactive)
REMARK    1  A    between atoms: C_2  and  O_28
REMARK    2  A    between atoms: C_8  and  C_23
REMARK    3  A    between atoms: C_11  and  O_30
REMARK    4  A    between atoms: C_20  and  O_32
REMARK                            x       y       z     vdW  Elec       q    Type
REMARK                         _______ _______ _______ _____ _____    ______ ____
ROOT
ATOM      1  O   UNL     1     -33.840  23.544  -0.231  0.00  0.00    -0.294 OA
ATOM      2  C   UNL     1     -35.789  20.886   2.049  0.00  0.00    +0.091 C 
ATOM      3  C   UNL     1     -34.709  20.244   1.136  0.00  0.00    +0.032 C 
ATOM      4  C   UNL     1     -36.585  22.073   1.358  0.00  0.00    +0.058 C 
ATOM      5  C   UNL     1     -33.726  21.262   0.525  0.00  0.00    +0.062 C 
ATOM      6  C   UNL     1     -32.824  20.614  -0.599  0.00  0.00    +0.007 C 
ATOM      7  C   UNL     1     -32.663  19.071  -0.350  0.00  0.00    +0.003 C 
ATOM      8  C   UNL     1     -36.455  23.262   2.381  0.00  0.00    +0.030 C 
ATOM      9  C   UNL     1     -33.924  19.115   1.845  0.00  0.00    +0.003 C 
ATOM     10  C   UNL     1     -35.233  21.479   3.358  0.00  0.00    +0.027 C 
ATOM     11  C   UNL     1     -35.970  22.440  -0.017  0.00  0.00    +0.170 C 
ATOM     12  C   UNL     1     -32.603  18.763   1.151  0.00  0.00    +0.000 C 
ATOM     13  C   UNL     1     -34.456  22.522   0.072  0.00  0.00    +0.177 C 
ATOM     14  C   UNL     1     -36.224  22.572   3.722  0.00  0.00    +0.007 C 
ATOM     15  C   UNL     1     -31.444  21.335  -0.569  0.00  0.00    +0.003 C 
ATOM     16  C   UNL     1     -31.483  18.436  -1.105  0.00  0.00    +0.029 C 
ATOM     17  C   UNL     1     -38.070  21.703   1.120  0.00  0.00    +0.006 C 
ATOM     18  C   UNL     1     -33.455  20.791  -2.004  0.00  0.00    +0.000 C 
ATOM     19  C   UNL     1     -30.355  20.653  -1.386  0.00  0.00    +0.029 C 
ATOM     20  C   UNL     1     -30.177  19.204  -0.958  0.00  0.00    +0.111 C 
ENDROOT
BRANCH   8  23
ATOM     21  O   UNL     1     -38.490  26.470   2.127  0.00  0.00    -0.418 OA
ATOM     22  O   UNL     1     -40.659  26.874   2.676  0.00  0.00    -0.244 OA
ATOM     23  C   UNL     1     -37.568  24.260   2.448  0.00  0.00    +0.016 C 
ATOM     24  C   UNL     1     -38.846  23.833   2.955  0.00  0.00    +0.006 C 
ATOM     25  C   UNL     1     -37.447  25.535   2.064  0.00  0.00    +0.179 C 
ATOM     26  C   UNL     1     -39.872  24.685   3.035  0.00  0.00    +0.082 C 
ATOM     27  C   UNL     1     -39.718  26.091   2.604  0.00  0.00    +0.346 C 
ENDBRANCH   8  23
BRANCH   2  28
ATOM     28  O   UNL     1     -36.687  19.843   2.461  0.00  0.00    -0.387 OA
ATOM     29  H   UNL     1     -36.222  19.230   3.052  0.00  0.00    +0.210 HD
ENDBRANCH   2  28
BRANCH  11  30
ATOM     30  O   UNL     1     -36.486  23.670  -0.494  0.00  0.00    -0.377 OA
ATOM     31  H   UNL     1     -36.077  24.403  -0.008  0.00  0.00    +0.211 HD
ENDBRANCH  11  30
BRANCH  20  32
ATOM     32  O   UNL     1     -29.179  18.610  -1.782  0.00  0.00    -0.384 OA
ATOM     33  H   UNL     1     -29.219  18.998  -2.670  0.00  0.00    +0.210 HD
ENDBRANCH  20  32
TORSDOF 4
ENDMDL
MODEL 4
REMARK VINA RESULT:      -6.7      2.016      8.025
REMARK  Name = 204810
REMARK  4 active torsions:
REMARK  status: ('A' for Active; 'I' for Inactive)
REMARK    1  A    between atoms: C_2  and  O_28
REMARK    2  A    between atoms: C_8  and  C_23
REMARK    3  A    between atoms: C_11  and  O_30
REMARK    4  A    between atoms: C_20  and  O_32
REMARK                            x       y       z     vdW  Elec       q    Type
REMARK                         _______ _______ _______ _____ _____    ______ ____
ROOT
ATOM      1  O   UNL     1     -32.962  24.929   0.845  0.00  0.00    -0.294 OA
ATOM      2  C   UNL     1     -34.960  26.388   3.998  0.00  0.00    +0.091 C 
ATOM      3  C   UNL     1     -35.602  25.108   3.396  0.00  0.00    +0.032 C 
ATOM      4  C   UNL     1     -34.366  27.377   2.908  0.00  0.00    +0.058 C 
ATOM      5  C   UNL     1     -34.678  24.344   2.428  0.00  0.00    +0.062 C 
ATOM      6  C   UNL     1     -35.451  23.217   1.635  0.00  0.00    +0.007 C 
ATOM      7  C   UNL     1     -36.690  22.717   2.463  0.00  0.00    +0.003 C 
ATOM      8  C   UNL     1     -32.888  27.627   3.386  0.00  0.00    +0.030 C 
ATOM      9  C   UNL     1     -36.139  24.146   4.481  0.00  0.00    +0.003 C 
ATOM     10  C   UNL     1     -33.795  26.109   4.968  0.00  0.00    +0.027 C 
ATOM     11  C   UNL     1     -34.404  26.746   1.492  0.00  0.00    +0.170 C 
ATOM     12  C   UNL     1     -36.380  22.722   3.966  0.00  0.00    +0.000 C 
ATOM     13  C   UNL     1     -33.913  25.309   1.528  0.00  0.00    +0.177 C 
ATOM     14  C   UNL     1     -32.936  27.360   4.888  0.00  0.00    +0.007 C 
ATOM     15  C   UNL     1     -34.447  22.057   1.370  0.00  0.00    +0.003 C 
ATOM     16  C   UNL     1     -37.240  21.357   2.004  0.00  0.00    +0.029 C 
ATOM     17  C   UNL     1     -35.163  28.705   2.847  0.00  0.00    +0.006 C 
ATOM     18  C   UNL     1     -35.985  23.743   0.279  0.00  0.00    +0.000 C 
ATOM     19  C   UNL     1     -35.087  20.768   0.871  0.00  0.00    +0.029 C 
ATOM     20  C   UNL     1     -36.169  20.290   1.828  0.00  0.00    +0.111 C 
ENDROOT
BRANCH   8  23
ATOM     21  O   UNL     1     -30.956  30.421   1.667  0.00  0.00    -0.418 OA
ATOM     22  O   UNL     1     -30.593  32.568   2.324  0.00  0.00    -0.244 OA
ATOM     23  C   UNL     1     -32.256  28.946   3.071  0.00  0.00    +0.016 C 
ATOM     24  C   UNL     1     -32.415  30.027   4.009  0.00  0.00    +0.006 C 
ATOM     25  C   UNL     1     -31.548  29.185   1.962  0.00  0.00    +0.179 C 
ATOM     26  C   UNL     1     -31.871  31.224   3.774  0.00  0.00    +0.082 C 
ATOM     27  C   UNL     1     -31.092  31.468   2.542  0.00  0.00    +0.346 C 
ENDBRANCH   8  23
BRANCH   2  28
ATOM     28  O   UNL     1     -35.960  27.046   4.792  0.00  0.00    -0.387 OA
ATOM     29  H   UNL     1     -35.551  27.769   5.294  0.00  0.00    +0.210 HD
ENDBRANCH   2  28
BRANCH  11  30
ATOM     30  O   UNL     1     -33.620  27.495   0.579  0.00  0.00    -0.377 OA
ATOM     31  H   UNL     1     -34.204  27.996  -0.012  0.00  0.00    +0.211 HD
ENDBRANCH  11  30
BRANCH  20  32
ATOM     32  O   UNL     1     -36.757  19.109   1.291  0.00  0.00    -0.384 OA
ATOM     33  H   UNL     1     -37.189  19.318   0.447  0.00  0.00    +0.210 HD
ENDBRANCH  20  32
TORSDOF 4
ENDMDL
MODEL 5
REMARK VINA RESULT:      -6.5      2.587      7.248
REMARK  Name = 204810
REMARK  4 active torsions:
REMARK  status: ('A' for Active; 'I' for Inactive)
REMARK    1  A    between atoms: C_2  and  O_28
REMARK    2  A    between atoms: C_8  and  C_23
REMARK    3  A    between atoms: C_11  and  O_30
REMARK    4  A    between atoms: C_20  and  O_32
REMARK                            x       y       z     vdW  Elec       q    Type
REMARK                         _______ _______ _______ _____ _____    ______ ____
ROOT
ATOM      1  O   UNL     1     -35.839  25.043   0.498  0.00  0.00    -0.294 OA
ATOM      2  C   UNL     1     -34.350  27.968   2.798  0.00  0.00    +0.091 C 
ATOM      3  C   UNL     1     -34.801  26.717   3.602  0.00  0.00    +0.032 C 
ATOM      4  C   UNL     1     -35.306  28.324   1.582  0.00  0.00    +0.058 C 
ATOM      5  C   UNL     1     -35.042  25.470   2.728  0.00  0.00    +0.062 C 
ATOM      6  C   UNL     1     -35.753  24.311   3.532  0.00  0.00    +0.007 C 
ATOM      7  C   UNL     1     -35.429  24.430   5.066  0.00  0.00    +0.003 C 
ATOM      8  C   UNL     1     -34.332  28.427   0.351  0.00  0.00    +0.030 C 
ATOM      9  C   UNL     1     -33.833  26.371   4.757  0.00  0.00    +0.003 C 
ATOM     10  C   UNL     1     -32.942  27.846   2.184  0.00  0.00    +0.027 C 
ATOM     11  C   UNL     1     -36.378  27.224   1.365  0.00  0.00    +0.170 C 
ATOM     12  C   UNL     1     -33.999  24.941   5.283  0.00  0.00    +0.000 C 
ATOM     13  C   UNL     1     -35.754  25.841   1.431  0.00  0.00    +0.177 C 
ATOM     14  C   UNL     1     -32.982  28.767   0.976  0.00  0.00    +0.007 C 
ATOM     15  C   UNL     1     -35.246  22.957   2.953  0.00  0.00    +0.003 C 
ATOM     16  C   UNL     1     -35.696  23.141   5.861  0.00  0.00    +0.029 C 
ATOM     17  C   UNL     1     -36.053  29.662   1.815  0.00  0.00    +0.006 C 
ATOM     18  C   UNL     1     -37.294  24.380   3.380  0.00  0.00    +0.000 C 
ATOM     19  C   UNL     1     -35.604  21.737   3.791  0.00  0.00    +0.029 C 
ATOM     20  C   UNL     1     -35.108  21.892   5.221  0.00  0.00    +0.111 C 
ENDROOT
BRANCH   8  23
ATOM     21  O   UNL     1     -35.739  29.894  -2.868  0.00  0.00    -0.418 OA
ATOM     22  O   UNL     1     -35.601  32.008  -3.695  0.00  0.00    -0.244 OA
ATOM     23  C   UNL     1     -34.690  29.367  -0.756  0.00  0.00    +0.016 C 
ATOM     24  C   UNL     1     -34.245  30.733  -0.670  0.00  0.00    +0.006 C 
ATOM     25  C   UNL     1     -35.403  29.013  -1.830  0.00  0.00    +0.179 C 
ATOM     26  C   UNL     1     -34.538  31.612  -1.632  0.00  0.00    +0.082 C 
ATOM     27  C   UNL     1     -35.329  31.202  -2.812  0.00  0.00    +0.346 C 
ENDBRANCH   8  23
BRANCH   2  28
ATOM     28  O   UNL     1     -34.264  29.069   3.717  0.00  0.00    -0.387 OA
ATOM     29  H   UNL     1     -35.035  29.647   3.603  0.00  0.00    +0.210 HD
ENDBRANCH   2  28
BRANCH  11  30
ATOM     30  O   UNL     1     -37.036  27.392   0.122  0.00  0.00    -0.377 OA
ATOM     31  H   UNL     1     -36.378  27.418  -0.591  0.00  0.00    +0.211 HD
ENDBRANCH  11  30
BRANCH  20  32
ATOM     32  O   UNL     1     -35.506  20.743   5.964  0.00  0.00    -0.384 OA
ATOM     33  H   UNL     1     -36.406  20.874   6.305  0.00  0.00    +0.210 HD
ENDBRANCH  20  32
TORSDOF 4
ENDMDL
MODEL 6
REMARK VINA RESULT:      -6.4      2.336      3.865
REMARK  Name = 204810
REMARK  4 active torsions:
REMARK  status: ('A' for Active; 'I' for Inactive)
REMARK    1  A    between atoms: C_2  and  O_28
REMARK    2  A    between atoms: C_8  and  C_23
REMARK    3  A    between atoms: C_11  and  O_30
REMARK    4  A    between atoms: C_20  and  O_32
REMARK                            x       y       z     vdW  Elec       q    Type
REMARK                         _______ _______ _______ _____ _____    ______ ____
ROOT
ATOM      1  O   UNL     1     -32.907  26.776   5.897  0.00  0.00    -0.294 OA
ATOM      2  C   UNL     1     -32.922  27.394   1.937  0.00  0.00    +0.091 C 
ATOM      3  C   UNL     1     -32.053  28.416   2.719  0.00  0.00    +0.032 C 
ATOM      4  C   UNL     1     -34.265  26.996   2.683  0.00  0.00    +0.058 C 
ATOM      5  C   UNL     1     -31.753  27.994   4.171  0.00  0.00    +0.062 C 
ATOM      6  C   UNL     1     -31.108  29.169   5.009  0.00  0.00    +0.007 C 
ATOM      7  C   UNL     1     -30.341  30.160   4.060  0.00  0.00    +0.003 C 
ATOM      8  C   UNL     1     -34.232  25.422   2.710  0.00  0.00    +0.030 C 
ATOM      9  C   UNL     1     -30.734  28.759   1.988  0.00  0.00    +0.003 C 
ATOM     10  C   UNL     1     -32.211  26.059   1.643  0.00  0.00    +0.027 C 
ATOM     11  C   UNL     1     -34.312  27.585   4.116  0.00  0.00    +0.170 C 
ATOM     12  C   UNL     1     -29.683  29.405   2.898  0.00  0.00    +0.000 C 
ATOM     13  C   UNL     1     -32.985  27.381   4.828  0.00  0.00    +0.177 C 
ATOM     14  C   UNL     1     -33.342  25.051   1.527  0.00  0.00    +0.007 C 
ATOM     15  C   UNL     1     -30.143  28.529   6.051  0.00  0.00    +0.003 C 
ATOM     16  C   UNL     1     -29.335  31.067   4.788  0.00  0.00    +0.029 C 
ATOM     17  C   UNL     1     -35.515  27.513   1.926  0.00  0.00    +0.006 C 
ATOM     18  C   UNL     1     -32.188  29.990   5.758  0.00  0.00    +0.000 C 
ATOM     19  C   UNL     1     -29.221  29.518   6.750  0.00  0.00    +0.029 C 
ATOM     20  C   UNL     1     -28.413  30.319   5.741  0.00  0.00    +0.111 C 
ENDROOT
BRANCH   8  23
ATOM     21  O   UNL     1     -37.438  23.655   3.757  0.00  0.00    -0.418 OA
ATOM     22  O   UNL     1     -39.062  22.697   2.486  0.00  0.00    -0.244 OA
ATOM     23  C   UNL     1     -35.535  24.688   2.684  0.00  0.00    +0.016 C 
ATOM     24  C   UNL     1     -36.095  24.325   1.408  0.00  0.00    +0.006 C 
ATOM     25  C   UNL     1     -36.216  24.344   3.782  0.00  0.00    +0.179 C 
ATOM     26  C   UNL     1     -37.256  23.669   1.331  0.00  0.00    +0.082 C 
ATOM     27  C   UNL     1     -37.995  23.298   2.556  0.00  0.00    +0.346 C 
ENDBRANCH   8  23
BRANCH   2  28
ATOM     28  O   UNL     1     -33.205  27.960   0.647  0.00  0.00    -0.387 OA
ATOM     29  H   UNL     1     -34.142  28.210   0.601  0.00  0.00    +0.210 HD
ENDBRANCH   2  28
BRANCH  11  30
ATOM     30  O   UNL     1     -35.355  26.999   4.875  0.00  0.00    -0.377 OA
ATOM     31  H   UNL     1     -34.985  26.593   5.675  0.00  0.00    +0.211 HD
ENDBRANCH  11  30
BRANCH  20  32
ATOM     32  O   UNL     1     -27.603  31.252   6.450  0.00  0.00    -0.384 OA
ATOM     33  H   UNL     1     -28.093  31.589   7.216  0.00  0.00    +0.210 HD
ENDBRANCH  20  32
TORSDOF 4
ENDMDL
MODEL 7
REMARK VINA RESULT:      -6.3      4.665      7.125
REMARK  Name = 204810
REMARK  4 active torsions:
REMARK  status: ('A' for Active; 'I' for Inactive)
REMARK    1  A    between atoms: C_2  and  O_28
REMARK    2  A    between atoms: C_8  and  C_23
REMARK    3  A    between atoms: C_11  and  O_30
REMARK    4  A    between atoms: C_20  and  O_32
REMARK                            x       y       z     vdW  Elec       q    Type
REMARK                         _______ _______ _______ _____ _____    ______ ____
ROOT
ATOM      1  O   UNL     1     -39.112  21.475   0.264  0.00  0.00    -0.294 OA
ATOM      2  C   UNL     1     -35.926  23.138   2.037  0.00  0.00    +0.091 C 
ATOM      3  C   UNL     1     -37.059  24.152   1.723  0.00  0.00    +0.032 C 
ATOM      4  C   UNL     1     -35.723  22.039   0.909  0.00  0.00    +0.058 C 
ATOM      5  C   UNL     1     -38.407  23.491   1.373  0.00  0.00    +0.062 C 
ATOM      6  C   UNL     1     -39.447  24.533   0.800  0.00  0.00    +0.007 C 
ATOM      7  C   UNL     1     -39.134  25.974   1.343  0.00  0.00    +0.003 C 
ATOM      8  C   UNL     1     -35.786  20.675   1.692  0.00  0.00    +0.030 C 
ATOM      9  C   UNL     1     -37.260  25.189   2.854  0.00  0.00    +0.003 C 
ATOM     10  C   UNL     1     -36.135  22.344   3.341  0.00  0.00    +0.027 C 
ATOM     11  C   UNL     1     -36.834  22.124  -0.169  0.00  0.00    +0.170 C 
ATOM     12  C   UNL     1     -38.609  25.913   2.783  0.00  0.00    +0.000 C 
ATOM     13  C   UNL     1     -38.202  22.276   0.475  0.00  0.00    +0.177 C 
ATOM     14  C   UNL     1     -35.378  21.047   3.115  0.00  0.00    +0.007 C 
ATOM     15  C   UNL     1     -40.868  24.065   1.234  0.00  0.00    +0.003 C 
ATOM     16  C   UNL     1     -40.307  26.960   1.211  0.00  0.00    +0.029 C 
ATOM     17  C   UNL     1     -34.361  22.204   0.188  0.00  0.00    +0.006 C 
ATOM     18  C   UNL     1     -39.388  24.601  -0.747  0.00  0.00    +0.000 C 
ATOM     19  C   UNL     1     -41.968  25.096   1.017  0.00  0.00    +0.029 C 
ATOM     20  C   UNL     1     -41.633  26.406   1.714  0.00  0.00    +0.111 C 
ENDROOT
BRANCH   8  23
ATOM     21  O   UNL     1     -34.705  17.588  -0.257  0.00  0.00    -0.418 OA
ATOM     22  O   UNL     1     -32.752  16.426  -0.189  0.00  0.00    -0.244 OA
ATOM     23  C   UNL     1     -34.995  19.521   1.165  0.00  0.00    +0.016 C 
ATOM     24  C   UNL     1     -33.668  19.304   1.680  0.00  0.00    +0.006 C 
ATOM     25  C   UNL     1     -35.448  18.670   0.238  0.00  0.00    +0.179 C 
ATOM     26  C   UNL     1     -32.919  18.287   1.241  0.00  0.00    +0.082 C 
ATOM     27  C   UNL     1     -33.438  17.359   0.215  0.00  0.00    +0.346 C 
ENDBRANCH   8  23
BRANCH   2  28
ATOM     28  O   UNL     1     -34.716  23.885   2.242  0.00  0.00    -0.387 OA
ATOM     29  H   UNL     1     -34.095  23.701   1.520  0.00  0.00    +0.210 HD
ENDBRANCH   2  28
BRANCH  11  30
ATOM     30  O   UNL     1     -36.824  20.979  -1.003  0.00  0.00    -0.377 OA
ATOM     31  H   UNL     1     -36.986  21.247  -1.922  0.00  0.00    +0.211 HD
ENDBRANCH  11  30
BRANCH  20  32
ATOM     32  O   UNL     1     -42.673  27.341   1.443  0.00  0.00    -0.384 OA
ATOM     33  H   UNL     1     -43.519  26.982   1.756  0.00  0.00    +0.210 HD
ENDBRANCH  20  32
TORSDOF 4
ENDMDL
MODEL 8
REMARK VINA RESULT:      -6.3      3.425      6.074
REMARK  Name = 204810
REMARK  4 active torsions:
REMARK  status: ('A' for Active; 'I' for Inactive)
REMARK    1  A    between atoms: C_2  and  O_28
REMARK    2  A    between atoms: C_8  and  C_23
REMARK    3  A    between atoms: C_11  and  O_30
REMARK    4  A    between atoms: C_20  and  O_32
REMARK                            x       y       z     vdW  Elec       q    Type
REMARK                         _______ _______ _______ _____ _____    ______ ____
ROOT
ATOM      1  O   UNL     1     -35.090  21.699   2.168  0.00  0.00    -0.294 OA
ATOM      2  C   UNL     1     -38.730  23.313   1.708  0.00  0.00    +0.091 C 
ATOM      3  C   UNL     1     -37.880  24.006   2.808  0.00  0.00    +0.032 C 
ATOM      4  C   UNL     1     -38.549  21.737   1.660  0.00  0.00    +0.058 C 
ATOM      5  C   UNL     1     -36.383  23.641   2.760  0.00  0.00    +0.062 C 
ATOM      6  C   UNL     1     -35.609  24.141   4.043  0.00  0.00    +0.007 C 
ATOM      7  C   UNL     1     -36.330  25.393   4.664  0.00  0.00    +0.003 C 
ATOM      8  C   UNL     1     -38.193  21.440   0.156  0.00  0.00    +0.030 C 
ATOM      9  C   UNL     1     -38.047  25.544   2.808  0.00  0.00    +0.003 C 
ATOM     10  C   UNL     1     -38.423  23.799   0.277  0.00  0.00    +0.027 C 
ATOM     11  C   UNL     1     -37.418  21.269   2.612  0.00  0.00    +0.170 C 
ATOM     12  C   UNL     1     -36.932  26.277   3.564  0.00  0.00    +0.000 C 
ATOM     13  C   UNL     1     -36.192  22.156   2.472  0.00  0.00    +0.177 C 
ATOM     14  C   UNL     1     -38.795  22.619  -0.605  0.00  0.00    +0.007 C 
ATOM     15  C   UNL     1     -34.154  24.488   3.610  0.00  0.00    +0.003 C 
ATOM     16  C   UNL     1     -35.449  26.208   5.625  0.00  0.00    +0.029 C 
ATOM     17  C   UNL     1     -39.846  21.000   2.081  0.00  0.00    +0.006 C 
ATOM     18  C   UNL     1     -35.562  23.047   5.140  0.00  0.00    +0.000 C 
ATOM     19  C   UNL     1     -33.349  25.254   4.651  0.00  0.00    +0.029 C 
ATOM     20  C   UNL     1     -34.069  26.528   5.069  0.00  0.00    +0.111 C 
ENDROOT
BRANCH   8  23
ATOM     21  O   UNL     1     -40.196  18.677  -1.532  0.00  0.00    -0.418 OA
ATOM     22  O   UNL     1     -39.632  16.518  -1.964  0.00  0.00    -0.244 OA
ATOM     23  C   UNL     1     -38.611  20.127  -0.423  0.00  0.00    +0.016 C 
ATOM     24  C   UNL     1     -37.684  19.026  -0.375  0.00  0.00    +0.006 C 
ATOM     25  C   UNL     1     -39.804  19.909  -0.988  0.00  0.00    +0.179 C 
ATOM     26  C   UNL     1     -38.009  17.832  -0.879  0.00  0.00    +0.082 C 
ATOM     27  C   UNL     1     -39.333  17.613  -1.500  0.00  0.00    +0.346 C 
ENDBRANCH   8  23
BRANCH   2  28
ATOM     28  O   UNL     1     -40.105  23.661   1.935  0.00  0.00    -0.387 OA
ATOM     29  H   UNL     1     -40.632  23.422   1.156  0.00  0.00    +0.210 HD
ENDBRANCH   2  28
BRANCH  11  30
ATOM     30  O   UNL     1     -37.062  19.921   2.358  0.00  0.00    -0.377 OA
ATOM     31  H   UNL     1     -36.249  19.705   2.841  0.00  0.00    +0.211 HD
ENDBRANCH  11  30
BRANCH  20  32
ATOM     32  O   UNL     1     -33.291  27.178   6.070  0.00  0.00    -0.384 OA
ATOM     33  H   UNL     1     -32.734  27.857   5.656  0.00  0.00    +0.210 HD
ENDBRANCH  20  32
TORSDOF 4
ENDMDL
MODEL 9
REMARK VINA RESULT:      -6.3      4.274      6.070
REMARK  Name = 204810
REMARK  4 active torsions:
REMARK  status: ('A' for Active; 'I' for Inactive)
REMARK    1  A    between atoms: C_2  and  O_28
REMARK    2  A    between atoms: C_8  and  C_23
REMARK    3  A    between atoms: C_11  and  O_30
REMARK    4  A    between atoms: C_20  and  O_32
REMARK                            x       y       z     vdW  Elec       q    Type
REMARK                         _______ _______ _______ _____ _____    ______ ____
ROOT
ATOM      1  O   UNL     1     -34.662  23.537  -0.922  0.00  0.00    -0.294 OA
ATOM      2  C   UNL     1     -35.696  21.215   2.178  0.00  0.00    +0.091 C 
ATOM      3  C   UNL     1     -35.338  22.670   2.587  0.00  0.00    +0.032 C 
ATOM      4  C   UNL     1     -34.778  20.633   1.021  0.00  0.00    +0.058 C 
ATOM      5  C   UNL     1     -35.282  23.654   1.401  0.00  0.00    +0.062 C 
ATOM      6  C   UNL     1     -34.654  25.044   1.813  0.00  0.00    +0.007 C 
ATOM      7  C   UNL     1     -34.876  25.313   3.346  0.00  0.00    +0.003 C 
ATOM      8  C   UNL     1     -35.804  20.118  -0.055  0.00  0.00    +0.030 C 
ATOM      9  C   UNL     1     -36.270  23.226   3.688  0.00  0.00    +0.003 C 
ATOM     10  C   UNL     1     -37.142  21.043   1.672  0.00  0.00    +0.027 C 
ATOM     11  C   UNL     1     -33.845  21.724   0.437  0.00  0.00    +0.170 C 
ATOM     12  C   UNL     1     -36.228  24.754   3.807  0.00  0.00    +0.000 C 
ATOM     13  C   UNL     1     -34.609  23.014   0.191  0.00  0.00    +0.177 C 
ATOM     14  C   UNL     1     -37.072  19.840   0.747  0.00  0.00    +0.007 C 
ATOM     15  C   UNL     1     -35.335  26.143   0.945  0.00  0.00    +0.003 C 
ATOM     16  C   UNL     1     -34.704  26.785   3.753  0.00  0.00    +0.029 C 
ATOM     17  C   UNL     1     -33.880  19.477   1.532  0.00  0.00    +0.006 C 
ATOM     18  C   UNL     1     -33.126  25.074   1.557  0.00  0.00    +0.000 C 
ATOM     19  C   UNL     1     -35.064  27.570   1.403  0.00  0.00    +0.029 C 
ATOM     20  C   UNL     1     -35.458  27.760   2.860  0.00  0.00    +0.111 C 
ENDROOT
BRANCH   8  23
ATOM     21  O   UNL     1     -34.409  17.971  -2.873  0.00  0.00    -0.418 OA
ATOM     22  O   UNL     1     -34.392  15.711  -3.119  0.00  0.00    -0.244 OA
ATOM     23  C   UNL     1     -35.411  18.951  -0.905  0.00  0.00    +0.016 C 
ATOM     24  C   UNL     1     -35.728  17.625  -0.442  0.00  0.00    +0.006 C 
ATOM     25  C   UNL     1     -34.778  19.065  -2.077  0.00  0.00    +0.179 C 
ATOM     26  C   UNL     1     -35.398  16.550  -1.163  0.00  0.00    +0.082 C 
ATOM     27  C   UNL     1     -34.697  16.697  -2.457  0.00  0.00    +0.346 C 
ENDBRANCH   8  23
BRANCH   2  28
ATOM     28  O   UNL     1     -35.612  20.398   3.356  0.00  0.00    -0.387 OA
ATOM     29  H   UNL     1     -34.696  20.100   3.478  0.00  0.00    +0.210 HD
ENDBRANCH   2  28
BRANCH  11  30
ATOM     30  O   UNL     1     -33.244  21.289  -0.770  0.00  0.00    -0.377 OA
ATOM     31  H   UNL     1     -33.509  21.878  -1.494  0.00  0.00    +0.211 HD
ENDBRANCH  11  30
BRANCH  20  32
ATOM     32  O   UNL     1     -35.144  29.096   3.242  0.00  0.00    -0.384 OA
ATOM     33  H   UNL     1     -35.320  29.695   2.498  0.00  0.00    +0.210 HD
ENDBRANCH  20  32
TORSDOF 4
ENDMDL
