MODEL 1
REMARK VINA RESULT:      -6.8      0.000      0.000
REMARK  Name = 57523403
REMARK  9 active torsions:
REMARK  status: ('A' for Active; 'I' for Inactive)
REMARK    1  A    between atoms: C_1  and  N_7
REMARK    2  A    between atoms: C_2  and  O_19
REMARK    3  A    between atoms: C_14  and  N_18
REMARK    4  A    between atoms: O_19  and  C_25
REMARK    5  A    between atoms: C_21  and  O_26
REMARK    6  A    between atoms: C_22  and  O_28
REMARK    7  A    between atoms: C_23  and  O_30
REMARK    8  A    between atoms: C_24  and  C_32
REMARK    9  A    between atoms: C_32  and  O_33
REMARK                            x       y       z     vdW  Elec       q    Type
REMARK                         _______ _______ _______ _____ _____    ______ ____
ROOT
ATOM      1  C   UNL     1     -35.746  19.405   0.090  0.00  0.00    +0.052 C 
ATOM      2  C   UNL     1     -35.827  21.843   1.443  0.00  0.00    +0.141 C 
ATOM      3  C   UNL     1     -36.686  20.370  -0.269  0.00  0.00    +0.018 C 
ATOM      4  C   UNL     1     -34.846  19.659   1.126  0.00  0.00    +0.018 C 
ATOM      5  C   UNL     1     -36.728  21.590   0.407  0.00  0.00    +0.038 C 
ATOM      6  C   UNL     1     -34.887  20.878   1.801  0.00  0.00    +0.038 C 
ENDROOT
BRANCH   1   7
ATOM      7  N   UNL     1     -35.704  18.184  -0.589  0.00  0.00    -0.287 N 
ATOM      8  C   UNL     1     -34.529  17.786  -1.389  0.00  0.00    +0.100 C 
ATOM      9  C   UNL     1     -34.631  16.271  -1.638  0.00  0.00    +0.049 C 
ATOM     10  C   UNL     1     -36.652  17.152  -0.778  0.00  0.00    +0.048 C 
ATOM     11  C   UNL     1     -36.083  16.034  -1.403  0.00  0.00    -0.005 C 
ATOM     12  C   UNL     1     -36.816  14.894  -1.692  0.00  0.00    +0.021 C 
ATOM     13  C   UNL     1     -38.005  17.139  -0.465  0.00  0.00    +0.016 C 
ATOM     14  C   UNL     1     -38.170  14.882  -1.362  0.00  0.00    +0.143 C 
ATOM     15  C   UNL     1     -38.761  15.998  -0.758  0.00  0.00    +0.025 C 
BRANCH  14  18
ATOM     16  O   UNL     1     -38.445  12.597  -1.503  0.00  0.00    -0.126 OA
ATOM     17  O   UNL     1     -40.140  13.887  -2.030  0.00  0.00    -0.126 OA
ATOM     18  N   UNL     1     -38.956  13.734  -1.646  0.00  0.00    +0.058 N 
ENDBRANCH  14  18
ENDBRANCH   1   7
BRANCH   2  19
ATOM     19  O   UNL     1     -35.868  23.041   2.107  0.00  0.00    -0.451 OA
BRANCH  19  25
ATOM     20  O   UNL     1     -36.572  22.533   4.316  0.00  0.00    -0.316 OA
ATOM     21  C   UNL     1     -35.984  25.336   4.060  0.00  0.00    +0.173 C 
ATOM     22  C   UNL     1     -35.629  24.552   5.325  0.00  0.00    +0.169 C 
ATOM     23  C   UNL     1     -37.155  24.680   3.326  0.00  0.00    +0.210 C 
ATOM     24  C   UNL     1     -35.429  23.069   4.988  0.00  0.00    +0.177 C 
ATOM     25  C   UNL     1     -36.889  23.195   3.086  0.00  0.00    +0.318 C 
BRANCH  21  26
ATOM     26  O   UNL     1     -36.340  26.675   4.389  0.00  0.00    -0.379 OA
ATOM     27  H   UNL     1     -35.535  27.202   4.516  0.00  0.00    +0.211 HD
ENDBRANCH  21  26
BRANCH  22  28
ATOM     28  O   UNL     1     -34.421  25.065   5.882  0.00  0.00    -0.379 OA
ATOM     29  H   UNL     1     -33.973  25.621   5.224  0.00  0.00    +0.211 HD
ENDBRANCH  22  28
BRANCH  23  30
ATOM     30  O   UNL     1     -38.343  24.787   4.111  0.00  0.00    -0.377 OA
ATOM     31  H   UNL     1     -38.162  24.483   5.016  0.00  0.00    +0.211 HD
ENDBRANCH  23  30
BRANCH  24  32
ATOM     32  C   UNL     1     -35.209  22.235   6.247  0.00  0.00    +0.169 C 
BRANCH  32  33
ATOM     33  O   UNL     1     -35.461  20.876   5.936  0.00  0.00    -0.379 OA
ATOM     34  H   UNL     1     -35.661  20.793   4.990  0.00  0.00    +0.211 HD
ENDBRANCH  32  33
ENDBRANCH  24  32
ENDBRANCH  19  25
ENDBRANCH   2  19
TORSDOF 9
ENDMDL
MODEL 2
REMARK VINA RESULT:      -6.8      2.660      3.543
REMARK  Name = 57523403
REMARK  9 active torsions:
REMARK  status: ('A' for Active; 'I' for Inactive)
REMARK    1  A    between atoms: C_1  and  N_7
REMARK    2  A    between atoms: C_2  and  O_19
REMARK    3  A    between atoms: C_14  and  N_18
REMARK    4  A    between atoms: O_19  and  C_25
REMARK    5  A    between atoms: C_21  and  O_26
REMARK    6  A    between atoms: C_22  and  O_28
REMARK    7  A    between atoms: C_23  and  O_30
REMARK    8  A    between atoms: C_24  and  C_32
REMARK    9  A    between atoms: C_32  and  O_33
REMARK                            x       y       z     vdW  Elec       q    Type
REMARK                         _______ _______ _______ _____ _____    ______ ____
ROOT
ATOM      1  C   UNL     1     -35.441  19.562   0.540  0.00  0.00    +0.052 C 
ATOM      2  C   UNL     1     -35.814  22.124   1.581  0.00  0.00    +0.141 C 
ATOM      3  C   UNL     1     -34.362  20.442   0.631  0.00  0.00    +0.018 C 
ATOM      4  C   UNL     1     -36.707  19.964   0.969  0.00  0.00    +0.018 C 
ATOM      5  C   UNL     1     -34.548  21.723   1.152  0.00  0.00    +0.038 C 
ATOM      6  C   UNL     1     -36.892  21.244   1.490  0.00  0.00    +0.038 C 
ENDROOT
BRANCH   1   7
ATOM      7  N   UNL     1     -35.253  18.279   0.020  0.00  0.00    -0.287 N 
ATOM      8  C   UNL     1     -36.372  17.511  -0.562  0.00  0.00    +0.100 C 
ATOM      9  C   UNL     1     -35.765  16.368  -1.393  0.00  0.00    +0.049 C 
ATOM     10  C   UNL     1     -34.140  17.408  -0.023  0.00  0.00    +0.048 C 
ATOM     11  C   UNL     1     -34.398  16.276  -0.808  0.00  0.00    -0.005 C 
ATOM     12  C   UNL     1     -33.456  15.279  -1.002  0.00  0.00    +0.021 C 
ATOM     13  C   UNL     1     -32.913  17.524   0.616  0.00  0.00    +0.016 C 
ATOM     14  C   UNL     1     -32.221  15.409  -0.371  0.00  0.00    +0.143 C 
ATOM     15  C   UNL     1     -31.954  16.522   0.437  0.00  0.00    +0.025 C 
BRANCH  14  18
ATOM     16  O   UNL     1     -30.955  14.014  -1.701  0.00  0.00    -0.126 OA
ATOM     17  O   UNL     1     -30.655  13.940   0.472  0.00  0.00    -0.126 OA
ATOM     18  N   UNL     1     -31.230  14.406  -0.541  0.00  0.00    +0.058 N 
ENDBRANCH  14  18
ENDBRANCH   1   7
BRANCH   2  19
ATOM     19  O   UNL     1     -35.997  23.381   2.092  0.00  0.00    -0.451 OA
BRANCH  19  25
ATOM     20  O   UNL     1     -36.669  22.748   4.279  0.00  0.00    -0.316 OA
ATOM     21  C   UNL     1     -35.917  25.522   4.215  0.00  0.00    +0.173 C 
ATOM     22  C   UNL     1     -35.575  24.624   5.405  0.00  0.00    +0.169 C 
ATOM     23  C   UNL     1     -37.145  24.995   3.473  0.00  0.00    +0.210 C 
ATOM     24  C   UNL     1     -35.477  23.162   4.952  0.00  0.00    +0.177 C 
ATOM     25  C   UNL     1     -36.979  23.520   3.113  0.00  0.00    +0.318 C 
BRANCH  21  26
ATOM     26  O   UNL     1     -36.180  26.851   4.655  0.00  0.00    -0.379 OA
ATOM     27  H   UNL     1     -36.775  27.288   4.025  0.00  0.00    +0.211 HD
ENDBRANCH  21  26
BRANCH  22  28
ATOM     28  O   UNL     1     -34.323  25.020   5.960  0.00  0.00    -0.379 OA
ATOM     29  H   UNL     1     -34.431  25.859   6.436  0.00  0.00    +0.211 HD
ENDBRANCH  22  28
BRANCH  23  30
ATOM     30  O   UNL     1     -38.303  25.111   4.302  0.00  0.00    -0.377 OA
ATOM     31  H   UNL     1     -38.030  25.161   5.233  0.00  0.00    +0.211 HD
ENDBRANCH  23  30
BRANCH  24  32
ATOM     32  C   UNL     1     -35.273  22.222   6.137  0.00  0.00    +0.169 C 
BRANCH  32  33
ATOM     33  O   UNL     1     -35.264  20.889   5.657  0.00  0.00    -0.379 OA
ATOM     34  H   UNL     1     -35.339  20.894   4.690  0.00  0.00    +0.211 HD
ENDBRANCH  32  33
ENDBRANCH  24  32
ENDBRANCH  19  25
ENDBRANCH   2  19
TORSDOF 9
ENDMDL
MODEL 3
REMARK VINA RESULT:      -6.7      5.945     12.040
REMARK  Name = 57523403
REMARK  9 active torsions:
REMARK  status: ('A' for Active; 'I' for Inactive)
REMARK    1  A    between atoms: C_1  and  N_7
REMARK    2  A    between atoms: C_2  and  O_19
REMARK    3  A    between atoms: C_14  and  N_18
REMARK    4  A    between atoms: O_19  and  C_25
REMARK    5  A    between atoms: C_21  and  O_26
REMARK    6  A    between atoms: C_22  and  O_28
REMARK    7  A    between atoms: C_23  and  O_30
REMARK    8  A    between atoms: C_24  and  C_32
REMARK    9  A    between atoms: C_32  and  O_33
REMARK                            x       y       z     vdW  Elec       q    Type
REMARK                         _______ _______ _______ _____ _____    ______ ____
ROOT
ATOM      1  C   UNL     1     -33.189  27.092   4.338  0.00  0.00    +0.052 C 
ATOM      2  C   UNL     1     -34.642  24.967   3.263  0.00  0.00    +0.141 C 
ATOM      3  C   UNL     1     -34.193  26.484   5.090  0.00  0.00    +0.018 C 
ATOM      4  C   UNL     1     -32.911  26.638   3.048  0.00  0.00    +0.018 C 
ATOM      5  C   UNL     1     -34.920  25.421   4.553  0.00  0.00    +0.038 C 
ATOM      6  C   UNL     1     -33.637  25.575   2.512  0.00  0.00    +0.038 C 
ENDROOT
BRANCH   1   7
ATOM      7  N   UNL     1     -32.460  28.156   4.877  0.00  0.00    -0.287 N 
ATOM      8  C   UNL     1     -31.944  28.116   6.259  0.00  0.00    +0.100 C 
ATOM      9  C   UNL     1     -30.870  29.210   6.384  0.00  0.00    +0.049 C 
ATOM     10  C   UNL     1     -32.121  29.439   4.388  0.00  0.00    +0.048 C 
ATOM     11  C   UNL     1     -31.223  30.097   5.240  0.00  0.00    -0.005 C 
ATOM     12  C   UNL     1     -30.743  31.369   4.970  0.00  0.00    +0.021 C 
ATOM     13  C   UNL     1     -32.580  30.092   3.252  0.00  0.00    +0.016 C 
ATOM     14  C   UNL     1     -31.195  32.012   3.820  0.00  0.00    +0.143 C 
ATOM     15  C   UNL     1     -32.111  31.379   2.969  0.00  0.00    +0.025 C 
BRANCH  14  18
ATOM     16  O   UNL     1     -29.497  33.547   3.541  0.00  0.00    -0.126 OA
ATOM     17  O   UNL     1     -31.565  34.206   3.214  0.00  0.00    -0.126 OA
ATOM     18  N   UNL     1     -30.730  33.317   3.511  0.00  0.00    +0.058 N 
ENDBRANCH  14  18
ENDBRANCH   1   7
BRANCH   2  19
ATOM     19  O   UNL     1     -35.356  23.924   2.737  0.00  0.00    -0.451 OA
BRANCH  19  25
ATOM     20  O   UNL     1     -37.348  22.856   3.459  0.00  0.00    -0.316 OA
ATOM     21  C   UNL     1     -35.553  20.949   2.273  0.00  0.00    +0.173 C 
ATOM     22  C   UNL     1     -37.065  20.871   2.058  0.00  0.00    +0.169 C 
ATOM     23  C   UNL     1     -35.228  21.666   3.585  0.00  0.00    +0.210 C 
ATOM     24  C   UNL     1     -37.691  22.264   2.203  0.00  0.00    +0.177 C 
ATOM     25  C   UNL     1     -35.940  23.016   3.664  0.00  0.00    +0.318 C 
BRANCH  21  26
ATOM     26  O   UNL     1     -34.988  19.642   2.312  0.00  0.00    -0.379 OA
ATOM     27  H   UNL     1     -35.536  19.038   1.787  0.00  0.00    +0.211 HD
ENDBRANCH  21  26
BRANCH  22  28
ATOM     28  O   UNL     1     -37.336  20.379   0.747  0.00  0.00    -0.379 OA
ATOM     29  H   UNL     1     -37.250  21.102   0.106  0.00  0.00    +0.211 HD
ENDBRANCH  22  28
BRANCH  23  30
ATOM     30  O   UNL     1     -35.668  20.879   4.692  0.00  0.00    -0.377 OA
ATOM     31  H   UNL     1     -36.160  21.440   5.314  0.00  0.00    +0.211 HD
ENDBRANCH  23  30
BRANCH  24  32
ATOM     32  C   UNL     1     -39.215  22.202   2.130  0.00  0.00    +0.169 C 
BRANCH  32  33
ATOM     33  O   UNL     1     -39.618  20.853   2.279  0.00  0.00    -0.379 OA
ATOM     34  H   UNL     1     -39.372  20.353   1.484  0.00  0.00    +0.211 HD
ENDBRANCH  32  33
ENDBRANCH  24  32
ENDBRANCH  19  25
ENDBRANCH   2  19
TORSDOF 9
ENDMDL
MODEL 4
REMARK VINA RESULT:      -6.6      3.450      4.558
REMARK  Name = 57523403
REMARK  9 active torsions:
REMARK  status: ('A' for Active; 'I' for Inactive)
REMARK    1  A    between atoms: C_1  and  N_7
REMARK    2  A    between atoms: C_2  and  O_19
REMARK    3  A    between atoms: C_14  and  N_18
REMARK    4  A    between atoms: O_19  and  C_25
REMARK    5  A    between atoms: C_21  and  O_26
REMARK    6  A    between atoms: C_22  and  O_28
REMARK    7  A    between atoms: C_23  and  O_30
REMARK    8  A    between atoms: C_24  and  C_32
REMARK    9  A    between atoms: C_32  and  O_33
REMARK                            x       y       z     vdW  Elec       q    Type
REMARK                         _______ _______ _______ _____ _____    ______ ____
ROOT
ATOM      1  C   UNL     1     -34.376  19.798   0.768  0.00  0.00    +0.052 C 
ATOM      2  C   UNL     1     -35.298  22.267   1.684  0.00  0.00    +0.141 C 
ATOM      3  C   UNL     1     -35.471  19.858   1.630  0.00  0.00    +0.018 C 
ATOM      4  C   UNL     1     -33.741  20.973   0.365  0.00  0.00    +0.018 C 
ATOM      5  C   UNL     1     -35.933  21.091   2.088  0.00  0.00    +0.038 C 
ATOM      6  C   UNL     1     -34.203  22.207   0.823  0.00  0.00    +0.038 C 
ENDROOT
BRANCH   1   7
ATOM      7  N   UNL     1     -33.915  18.562   0.308  0.00  0.00    -0.287 N 
ATOM      8  C   UNL     1     -34.836  17.556  -0.257  0.00  0.00    +0.100 C 
ATOM      9  C   UNL     1     -33.986  16.531  -1.026  0.00  0.00    +0.049 C 
ATOM     10  C   UNL     1     -32.645  17.939   0.323  0.00  0.00    +0.048 C 
ATOM     11  C   UNL     1     -32.645  16.748  -0.415  0.00  0.00    -0.005 C 
ATOM     12  C   UNL     1     -31.512  15.960  -0.549  0.00  0.00    +0.021 C 
ATOM     13  C   UNL     1     -31.485  18.332   0.976  0.00  0.00    +0.016 C 
ATOM     14  C   UNL     1     -30.347  16.369   0.097  0.00  0.00    +0.143 C 
ATOM     15  C   UNL     1     -30.336  17.544   0.858  0.00  0.00    +0.025 C 
BRANCH  14  18
ATOM     16  O   UNL     1     -29.100  14.708  -0.906  0.00  0.00    -0.126 OA
ATOM     17  O   UNL     1     -28.222  15.796   0.785  0.00  0.00    -0.126 OA
ATOM     18  N   UNL     1     -29.167  15.587  -0.013  0.00  0.00    +0.058 N 
ENDBRANCH  14  18
ENDBRANCH   1   7
BRANCH   2  19
ATOM     19  O   UNL     1     -35.751  23.478   2.134  0.00  0.00    -0.451 OA
BRANCH  19  25
ATOM     20  O   UNL     1     -36.465  22.663   4.246  0.00  0.00    -0.316 OA
ATOM     21  C   UNL     1     -36.043  25.506   4.349  0.00  0.00    +0.173 C 
ATOM     22  C   UNL     1     -35.665  24.594   5.517  0.00  0.00    +0.169 C 
ATOM     23  C   UNL     1     -37.157  24.878   3.510  0.00  0.00    +0.210 C 
ATOM     24  C   UNL     1     -35.370  23.178   5.008  0.00  0.00    +0.177 C 
ATOM     25  C   UNL     1     -36.798  23.452   3.097  0.00  0.00    +0.318 C 
BRANCH  21  26
ATOM     26  O   UNL     1     -36.485  26.772   4.828  0.00  0.00    -0.379 OA
ATOM     27  H   UNL     1     -36.603  27.377   4.080  0.00  0.00    +0.211 HD
ENDBRANCH  21  26
BRANCH  22  28
ATOM     28  O   UNL     1     -34.501  25.103   6.164  0.00  0.00    -0.379 OA
ATOM     29  H   UNL     1     -33.794  24.440   6.125  0.00  0.00    +0.211 HD
ENDBRANCH  22  28
BRANCH  23  30
ATOM     30  O   UNL     1     -38.365  24.819   4.270  0.00  0.00    -0.377 OA
ATOM     31  H   UNL     1     -38.938  25.564   4.027  0.00  0.00    +0.211 HD
ENDBRANCH  23  30
BRANCH  24  32
ATOM     32  C   UNL     1     -35.123  22.208   6.161  0.00  0.00    +0.169 C 
BRANCH  32  33
ATOM     33  O   UNL     1     -35.308  20.887   5.685  0.00  0.00    -0.379 OA
ATOM     34  H   UNL     1     -35.419  20.903   4.722  0.00  0.00    +0.211 HD
ENDBRANCH  32  33
ENDBRANCH  24  32
ENDBRANCH  19  25
ENDBRANCH   2  19
TORSDOF 9
ENDMDL
MODEL 5
REMARK VINA RESULT:      -6.6      5.809     11.894
REMARK  Name = 57523403
REMARK  9 active torsions:
REMARK  status: ('A' for Active; 'I' for Inactive)
REMARK    1  A    between atoms: C_1  and  N_7
REMARK    2  A    between atoms: C_2  and  O_19
REMARK    3  A    between atoms: C_14  and  N_18
REMARK    4  A    between atoms: O_19  and  C_25
REMARK    5  A    between atoms: C_21  and  O_26
REMARK    6  A    between atoms: C_22  and  O_28
REMARK    7  A    between atoms: C_23  and  O_30
REMARK    8  A    between atoms: C_24  and  C_32
REMARK    9  A    between atoms: C_32  and  O_33
REMARK                            x       y       z     vdW  Elec       q    Type
REMARK                         _______ _______ _______ _____ _____    ______ ____
ROOT
ATOM      1  C   UNL     1     -33.221  26.934   4.796  0.00  0.00    +0.052 C 
ATOM      2  C   UNL     1     -34.605  24.647   4.000  0.00  0.00    +0.141 C 
ATOM      3  C   UNL     1     -33.959  26.206   5.728  0.00  0.00    +0.018 C 
ATOM      4  C   UNL     1     -33.176  26.519   3.464  0.00  0.00    +0.018 C 
ATOM      5  C   UNL     1     -34.651  25.062   5.331  0.00  0.00    +0.038 C 
ATOM      6  C   UNL     1     -33.867  25.375   3.067  0.00  0.00    +0.038 C 
ENDROOT
BRANCH   1   7
ATOM      7  N   UNL     1     -32.526  28.079   5.195  0.00  0.00    -0.287 N 
ATOM      8  C   UNL     1     -31.918  28.185   6.536  0.00  0.00    +0.100 C 
ATOM      9  C   UNL     1     -30.909  29.346   6.495  0.00  0.00    +0.049 C 
ATOM     10  C   UNL     1     -32.303  29.335   4.582  0.00  0.00    +0.048 C 
ATOM     11  C   UNL     1     -31.393  30.112   5.312  0.00  0.00    -0.005 C 
ATOM     12  C   UNL     1     -31.013  31.382   4.909  0.00  0.00    +0.021 C 
ATOM     13  C   UNL     1     -32.876  29.862   3.433  0.00  0.00    +0.016 C 
ATOM     14  C   UNL     1     -31.581  31.899   3.746  0.00  0.00    +0.143 C 
ATOM     15  C   UNL     1     -32.509  31.146   3.017  0.00  0.00    +0.025 C 
BRANCH  14  18
ATOM     16  O   UNL     1     -30.028  33.571   3.415  0.00  0.00    -0.126 OA
ATOM     17  O   UNL     1     -32.104  33.940   2.807  0.00  0.00    -0.126 OA
ATOM     18  N   UNL     1     -31.220  33.199   3.302  0.00  0.00    +0.058 N 
ENDBRANCH  14  18
ENDBRANCH   1   7
BRANCH   2  19
ATOM     19  O   UNL     1     -35.285  23.523   3.610  0.00  0.00    -0.451 OA
BRANCH  19  25
ATOM     20  O   UNL     1     -34.926  22.483   1.507  0.00  0.00    -0.316 OA
ATOM     21  C   UNL     1     -37.484  21.731   2.584  0.00  0.00    +0.173 C 
ATOM     22  C   UNL     1     -36.604  20.733   1.829  0.00  0.00    +0.169 C 
ATOM     23  C   UNL     1     -37.173  23.164   2.149  0.00  0.00    +0.210 C 
ATOM     24  C   UNL     1     -35.129  21.137   1.944  0.00  0.00    +0.177 C 
ATOM     25  C   UNL     1     -35.677  23.455   2.243  0.00  0.00    +0.318 C 
BRANCH  21  26
ATOM     26  O   UNL     1     -38.861  21.464   2.340  0.00  0.00    -0.379 OA
ATOM     27  H   UNL     1     -39.056  20.541   2.566  0.00  0.00    +0.211 HD
ENDBRANCH  21  26
BRANCH  22  28
ATOM     28  O   UNL     1     -36.771  19.431   2.388  0.00  0.00    -0.379 OA
ATOM     29  H   UNL     1     -35.949  19.162   2.828  0.00  0.00    +0.211 HD
ENDBRANCH  22  28
BRANCH  23  30
ATOM     30  O   UNL     1     -37.568  23.356   0.789  0.00  0.00    -0.377 OA
ATOM     31  H   UNL     1     -37.001  24.030   0.380  0.00  0.00    +0.211 HD
ENDBRANCH  23  30
BRANCH  24  32
ATOM     32  C   UNL     1     -34.235  20.241   1.090  0.00  0.00    +0.169 C 
BRANCH  32  33
ATOM     33  O   UNL     1     -34.024  19.025   1.783  0.00  0.00    -0.379 OA
ATOM     34  H   UNL     1     -34.427  19.081   2.664  0.00  0.00    +0.211 HD
ENDBRANCH  32  33
ENDBRANCH  24  32
ENDBRANCH  19  25
ENDBRANCH   2  19
TORSDOF 9
ENDMDL
MODEL 6
REMARK VINA RESULT:      -6.5      1.569      2.161
REMARK  Name = 57523403
REMARK  9 active torsions:
REMARK  status: ('A' for Active; 'I' for Inactive)
REMARK    1  A    between atoms: C_1  and  N_7
REMARK    2  A    between atoms: C_2  and  O_19
REMARK    3  A    between atoms: C_14  and  N_18
REMARK    4  A    between atoms: O_19  and  C_25
REMARK    5  A    between atoms: C_21  and  O_26
REMARK    6  A    between atoms: C_22  and  O_28
REMARK    7  A    between atoms: C_23  and  O_30
REMARK    8  A    between atoms: C_24  and  C_32
REMARK    9  A    between atoms: C_32  and  O_33
REMARK                            x       y       z     vdW  Elec       q    Type
REMARK                         _______ _______ _______ _____ _____    ______ ____
ROOT
ATOM      1  C   UNL     1     -34.971  19.826   0.813  0.00  0.00    +0.052 C 
ATOM      2  C   UNL     1     -34.946  22.362   1.975  0.00  0.00    +0.141 C 
ATOM      3  C   UNL     1     -34.377  20.894   0.142  0.00  0.00    +0.018 C 
ATOM      4  C   UNL     1     -35.554  20.025   2.065  0.00  0.00    +0.018 C 
ATOM      5  C   UNL     1     -34.364  22.162   0.722  0.00  0.00    +0.038 C 
ATOM      6  C   UNL     1     -35.540  21.293   2.646  0.00  0.00    +0.038 C 
ENDROOT
BRANCH   1   7
ATOM      7  N   UNL     1     -34.982  18.555   0.232  0.00  0.00    -0.287 N 
ATOM      8  C   UNL     1     -33.732  17.873  -0.156  0.00  0.00    +0.100 C 
ATOM      9  C   UNL     1     -34.062  16.384  -0.360  0.00  0.00    +0.049 C 
ATOM     10  C   UNL     1     -36.024  17.697  -0.192  0.00  0.00    +0.048 C 
ATOM     11  C   UNL     1     -35.536  16.437  -0.567  0.00  0.00    -0.005 C 
ATOM     12  C   UNL     1     -36.369  15.424  -1.016  0.00  0.00    +0.021 C 
ATOM     13  C   UNL     1     -37.382  17.959  -0.304  0.00  0.00    +0.016 C 
ATOM     14  C   UNL     1     -37.733  15.689  -1.112  0.00  0.00    +0.143 C 
ATOM     15  C   UNL     1     -38.235  16.949  -0.763  0.00  0.00    +0.025 C 
BRANCH  14  18
ATOM     16  O   UNL     1     -38.261  13.478  -1.500  0.00  0.00    -0.126 OA
ATOM     17  O   UNL     1     -39.735  15.013  -2.036  0.00  0.00    -0.126 OA
ATOM     18  N   UNL     1     -38.619  14.679  -1.572  0.00  0.00    +0.058 N 
ENDBRANCH  14  18
ENDBRANCH   1   7
BRANCH   2  19
ATOM     19  O   UNL     1     -34.934  23.607   2.545  0.00  0.00    -0.451 OA
BRANCH  19  25
ATOM     20  O   UNL     1     -35.214  24.419   4.758  0.00  0.00    -0.316 OA
ATOM     21  C   UNL     1     -36.545  26.136   2.875  0.00  0.00    +0.173 C 
ATOM     22  C   UNL     1     -35.807  26.696   4.092  0.00  0.00    +0.169 C 
ATOM     23  C   UNL     1     -37.005  24.700   3.133  0.00  0.00    +0.210 C 
ATOM     24  C   UNL     1     -34.697  25.731   4.526  0.00  0.00    +0.177 C 
ATOM     25  C   UNL     1     -35.845  23.830   3.615  0.00  0.00    +0.318 C 
BRANCH  21  26
ATOM     26  O   UNL     1     -37.684  26.936   2.571  0.00  0.00    -0.379 OA
ATOM     27  H   UNL     1     -38.433  26.652   3.119  0.00  0.00    +0.211 HD
ENDBRANCH  21  26
BRANCH  22  28
ATOM     28  O   UNL     1     -35.222  27.953   3.759  0.00  0.00    -0.379 OA
ATOM     29  H   UNL     1     -35.924  28.605   3.605  0.00  0.00    +0.211 HD
ENDBRANCH  22  28
BRANCH  23  30
ATOM     30  O   UNL     1     -38.009  24.686   4.149  0.00  0.00    -0.377 OA
ATOM     31  H   UNL     1     -38.439  23.815   4.167  0.00  0.00    +0.211 HD
ENDBRANCH  23  30
BRANCH  24  32
ATOM     32  C   UNL     1     -34.030  26.193   5.819  0.00  0.00    +0.169 C 
BRANCH  32  33
ATOM     33  O   UNL     1     -33.203  27.304   5.527  0.00  0.00    -0.379 OA
ATOM     34  H   UNL     1     -33.719  28.122   5.609  0.00  0.00    +0.211 HD
ENDBRANCH  32  33
ENDBRANCH  24  32
ENDBRANCH  19  25
ENDBRANCH   2  19
TORSDOF 9
ENDMDL
MODEL 7
REMARK VINA RESULT:      -6.5      6.242     12.303
REMARK  Name = 57523403
REMARK  9 active torsions:
REMARK  status: ('A' for Active; 'I' for Inactive)
REMARK    1  A    between atoms: C_1  and  N_7
REMARK    2  A    between atoms: C_2  and  O_19
REMARK    3  A    between atoms: C_14  and  N_18
REMARK    4  A    between atoms: O_19  and  C_25
REMARK    5  A    between atoms: C_21  and  O_26
REMARK    6  A    between atoms: C_22  and  O_28
REMARK    7  A    between atoms: C_23  and  O_30
REMARK    8  A    between atoms: C_24  and  C_32
REMARK    9  A    between atoms: C_32  and  O_33
REMARK                            x       y       z     vdW  Elec       q    Type
REMARK                         _______ _______ _______ _____ _____    ______ ____
ROOT
ATOM      1  C   UNL     1     -32.759  27.891   3.888  0.00  0.00    +0.052 C 
ATOM      2  C   UNL     1     -34.332  25.666   3.288  0.00  0.00    +0.141 C 
ATOM      3  C   UNL     1     -32.997  27.544   2.559  0.00  0.00    +0.018 C 
ATOM      4  C   UNL     1     -33.307  27.125   4.918  0.00  0.00    +0.018 C 
ATOM      5  C   UNL     1     -33.783  26.432   2.258  0.00  0.00    +0.038 C 
ATOM      6  C   UNL     1     -34.094  26.014   4.617  0.00  0.00    +0.038 C 
ENDROOT
BRANCH   1   7
ATOM      7  N   UNL     1     -31.973  29.006   4.189  0.00  0.00    -0.287 N 
ATOM      8  C   UNL     1     -32.131  30.282   3.463  0.00  0.00    +0.100 C 
ATOM      9  C   UNL     1     -31.442  31.377   4.295  0.00  0.00    +0.049 C 
ATOM     10  C   UNL     1     -30.886  29.211   5.072  0.00  0.00    +0.048 C 
ATOM     11  C   UNL     1     -30.528  30.564   5.146  0.00  0.00    -0.005 C 
ATOM     12  C   UNL     1     -29.491  31.013   5.948  0.00  0.00    +0.021 C 
ATOM     13  C   UNL     1     -30.159  28.277   5.796  0.00  0.00    +0.016 C 
ATOM     14  C   UNL     1     -28.775  30.071   6.685  0.00  0.00    +0.143 C 
ATOM     15  C   UNL     1     -29.104  28.712   6.605  0.00  0.00    +0.025 C 
BRANCH  14  18
ATOM     16  O   UNL     1     -26.951  31.413   7.119  0.00  0.00    -0.126 OA
ATOM     17  O   UNL     1     -27.537  29.929   8.625  0.00  0.00    -0.126 OA
ATOM     18  N   UNL     1     -27.703  30.491   7.516  0.00  0.00    +0.058 N 
ENDBRANCH  14  18
ENDBRANCH   1   7
BRANCH   2  19
ATOM     19  O   UNL     1     -35.104  24.575   2.992  0.00  0.00    -0.451 OA
BRANCH  19  25
ATOM     20  O   UNL     1     -37.262  24.226   3.917  0.00  0.00    -0.316 OA
ATOM     21  C   UNL     1     -36.138  21.741   3.009  0.00  0.00    +0.173 C 
ATOM     22  C   UNL     1     -37.624  22.060   2.841  0.00  0.00    +0.169 C 
ATOM     23  C   UNL     1     -35.545  22.521   4.183  0.00  0.00    +0.210 C 
ATOM     24  C   UNL     1     -37.834  23.578   2.779  0.00  0.00    +0.177 C 
ATOM     25  C   UNL     1     -35.853  24.012   4.064  0.00  0.00    +0.318 C 
BRANCH  21  26
ATOM     26  O   UNL     1     -35.951  20.348   3.241  0.00  0.00    -0.379 OA
ATOM     27  H   UNL     1     -36.798  19.887   3.136  0.00  0.00    +0.211 HD
ENDBRANCH  21  26
BRANCH  22  28
ATOM     28  O   UNL     1     -38.104  21.478   1.631  0.00  0.00    -0.379 OA
ATOM     29  H   UNL     1     -37.360  21.096   1.140  0.00  0.00    +0.211 HD
ENDBRANCH  22  28
BRANCH  23  30
ATOM     30  O   UNL     1     -36.110  22.058   5.410  0.00  0.00    -0.377 OA
ATOM     31  H   UNL     1     -36.837  22.646   5.674  0.00  0.00    +0.211 HD
ENDBRANCH  23  30
BRANCH  24  32
ATOM     32  C   UNL     1     -39.318  23.937   2.749  0.00  0.00    +0.169 C 
BRANCH  32  33
ATOM     33  O   UNL     1     -39.608  24.742   3.877  0.00  0.00    -0.379 OA
ATOM     34  H   UNL     1     -39.926  24.181   4.602  0.00  0.00    +0.211 HD
ENDBRANCH  32  33
ENDBRANCH  24  32
ENDBRANCH  19  25
ENDBRANCH   2  19
TORSDOF 9
ENDMDL
MODEL 8
REMARK VINA RESULT:      -6.4      4.483      5.663
REMARK  Name = 57523403
REMARK  9 active torsions:
REMARK  status: ('A' for Active; 'I' for Inactive)
REMARK    1  A    between atoms: C_1  and  N_7
REMARK    2  A    between atoms: C_2  and  O_19
REMARK    3  A    between atoms: C_14  and  N_18
REMARK    4  A    between atoms: O_19  and  C_25
REMARK    5  A    between atoms: C_21  and  O_26
REMARK    6  A    between atoms: C_22  and  O_28
REMARK    7  A    between atoms: C_23  and  O_30
REMARK    8  A    between atoms: C_24  and  C_32
REMARK    9  A    between atoms: C_32  and  O_33
REMARK                            x       y       z     vdW  Elec       q    Type
REMARK                         _______ _______ _______ _____ _____    ______ ____
ROOT
ATOM      1  C   UNL     1     -31.516  18.605   0.615  0.00  0.00    +0.052 C 
ATOM      2  C   UNL     1     -33.689  20.314   0.994  0.00  0.00    +0.141 C 
ATOM      3  C   UNL     1     -31.520  19.870   0.027  0.00  0.00    +0.018 C 
ATOM      4  C   UNL     1     -32.600  18.194   1.392  0.00  0.00    +0.018 C 
ATOM      5  C   UNL     1     -32.606  20.725   0.216  0.00  0.00    +0.038 C 
ATOM      6  C   UNL     1     -33.685  19.049   1.582  0.00  0.00    +0.038 C 
ENDROOT
BRANCH   1   7
ATOM      7  N   UNL     1     -30.427  17.750   0.426  0.00  0.00    -0.287 N 
ATOM      8  C   UNL     1     -29.039  18.249   0.459  0.00  0.00    +0.100 C 
ATOM      9  C   UNL     1     -28.114  17.033   0.637  0.00  0.00    +0.049 C 
ATOM     10  C   UNL     1     -30.323  16.378   0.099  0.00  0.00    +0.048 C 
ATOM     11  C   UNL     1     -29.000  15.925   0.184  0.00  0.00    -0.005 C 
ATOM     12  C   UNL     1     -28.648  14.612  -0.088  0.00  0.00    +0.021 C 
ATOM     13  C   UNL     1     -31.317  15.497  -0.305  0.00  0.00    +0.016 C 
ATOM     14  C   UNL     1     -29.652  13.729  -0.479  0.00  0.00    +0.143 C 
ATOM     15  C   UNL     1     -30.977  14.170  -0.591  0.00  0.00    +0.025 C 
BRANCH  14  18
ATOM     16  O   UNL     1     -29.538  11.501   0.103  0.00  0.00    -0.126 OA
ATOM     17  O   UNL     1     -28.851  12.095  -1.895  0.00  0.00    -0.126 OA
ATOM     18  N   UNL     1     -29.331  12.377  -0.771  0.00  0.00    +0.058 N 
ENDBRANCH  14  18
ENDBRANCH   1   7
BRANCH   2  19
ATOM     19  O   UNL     1     -34.755  21.153   1.180  0.00  0.00    -0.451 OA
BRANCH  19  25
ATOM     20  O   UNL     1     -35.622  20.772   3.356  0.00  0.00    -0.316 OA
ATOM     21  C   UNL     1     -37.139  22.807   2.005  0.00  0.00    +0.173 C 
ATOM     22  C   UNL     1     -36.822  22.898   3.499  0.00  0.00    +0.169 C 
ATOM     23  C   UNL     1     -37.135  21.350   1.539  0.00  0.00    +0.210 C 
ATOM     24  C   UNL     1     -35.537  22.123   3.814  0.00  0.00    +0.177 C 
ATOM     25  C   UNL     1     -35.842  20.646   1.947  0.00  0.00    +0.318 C 
BRANCH  21  26
ATOM     26  O   UNL     1     -38.417  23.374   1.732  0.00  0.00    -0.379 OA
ATOM     27  H   UNL     1     -38.325  24.331   1.604  0.00  0.00    +0.211 HD
ENDBRANCH  21  26
BRANCH  22  28
ATOM     28  O   UNL     1     -36.639  24.264   3.866  0.00  0.00    -0.379 OA
ATOM     29  H   UNL     1     -36.593  24.335   4.833  0.00  0.00    +0.211 HD
ENDBRANCH  22  28
BRANCH  23  30
ATOM     30  O   UNL     1     -38.221  20.643   2.139  0.00  0.00    -0.377 OA
ATOM     31  H   UNL     1     -37.882  20.062   2.839  0.00  0.00    +0.211 HD
ENDBRANCH  23  30
BRANCH  24  32
ATOM     32  C   UNL     1     -35.265  22.079   5.316  0.00  0.00    +0.169 C 
BRANCH  32  33
ATOM     33  O   UNL     1     -35.311  20.729   5.741  0.00  0.00    -0.379 OA
ATOM     34  H   UNL     1     -36.123  20.314   5.410  0.00  0.00    +0.211 HD
ENDBRANCH  32  33
ENDBRANCH  24  32
ENDBRANCH  19  25
ENDBRANCH   2  19
TORSDOF 9
ENDMDL
MODEL 9
REMARK VINA RESULT:      -6.4      6.475     12.545
REMARK  Name = 57523403
REMARK  9 active torsions:
REMARK  status: ('A' for Active; 'I' for Inactive)
REMARK    1  A    between atoms: C_1  and  N_7
REMARK    2  A    between atoms: C_2  and  O_19
REMARK    3  A    between atoms: C_14  and  N_18
REMARK    4  A    between atoms: O_19  and  C_25
REMARK    5  A    between atoms: C_21  and  O_26
REMARK    6  A    between atoms: C_22  and  O_28
REMARK    7  A    between atoms: C_23  and  O_30
REMARK    8  A    between atoms: C_24  and  C_32
REMARK    9  A    between atoms: C_32  and  O_33
REMARK                            x       y       z     vdW  Elec       q    Type
REMARK                         _______ _______ _______ _____ _____    ______ ____
ROOT
ATOM      1  C   UNL     1     -32.386  28.076   4.199  0.00  0.00    +0.052 C 
ATOM      2  C   UNL     1     -33.694  25.659   3.716  0.00  0.00    +0.141 C 
ATOM      3  C   UNL     1     -33.066  27.432   5.233  0.00  0.00    +0.018 C 
ATOM      4  C   UNL     1     -32.361  27.512   2.923  0.00  0.00    +0.018 C 
ATOM      5  C   UNL     1     -33.720  26.224   4.993  0.00  0.00    +0.038 C 
ATOM      6  C   UNL     1     -33.014  26.303   2.683  0.00  0.00    +0.038 C 
ENDROOT
BRANCH   1   7
ATOM      7  N   UNL     1     -31.729  29.285   4.442  0.00  0.00    -0.287 N 
ATOM      8  C   UNL     1     -30.722  29.416   5.513  0.00  0.00    +0.100 C 
ATOM      9  C   UNL     1     -29.921  30.700   5.240  0.00  0.00    +0.049 C 
ATOM     10  C   UNL     1     -31.865  30.583   3.895  0.00  0.00    +0.048 C 
ATOM     11  C   UNL     1     -30.855  31.443   4.348  0.00  0.00    -0.005 C 
ATOM     12  C   UNL     1     -30.776  32.768   3.949  0.00  0.00    +0.021 C 
ATOM     13  C   UNL     1     -32.845  31.077   3.045  0.00  0.00    +0.016 C 
ATOM     14  C   UNL     1     -31.754  33.253   3.083  0.00  0.00    +0.143 C 
ATOM     15  C   UNL     1     -32.784  32.414   2.639  0.00  0.00    +0.025 C 
BRANCH  14  18
ATOM     16  O   UNL     1     -31.947  34.869   1.450  0.00  0.00    -0.126 OA
ATOM     17  O   UNL     1     -31.439  35.501   3.490  0.00  0.00    -0.126 OA
ATOM     18  N   UNL     1     -31.711  34.605   2.654  0.00  0.00    +0.058 N 
ENDBRANCH  14  18
ENDBRANCH   1   7
BRANCH   2  19
ATOM     19  O   UNL     1     -34.336  24.473   3.480  0.00  0.00    -0.451 OA
BRANCH  19  25
ATOM     20  O   UNL     1     -36.574  24.643   4.253  0.00  0.00    -0.316 OA
ATOM     21  C   UNL     1     -36.068  22.020   3.188  0.00  0.00    +0.173 C 
ATOM     22  C   UNL     1     -37.404  22.733   2.970  0.00  0.00    +0.169 C 
ATOM     23  C   UNL     1     -35.383  22.529   4.458  0.00  0.00    +0.210 C 
ATOM     24  C   UNL     1     -37.208  24.253   3.032  0.00  0.00    +0.177 C 
ATOM     25  C   UNL     1     -35.284  24.054   4.455  0.00  0.00    +0.318 C 
BRANCH  21  26
ATOM     26  O   UNL     1     -36.267  20.615   3.305  0.00  0.00    -0.379 OA
ATOM     27  H   UNL     1     -35.607  20.244   3.912  0.00  0.00    +0.211 HD
ENDBRANCH  21  26
BRANCH  22  28
ATOM     28  O   UNL     1     -37.926  22.387   1.689  0.00  0.00    -0.379 OA
ATOM     29  H   UNL     1     -38.768  21.918   1.800  0.00  0.00    +0.211 HD
ENDBRANCH  22  28
BRANCH  23  30
ATOM     30  O   UNL     1     -36.140  22.145   5.607  0.00  0.00    -0.377 OA
ATOM     31  H   UNL     1     -37.088  22.220   5.410  0.00  0.00    +0.211 HD
ENDBRANCH  23  30
BRANCH  24  32
ATOM     32  C   UNL     1     -38.541  24.992   2.955  0.00  0.00    +0.169 C 
BRANCH  32  33
ATOM     33  O   UNL     1     -38.386  26.263   3.561  0.00  0.00    -0.379 OA
ATOM     34  H   UNL     1     -39.078  26.861   3.239  0.00  0.00    +0.211 HD
ENDBRANCH  32  33
ENDBRANCH  24  32
ENDBRANCH  19  25
ENDBRANCH   2  19
TORSDOF 9
ENDMDL
