MODEL 1
REMARK VINA RESULT:      -6.0      0.000      0.000
REMARK  Name = 193125
REMARK  7 active torsions:
REMARK  status: ('A' for Active; 'I' for Inactive)
REMARK    1  A    between atoms: CA_1  and  C_3
REMARK    2  A    between atoms: CA_1  and  N_6
REMARK    3  A    between atoms: CA_1  and  CB_16
REMARK    4  A    between atoms: C_3  and  O_4
REMARK    5  A    between atoms: N_6  and  C_10
REMARK    6  A    between atoms: CB_16  and  CG_17
REMARK    7  A    between atoms: CG_17  and  CD_20
REMARK                            x       y       z     vdW  Elec       q    Type
REMARK                         _______ _______ _______ _____ _____    ______ ____
ROOT
ATOM      1  CA  GLN A   1     -35.725  22.830   4.242  0.00  0.00    +0.170 C 
ENDROOT
BRANCH   1   3
ATOM      2  OXT GLN A   1     -35.257  20.549   3.532  0.00  0.00    -0.248 OA
ATOM      3  C   GLN A   1     -35.438  21.355   4.434  0.00  0.00    +0.332 C 
BRANCH   3   4
ATOM      4  O   GLN A   1     -35.383  21.010   5.747  0.00  0.00    -0.479 OA
ATOM      5  H   GLN A   1     -35.256  20.115   5.992  0.00  0.00    +0.295 HD
ENDBRANCH   3   4
ENDBRANCH   1   3
BRANCH   1   6
ATOM      6  N   GLN A   1     -37.064  22.989   3.710  0.00  0.00    -0.325 N 
ATOM      7  H   GLN A   1     -37.697  22.243   3.810  0.00  0.00    +0.147 HD
BRANCH   6  10
ATOM      8  O   UNK A   0     -40.143  26.489   2.886  0.00  0.00    -0.283 OA
ATOM      9  O   UNK A   0     -38.499  27.491   1.008  0.00  0.00    -0.283 OA
ATOM     10  C   UNK A   0     -37.489  24.111   3.082  0.00  0.00    +0.048 C 
ATOM     11  C   UNK A   0     -38.664  24.698   3.370  0.00  0.00    +0.060 C 
ATOM     12  C   UNK A   0     -36.616  24.676   2.065  0.00  0.00    +0.018 C 
ATOM     13  C   UNK A   0     -39.086  25.921   2.659  0.00  0.00    +0.235 C 
ATOM     14  C   UNK A   0     -36.898  25.777   1.360  0.00  0.00    +0.047 C 
ATOM     15  C   UNK A   0     -38.167  26.482   1.611  0.00  0.00    +0.234 C 
ENDBRANCH   6  10
ENDBRANCH   1   6
BRANCH   1  16
ATOM     16  CB  GLN A   1     -35.550  23.661   5.521  0.00  0.00    +0.041 C 
BRANCH  16  17
ATOM     17  CG  GLN A   1     -34.526  24.801   5.444  0.00  0.00    +0.087 C 
BRANCH  17  20
ATOM     18  OE1 GLN A   1     -34.516  27.017   4.508  0.00  0.00    -0.275 OA
ATOM     19  NE2 GLN A   1     -36.408  26.315   5.609  0.00  0.00    -0.329 N 
ATOM     20  CD  GLN A   1     -35.131  26.152   5.127  0.00  0.00    +0.219 C 
ATOM     21 HE21 GLN A   1     -36.889  27.160   5.456  0.00  0.00    +0.145 HD
ATOM     22 HE22 GLN A   1     -36.843  25.586   6.110  0.00  0.00    +0.145 HD
ENDBRANCH  17  20
ENDBRANCH  16  17
ENDBRANCH   1  16
TORSDOF 7
ENDMDL
MODEL 2
REMARK VINA RESULT:      -5.7      0.588      1.562
REMARK  Name = 193125
REMARK  7 active torsions:
REMARK  status: ('A' for Active; 'I' for Inactive)
REMARK    1  A    between atoms: CA_1  and  C_3
REMARK    2  A    between atoms: CA_1  and  N_6
REMARK    3  A    between atoms: CA_1  and  CB_16
REMARK    4  A    between atoms: C_3  and  O_4
REMARK    5  A    between atoms: N_6  and  C_10
REMARK    6  A    between atoms: CB_16  and  CG_17
REMARK    7  A    between atoms: CG_17  and  CD_20
REMARK                            x       y       z     vdW  Elec       q    Type
REMARK                         _______ _______ _______ _____ _____    ______ ____
ROOT
ATOM      1  CA  GLN A   1     -35.764  22.842   4.229  0.00  0.00    +0.170 C 
ENDROOT
BRANCH   1   3
ATOM      2  OXT GLN A   1     -35.240  20.566   3.543  0.00  0.00    -0.248 OA
ATOM      3  C   GLN A   1     -35.443  21.375   4.437  0.00  0.00    +0.332 C 
BRANCH   3   4
ATOM      4  O   GLN A   1     -35.384  21.045   5.754  0.00  0.00    -0.479 OA
ATOM      5  H   GLN A   1     -35.963  20.395   6.101  0.00  0.00    +0.295 HD
ENDBRANCH   3   4
ENDBRANCH   1   3
BRANCH   1   6
ATOM      6  N   GLN A   1     -37.106  22.964   3.696  0.00  0.00    -0.325 N 
ATOM      7  H   GLN A   1     -37.737  22.224   3.845  0.00  0.00    +0.147 HD
BRANCH   6  10
ATOM      8  O   UNK A   0     -36.651  26.398   0.469  0.00  0.00    -0.283 OA
ATOM      9  O   UNK A   0     -39.115  27.291   1.076  0.00  0.00    -0.283 OA
ATOM     10  C   UNK A   0     -37.537  24.044   3.001  0.00  0.00    +0.048 C 
ATOM     11  C   UNK A   0     -36.785  24.644   2.062  0.00  0.00    +0.060 C 
ATOM     12  C   UNK A   0     -38.868  24.544   3.307  0.00  0.00    +0.018 C 
ATOM     13  C   UNK A   0     -37.297  25.820   1.330  0.00  0.00    +0.235 C 
ATOM     14  C   UNK A   0     -39.429  25.599   2.707  0.00  0.00    +0.047 C 
ATOM     15  C   UNK A   0     -38.674  26.319   1.667  0.00  0.00    +0.234 C 
ENDBRANCH   6  10
ENDBRANCH   1   6
BRANCH   1  16
ATOM     16  CB  GLN A   1     -35.609  23.690   5.500  0.00  0.00    +0.041 C 
BRANCH  16  17
ATOM     17  CG  GLN A   1     -34.579  24.825   5.426  0.00  0.00    +0.087 C 
BRANCH  17  20
ATOM     18  OE1 GLN A   1     -34.530  27.052   4.518  0.00  0.00    -0.275 OA
ATOM     19  NE2 GLN A   1     -36.479  26.324   5.498  0.00  0.00    -0.329 N 
ATOM     20  CD  GLN A   1     -35.174  26.175   5.089  0.00  0.00    +0.219 C 
ATOM     21 HE21 GLN A   1     -36.956  27.168   5.327  0.00  0.00    +0.145 HD
ATOM     22 HE22 GLN A   1     -36.937  25.587   5.964  0.00  0.00    +0.145 HD
ENDBRANCH  17  20
ENDBRANCH  16  17
ENDBRANCH   1  16
TORSDOF 7
ENDMDL
MODEL 3
REMARK VINA RESULT:      -5.6      3.020      5.003
REMARK  Name = 193125
REMARK  7 active torsions:
REMARK  status: ('A' for Active; 'I' for Inactive)
REMARK    1  A    between atoms: CA_1  and  C_3
REMARK    2  A    between atoms: CA_1  and  N_6
REMARK    3  A    between atoms: CA_1  and  CB_16
REMARK    4  A    between atoms: C_3  and  O_4
REMARK    5  A    between atoms: N_6  and  C_10
REMARK    6  A    between atoms: CB_16  and  CG_17
REMARK    7  A    between atoms: CG_17  and  CD_20
REMARK                            x       y       z     vdW  Elec       q    Type
REMARK                         _______ _______ _______ _____ _____    ______ ____
ROOT
ATOM      1  CA  GLN A   1     -35.472  22.300   4.014  0.00  0.00    +0.170 C 
ENDROOT
BRANCH   1   3
ATOM      2  OXT GLN A   1     -35.963  22.614   6.378  0.00  0.00    -0.248 OA
ATOM      3  C   GLN A   1     -35.554  21.899   5.473  0.00  0.00    +0.332 C 
BRANCH   3   4
ATOM      4  O   GLN A   1     -35.136  20.623   5.679  0.00  0.00    -0.479 OA
ATOM      5  H   GLN A   1     -34.220  20.426   5.688  0.00  0.00    +0.295 HD
ENDBRANCH   3   4
ENDBRANCH   1   3
BRANCH   1   6
ATOM      6  N   GLN A   1     -36.407  21.501   3.248  0.00  0.00    -0.325 N 
ATOM      7  H   GLN A   1     -37.365  21.576   3.457  0.00  0.00    +0.147 HD
BRANCH   6  10
ATOM      8  O   UNK A   0     -37.173  18.863  -0.608  0.00  0.00    -0.283 OA
ATOM      9  O   UNK A   0     -34.592  18.105  -0.599  0.00  0.00    -0.283 OA
ATOM     10  C   UNK A   0     -36.030  20.656   2.258  0.00  0.00    +0.048 C 
ATOM     11  C   UNK A   0     -36.887  20.213   1.323  0.00  0.00    +0.060 C 
ATOM     12  C   UNK A   0     -34.638  20.234   2.238  0.00  0.00    +0.018 C 
ATOM     13  C   UNK A   0     -36.431  19.292   0.263  0.00  0.00    +0.235 C 
ATOM     14  C   UNK A   0     -34.118  19.404   1.327  0.00  0.00    +0.047 C 
ATOM     15  C   UNK A   0     -34.989  18.869   0.266  0.00  0.00    +0.234 C 
ENDBRANCH   6  10
ENDBRANCH   1   6
BRANCH   1  16
ATOM     16  CB  GLN A   1     -35.716  23.797   3.775  0.00  0.00    +0.041 C 
BRANCH  16  17
ATOM     17  CG  GLN A   1     -34.580  24.737   4.200  0.00  0.00    +0.087 C 
BRANCH  17  20
ATOM     18  OE1 GLN A   1     -34.196  26.591   5.683  0.00  0.00    -0.275 OA
ATOM     19  NE2 GLN A   1     -36.325  25.732   5.552  0.00  0.00    -0.329 N 
ATOM     20  CD  GLN A   1     -34.994  25.786   5.210  0.00  0.00    +0.219 C 
ATOM     21 HE21 GLN A   1     -36.692  26.373   6.203  0.00  0.00    +0.145 HD
ATOM     22 HE22 GLN A   1     -36.911  25.053   5.146  0.00  0.00    +0.145 HD
ENDBRANCH  17  20
ENDBRANCH  16  17
ENDBRANCH   1  16
TORSDOF 7
ENDMDL
MODEL 4
REMARK VINA RESULT:      -5.5      2.925      4.648
REMARK  Name = 193125
REMARK  7 active torsions:
REMARK  status: ('A' for Active; 'I' for Inactive)
REMARK    1  A    between atoms: CA_1  and  C_3
REMARK    2  A    between atoms: CA_1  and  N_6
REMARK    3  A    between atoms: CA_1  and  CB_16
REMARK    4  A    between atoms: C_3  and  O_4
REMARK    5  A    between atoms: N_6  and  C_10
REMARK    6  A    between atoms: CB_16  and  CG_17
REMARK    7  A    between atoms: CG_17  and  CD_20
REMARK                            x       y       z     vdW  Elec       q    Type
REMARK                         _______ _______ _______ _____ _____    ______ ____
ROOT
ATOM      1  CA  GLN A   1     -36.081  22.753   4.617  0.00  0.00    +0.170 C 
ENDROOT
BRANCH   1   3
ATOM      2  OXT GLN A   1     -35.222  22.279   6.845  0.00  0.00    -0.248 OA
ATOM      3  C   GLN A   1     -35.436  21.909   5.699  0.00  0.00    +0.332 C 
BRANCH   3   4
ATOM      4  O   GLN A   1     -35.128  20.661   5.260  0.00  0.00    -0.479 OA
ATOM      5  H   GLN A   1     -34.514  20.547   4.562  0.00  0.00    +0.295 HD
ENDBRANCH   3   4
ENDBRANCH   1   3
BRANCH   1   6
ATOM      6  N   GLN A   1     -36.334  24.081   5.138  0.00  0.00    -0.325 N 
ATOM      7  H   GLN A   1     -37.115  24.212   5.720  0.00  0.00    +0.147 HD
BRANCH   6  10
ATOM      8  O   UNK A   0     -32.647  26.953   5.894  0.00  0.00    -0.283 OA
ATOM      9  O   UNK A   0     -33.388  28.454   3.788  0.00  0.00    -0.283 OA
ATOM     10  C   UNK A   0     -35.551  25.152   4.863  0.00  0.00    +0.048 C 
ATOM     11  C   UNK A   0     -34.465  25.458   5.595  0.00  0.00    +0.060 C 
ATOM     12  C   UNK A   0     -35.928  25.978   3.727  0.00  0.00    +0.018 C 
ATOM     13  C   UNK A   0     -33.641  26.635   5.259  0.00  0.00    +0.235 C 
ATOM     14  C   UNK A   0     -35.255  27.065   3.334  0.00  0.00    +0.047 C 
ATOM     15  C   UNK A   0     -34.054  27.474   4.082  0.00  0.00    +0.234 C 
ENDBRANCH   6  10
ENDBRANCH   1   6
BRANCH   1  16
ATOM     16  CB  GLN A   1     -35.255  22.827   3.324  0.00  0.00    +0.041 C 
BRANCH  16  17
ATOM     17  CG  GLN A   1     -35.957  22.331   2.053  0.00  0.00    +0.087 C 
BRANCH  17  20
ATOM     18  OE1 GLN A   1     -35.928  19.951   2.404  0.00  0.00    -0.275 OA
ATOM     19  NE2 GLN A   1     -37.958  20.968   2.046  0.00  0.00    -0.329 N 
ATOM     20  CD  GLN A   1     -36.591  20.964   2.194  0.00  0.00    +0.219 C 
ATOM     21 HE21 GLN A   1     -38.465  20.127   2.119  0.00  0.00    +0.145 HD
ATOM     22 HE22 GLN A   1     -38.432  21.813   1.865  0.00  0.00    +0.145 HD
ENDBRANCH  17  20
ENDBRANCH  16  17
ENDBRANCH   1  16
TORSDOF 7
ENDMDL
MODEL 5
REMARK VINA RESULT:      -5.5      2.519      3.261
REMARK  Name = 193125
REMARK  7 active torsions:
REMARK  status: ('A' for Active; 'I' for Inactive)
REMARK    1  A    between atoms: CA_1  and  C_3
REMARK    2  A    between atoms: CA_1  and  N_6
REMARK    3  A    between atoms: CA_1  and  CB_16
REMARK    4  A    between atoms: C_3  and  O_4
REMARK    5  A    between atoms: N_6  and  C_10
REMARK    6  A    between atoms: CB_16  and  CG_17
REMARK    7  A    between atoms: CG_17  and  CD_20
REMARK                            x       y       z     vdW  Elec       q    Type
REMARK                         _______ _______ _______ _____ _____    ______ ____
ROOT
ATOM      1  CA  GLN A   1     -35.381  22.709   4.307  0.00  0.00    +0.170 C 
ENDROOT
BRANCH   1   3
ATOM      2  OXT GLN A   1     -35.954  22.315   6.640  0.00  0.00    -0.248 OA
ATOM      3  C   GLN A   1     -35.513  21.896   5.579  0.00  0.00    +0.332 C 
BRANCH   3   4
ATOM      4  O   GLN A   1     -35.098  20.613   5.412  0.00  0.00    -0.479 OA
ATOM      5  H   GLN A   1     -34.203  20.433   5.200  0.00  0.00    +0.295 HD
ENDBRANCH   3   4
ENDBRANCH   1   3
BRANCH   1   6
ATOM      6  N   GLN A   1     -36.701  23.098   3.853  0.00  0.00    -0.325 N 
ATOM      7  H   GLN A   1     -37.124  23.884   4.266  0.00  0.00    +0.147 HD
BRANCH   6  10
ATOM      8  O   UNK A   0     -40.506  22.232   1.172  0.00  0.00    -0.283 OA
ATOM      9  O   UNK A   0     -39.180  20.245  -0.064  0.00  0.00    -0.283 OA
ATOM     10  C   UNK A   0     -37.384  22.435   2.889  0.00  0.00    +0.048 C 
ATOM     11  C   UNK A   0     -38.651  22.741   2.562  0.00  0.00    +0.060 C 
ATOM     12  C   UNK A   0     -36.687  21.358   2.202  0.00  0.00    +0.018 C 
ATOM     13  C   UNK A   0     -39.355  21.991   1.504  0.00  0.00    +0.235 C 
ATOM     14  C   UNK A   0     -37.228  20.614   1.232  0.00  0.00    +0.047 C 
ATOM     15  C   UNK A   0     -38.615  20.881   0.812  0.00  0.00    +0.234 C 
ENDBRANCH   6  10
ENDBRANCH   1   6
BRANCH   1  16
ATOM     16  CB  GLN A   1     -34.476  23.941   4.458  0.00  0.00    +0.041 C 
BRANCH  16  17
ATOM     17  CG  GLN A   1     -34.974  25.224   3.779  0.00  0.00    +0.087 C 
BRANCH  17  20
ATOM     18  OE1 GLN A   1     -34.217  27.107   5.071  0.00  0.00    -0.275 OA
ATOM     19  NE2 GLN A   1     -36.446  26.552   5.168  0.00  0.00    -0.329 N 
ATOM     20  CD  GLN A   1     -35.154  26.391   4.726  0.00  0.00    +0.219 C 
ATOM     21 HE21 GLN A   1     -36.667  27.284   5.789  0.00  0.00    +0.145 HD
ATOM     22 HE22 GLN A   1     -37.152  25.935   4.864  0.00  0.00    +0.145 HD
ENDBRANCH  17  20
ENDBRANCH  16  17
ENDBRANCH   1  16
TORSDOF 7
ENDMDL
MODEL 6
REMARK VINA RESULT:      -5.4      2.265      5.256
REMARK  Name = 193125
REMARK  7 active torsions:
REMARK  status: ('A' for Active; 'I' for Inactive)
REMARK    1  A    between atoms: CA_1  and  C_3
REMARK    2  A    between atoms: CA_1  and  N_6
REMARK    3  A    between atoms: CA_1  and  CB_16
REMARK    4  A    between atoms: C_3  and  O_4
REMARK    5  A    between atoms: N_6  and  C_10
REMARK    6  A    between atoms: CB_16  and  CG_17
REMARK    7  A    between atoms: CG_17  and  CD_20
REMARK                            x       y       z     vdW  Elec       q    Type
REMARK                         _______ _______ _______ _____ _____    ______ ____
ROOT
ATOM      1  CA  GLN A   1     -37.674  22.930   2.542  0.00  0.00    +0.170 C 
ENDROOT
BRANCH   1   3
ATOM      2  OXT GLN A   1     -39.494  24.325   3.359  0.00  0.00    -0.248 OA
ATOM      3  C   GLN A   1     -39.119  23.352   2.720  0.00  0.00    +0.332 C 
BRANCH   3   4
ATOM      4  O   GLN A   1     -39.978  22.528   2.065  0.00  0.00    -0.479 OA
ATOM      5  H   GLN A   1     -40.451  21.872   2.538  0.00  0.00    +0.295 HD
ENDBRANCH   3   4
ENDBRANCH   1   3
BRANCH   1   6
ATOM      6  N   GLN A   1     -36.992  23.019   3.817  0.00  0.00    -0.325 N 
ATOM      7  H   GLN A   1     -37.178  22.331   4.495  0.00  0.00    +0.147 HD
BRANCH   6  10
ATOM      8  O   UNK A   0     -32.914  25.374   3.330  0.00  0.00    -0.283 OA
ATOM      9  O   UNK A   0     -33.661  27.067   5.282  0.00  0.00    -0.283 OA
ATOM     10  C   UNK A   0     -36.111  24.001   4.125  0.00  0.00    +0.048 C 
ATOM     11  C   UNK A   0     -34.928  24.130   3.500  0.00  0.00    +0.060 C 
ATOM     12  C   UNK A   0     -36.493  24.933   5.175  0.00  0.00    +0.018 C 
ATOM     13  C   UNK A   0     -33.999  25.217   3.869  0.00  0.00    +0.235 C 
ATOM     14  C   UNK A   0     -35.730  25.950   5.589  0.00  0.00    +0.047 C 
ATOM     15  C   UNK A   0     -34.416  26.164   4.959  0.00  0.00    +0.234 C 
ENDBRANCH   6  10
ENDBRANCH   1   6
BRANCH   1  16
ATOM     16  CB  GLN A   1     -37.515  21.526   1.941  0.00  0.00    +0.041 C 
BRANCH  16  17
ATOM     17  CG  GLN A   1     -36.130  21.198   1.365  0.00  0.00    +0.087 C 
BRANCH  17  20
ATOM     18  OE1 GLN A   1     -35.257  20.518   3.501  0.00  0.00    -0.275 OA
ATOM     19  NE2 GLN A   1     -34.490  19.435   1.624  0.00  0.00    -0.329 N 
ATOM     20  CD  GLN A   1     -35.265  20.360   2.283  0.00  0.00    +0.219 C 
ATOM     21 HE21 GLN A   1     -33.892  18.842   2.132  0.00  0.00    +0.145 HD
ATOM     22 HE22 GLN A   1     -34.532  19.366   0.642  0.00  0.00    +0.145 HD
ENDBRANCH  17  20
ENDBRANCH  16  17
ENDBRANCH   1  16
TORSDOF 7
ENDMDL
MODEL 7
REMARK VINA RESULT:      -5.3      1.864      4.280
REMARK  Name = 193125
REMARK  7 active torsions:
REMARK  status: ('A' for Active; 'I' for Inactive)
REMARK    1  A    between atoms: CA_1  and  C_3
REMARK    2  A    between atoms: CA_1  and  N_6
REMARK    3  A    between atoms: CA_1  and  CB_16
REMARK    4  A    between atoms: C_3  and  O_4
REMARK    5  A    between atoms: N_6  and  C_10
REMARK    6  A    between atoms: CB_16  and  CG_17
REMARK    7  A    between atoms: CG_17  and  CD_20
REMARK                            x       y       z     vdW  Elec       q    Type
REMARK                         _______ _______ _______ _____ _____    ______ ____
ROOT
ATOM      1  CA  GLN A   1     -37.165  22.337   2.894  0.00  0.00    +0.170 C 
ENDROOT
BRANCH   1   3
ATOM      2  OXT GLN A   1     -35.473  21.330   1.462  0.00  0.00    -0.248 OA
ATOM      3  C   GLN A   1     -36.379  21.199   2.273  0.00  0.00    +0.332 C 
BRANCH   3   4
ATOM      4  O   GLN A   1     -36.780  19.987   2.736  0.00  0.00    -0.479 OA
ATOM      5  H   GLN A   1     -36.171  19.427   3.176  0.00  0.00    +0.295 HD
ENDBRANCH   3   4
ENDBRANCH   1   3
BRANCH   1   6
ATOM      6  N   GLN A   1     -36.561  22.696   4.161  0.00  0.00    -0.325 N 
ATOM      7  H   GLN A   1     -36.695  22.096   4.929  0.00  0.00    +0.147 HD
BRANCH   6  10
ATOM      8  O   UNK A   0     -32.818  25.489   3.388  0.00  0.00    -0.283 OA
ATOM      9  O   UNK A   0     -33.815  27.299   5.110  0.00  0.00    -0.283 OA
ATOM     10  C   UNK A   0     -35.821  23.816   4.344  0.00  0.00    +0.048 C 
ATOM     11  C   UNK A   0     -34.654  24.021   3.710  0.00  0.00    +0.060 C 
ATOM     12  C   UNK A   0     -36.341  24.813   5.268  0.00  0.00    +0.018 C 
ATOM     13  C   UNK A   0     -33.882  25.258   3.941  0.00  0.00    +0.235 C 
ATOM     14  C   UNK A   0     -35.726  25.966   5.551  0.00  0.00    +0.047 C 
ATOM     15  C   UNK A   0     -34.439  26.271   4.902  0.00  0.00    +0.234 C 
ENDBRANCH   6  10
ENDBRANCH   1   6
BRANCH   1  16
ATOM     16  CB  GLN A   1     -37.284  23.568   1.984  0.00  0.00    +0.041 C 
BRANCH  16  17
ATOM     17  CG  GLN A   1     -38.695  24.152   1.829  0.00  0.00    +0.087 C 
BRANCH  17  20
ATOM     18  OE1 GLN A   1     -38.627  26.433   2.591  0.00  0.00    -0.275 OA
ATOM     19  NE2 GLN A   1     -39.714  24.886   3.900  0.00  0.00    -0.329 N 
ATOM     20  CD  GLN A   1     -39.002  25.280   2.791  0.00  0.00    +0.219 C 
ATOM     21 HE21 GLN A   1     -39.963  25.546   4.586  0.00  0.00    +0.145 HD
ATOM     22 HE22 GLN A   1     -39.974  23.942   4.008  0.00  0.00    +0.145 HD
ENDBRANCH  17  20
ENDBRANCH  16  17
ENDBRANCH   1  16
TORSDOF 7
ENDMDL
MODEL 8
REMARK VINA RESULT:      -5.3      2.063      5.234
REMARK  Name = 193125
REMARK  7 active torsions:
REMARK  status: ('A' for Active; 'I' for Inactive)
REMARK    1  A    between atoms: CA_1  and  C_3
REMARK    2  A    between atoms: CA_1  and  N_6
REMARK    3  A    between atoms: CA_1  and  CB_16
REMARK    4  A    between atoms: C_3  and  O_4
REMARK    5  A    between atoms: N_6  and  C_10
REMARK    6  A    between atoms: CB_16  and  CG_17
REMARK    7  A    between atoms: CG_17  and  CD_20
REMARK                            x       y       z     vdW  Elec       q    Type
REMARK                         _______ _______ _______ _____ _____    ______ ____
ROOT
ATOM      1  CA  GLN A   1     -38.042  23.517   2.455  0.00  0.00    +0.170 C 
ENDROOT
BRANCH   1   3
ATOM      2  OXT GLN A   1     -39.850  24.640   3.638  0.00  0.00    -0.248 OA
ATOM      3  C   GLN A   1     -39.484  23.868   2.762  0.00  0.00    +0.332 C 
BRANCH   3   4
ATOM      4  O   GLN A   1     -40.353  23.235   1.932  0.00  0.00    -0.479 OA
ATOM      5  H   GLN A   1     -41.242  23.527   1.873  0.00  0.00    +0.295 HD
ENDBRANCH   3   4
ENDBRANCH   1   3
BRANCH   1   6
ATOM      6  N   GLN A   1     -37.327  23.315   3.700  0.00  0.00    -0.325 N 
ATOM      7  H   GLN A   1     -37.563  22.537   4.253  0.00  0.00    +0.147 HD
BRANCH   6  10
ATOM      8  O   UNK A   0     -35.056  27.463   3.934  0.00  0.00    -0.283 OA
ATOM      9  O   UNK A   0     -33.279  26.391   5.645  0.00  0.00    -0.283 OA
ATOM     10  C   UNK A   0     -36.349  24.143   4.141  0.00  0.00    +0.048 C 
ATOM     11  C   UNK A   0     -36.261  25.426   3.752  0.00  0.00    +0.060 C 
ATOM     12  C   UNK A   0     -35.377  23.588   5.071  0.00  0.00    +0.018 C 
ATOM     13  C   UNK A   0     -35.178  26.292   4.259  0.00  0.00    +0.235 C 
ATOM     14  C   UNK A   0     -34.358  24.280   5.591  0.00  0.00    +0.047 C 
ATOM     15  C   UNK A   0     -34.185  25.694   5.216  0.00  0.00    +0.234 C 
ENDBRANCH   6  10
ENDBRANCH   1   6
BRANCH   1  16
ATOM     16  CB  GLN A   1     -37.890  22.294   1.539  0.00  0.00    +0.041 C 
BRANCH  16  17
ATOM     17  CG  GLN A   1     -36.461  21.760   1.369  0.00  0.00    +0.087 C 
BRANCH  17  20
ATOM     18  OE1 GLN A   1     -35.542  20.533   3.223  0.00  0.00    -0.275 OA
ATOM     19  NE2 GLN A   1     -36.662  19.357   1.596  0.00  0.00    -0.329 N 
ATOM     20  CD  GLN A   1     -36.173  20.507   2.169  0.00  0.00    +0.219 C 
ATOM     21 HE21 GLN A   1     -36.526  18.489   2.039  0.00  0.00    +0.145 HD
ATOM     22 HE22 GLN A   1     -37.150  19.402   0.740  0.00  0.00    +0.145 HD
ENDBRANCH  17  20
ENDBRANCH  16  17
ENDBRANCH   1  16
TORSDOF 7
ENDMDL
MODEL 9
REMARK VINA RESULT:      -5.2      2.795      5.217
REMARK  Name = 193125
REMARK  7 active torsions:
REMARK  status: ('A' for Active; 'I' for Inactive)
REMARK    1  A    between atoms: CA_1  and  C_3
REMARK    2  A    between atoms: CA_1  and  N_6
REMARK    3  A    between atoms: CA_1  and  CB_16
REMARK    4  A    between atoms: C_3  and  O_4
REMARK    5  A    between atoms: N_6  and  C_10
REMARK    6  A    between atoms: CB_16  and  CG_17
REMARK    7  A    between atoms: CG_17  and  CD_20
REMARK                            x       y       z     vdW  Elec       q    Type
REMARK                         _______ _______ _______ _____ _____    ______ ____
ROOT
ATOM      1  CA  GLN A   1     -36.483  21.586   2.265  0.00  0.00    +0.170 C 
ENDROOT
BRANCH   1   3
ATOM      2  OXT GLN A   1     -37.638  20.250   0.589  0.00  0.00    -0.248 OA
ATOM      3  C   GLN A   1     -37.676  20.911   1.617  0.00  0.00    +0.332 C 
BRANCH   3   4
ATOM      4  O   GLN A   1     -38.820  21.105   2.324  0.00  0.00    -0.479 OA
ATOM      5  H   GLN A   1     -39.600  20.640   2.091  0.00  0.00    +0.295 HD
ENDBRANCH   3   4
ENDBRANCH   1   3
BRANCH   1   6
ATOM      6  N   GLN A   1     -36.924  22.299   3.446  0.00  0.00    -0.325 N 
ATOM      7  H   GLN A   1     -37.682  21.935   3.956  0.00  0.00    +0.147 HD
BRANCH   6  10
ATOM      8  O   UNK A   0     -35.779  26.881   3.113  0.00  0.00    -0.283 OA
ATOM      9  O   UNK A   0     -34.498  26.730   5.473  0.00  0.00    -0.283 OA
ATOM     10  C   UNK A   0     -36.346  23.443   3.886  0.00  0.00    +0.048 C 
ATOM     11  C   UNK A   0     -36.401  24.592   3.190  0.00  0.00    +0.060 C 
ATOM     12  C   UNK A   0     -35.650  23.389   5.162  0.00  0.00    +0.018 C 
ATOM     13  C   UNK A   0     -35.756  25.815   3.709  0.00  0.00    +0.235 C 
ATOM     14  C   UNK A   0     -35.031  24.433   5.724  0.00  0.00    +0.047 C 
ATOM     15  C   UNK A   0     -35.041  25.732   5.028  0.00  0.00    +0.234 C 
ENDBRANCH   6  10
ENDBRANCH   1   6
BRANCH   1  16
ATOM     16  CB  GLN A   1     -35.344  20.616   2.611  0.00  0.00    +0.041 C 
BRANCH  16  17
ATOM     17  CG  GLN A   1     -34.279  20.418   1.524  0.00  0.00    +0.087 C 
BRANCH  17  20
ATOM     18  OE1 GLN A   1     -32.983  18.394   1.443  0.00  0.00    -0.275 OA
ATOM     19  NE2 GLN A   1     -35.071  18.381   0.482  0.00  0.00    -0.329 N 
ATOM     20  CD  GLN A   1     -34.031  18.970   1.162  0.00  0.00    +0.219 C 
ATOM     21 HE21 GLN A   1     -35.007  17.440   0.201  0.00  0.00    +0.145 HD
ATOM     22 HE22 GLN A   1     -35.882  18.902   0.275  0.00  0.00    +0.145 HD
ENDBRANCH  17  20
ENDBRANCH  16  17
ENDBRANCH   1  16
TORSDOF 7
ENDMDL
