MODEL 1
REMARK VINA RESULT:      -6.5      0.000      0.000
REMARK  Name = 21319
REMARK  5 active torsions:
REMARK  status: ('A' for Active; 'I' for Inactive)
REMARK    1  A    between atoms: N_2  and  CA_11
REMARK    2  A    between atoms: C_3  and  C_21
REMARK    3  A    between atoms: CA_10  and  C_16
REMARK    4  A    between atoms: C_16  and  O_17
REMARK    5  A    between atoms: C_22  and  C_27
REMARK                            x       y       z     vdW  Elec       q    Type
REMARK                         _______ _______ _______ _____ _____    ______ ____
ROOT
ATOM      1  O   UNL     1     -34.411  25.366   1.276  0.00  0.00    -0.270 OA
ATOM      2  N   UNL     1     -34.277  26.541   3.254  0.00  0.00    -0.293 N 
ATOM      3  C   UNL     1     -34.961  25.788   2.292  0.00  0.00    +0.251 C 
ATOM      4  H   UNL     1     -34.770  26.853   4.048  0.00  0.00    +0.150 HD
ENDROOT
BRANCH   2  11
ATOM      5  S   UNL     1     -33.871  29.183   1.743  0.00  0.00    -0.118 S 
ATOM      6  O   UNL     1     -32.260  27.573   5.514  0.00  0.00    -0.273 OA
ATOM      7  N   UNL     1     -31.998  28.744   3.483  0.00  0.00    -0.260 N 
ATOM      8  C   UNL     1     -32.491  28.099   2.262  0.00  0.00    +0.151 C 
ATOM      9  C   UNL     1     -33.018  30.677   2.457  0.00  0.00    +0.068 C 
ATOM     10  CA  UNL     1     -32.334  30.132   3.729  0.00  0.00    +0.184 C 
ATOM     11  CA  UNL     1     -32.853  26.885   3.129  0.00  0.00    +0.178 C 
ATOM     12  C   UNL     1     -32.299  27.703   4.312  0.00  0.00    +0.247 C 
ATOM     13  C   UNL     1     -32.052  31.220   1.396  0.00  0.00    +0.013 C 
ATOM     14  C   UNL     1     -34.070  31.734   2.797  0.00  0.00    +0.013 C 
BRANCH  10  16
ATOM     15  OXT UNL     1     -31.012  31.931   4.649  0.00  0.00    -0.248 OA
ATOM     16  C   UNL     1     -31.071  30.829   4.123  0.00  0.00    +0.333 C 
BRANCH  16  17
ATOM     17  O   UNL     1     -29.989  30.073   3.815  0.00  0.00    -0.479 OA
ATOM     18  H   UNL     1     -29.181  30.206   4.268  0.00  0.00    +0.295 HD
ENDBRANCH  16  17
ENDBRANCH  10  16
ENDBRANCH   2  11
BRANCH   3  21
ATOM     19  O   UNL     1     -38.564  25.635   2.530  0.00  0.00    -0.358 OA
ATOM     20  N   UNL     1     -38.253  24.590   3.391  0.00  0.00    -0.077 NA
ATOM     21  C   UNL     1     -36.374  25.501   2.575  0.00  0.00    +0.107 A 
ATOM     22  C   UNL     1     -36.918  24.533   3.397  0.00  0.00    +0.130 A 
ATOM     23  C   UNL     1     -37.415  26.174   2.046  0.00  0.00    +0.159 A 
ATOM     24  C   UNL     1     -37.568  27.300   1.114  0.00  0.00    +0.076 C 
BRANCH  22  27
ATOM     25 CL   UNL     1     -36.484  21.758   2.137  0.00  0.00    -0.082 Cl
ATOM     26  F   UNL     1     -36.045  25.141   5.955  0.00  0.00    -0.204 F 
ATOM     27  C   UNL     1     -36.237  23.548   4.196  0.00  0.00    +0.059 C 
ATOM     28  C   UNL     1     -35.991  22.261   3.718  0.00  0.00    +0.061 C 
ATOM     29  C   UNL     1     -35.819  23.907   5.477  0.00  0.00    +0.142 C 
ATOM     30  C   UNL     1     -35.326  21.333   4.521  0.00  0.00    +0.012 C 
ATOM     31  C   UNL     1     -35.155  22.979   6.281  0.00  0.00    +0.030 C 
ATOM     32  C   UNL     1     -34.908  21.693   5.803  0.00  0.00    +0.003 C 
ENDBRANCH  22  27
ENDBRANCH   3  21
TORSDOF 5
ENDMDL
MODEL 2
REMARK VINA RESULT:      -6.4      3.077      4.786
REMARK  Name = 21319
REMARK  5 active torsions:
REMARK  status: ('A' for Active; 'I' for Inactive)
REMARK    1  A    between atoms: N_2  and  CA_11
REMARK    2  A    between atoms: C_3  and  C_21
REMARK    3  A    between atoms: CA_10  and  C_16
REMARK    4  A    between atoms: C_16  and  O_17
REMARK    5  A    between atoms: C_22  and  C_27
REMARK                            x       y       z     vdW  Elec       q    Type
REMARK                         _______ _______ _______ _____ _____    ______ ____
ROOT
ATOM      1  O   UNL     1     -37.410  24.371   4.409  0.00  0.00    -0.270 OA
ATOM      2  N   UNL     1     -35.289  25.005   3.768  0.00  0.00    -0.293 N 
ATOM      3  C   UNL     1     -36.267  24.053   4.082  0.00  0.00    +0.251 C 
ATOM      4  H   UNL     1     -34.391  24.692   3.512  0.00  0.00    +0.150 HD
ENDROOT
BRANCH   2  11
ATOM      5  S   UNL     1     -32.846  26.622   2.851  0.00  0.00    -0.118 S 
ATOM      6  O   UNL     1     -37.127  26.756   1.820  0.00  0.00    -0.273 OA
ATOM      7  N   UNL     1     -35.081  27.823   2.314  0.00  0.00    -0.260 N 
ATOM      8  C   UNL     1     -34.366  27.389   3.518  0.00  0.00    +0.151 C 
ATOM      9  C   UNL     1     -32.847  27.788   1.398  0.00  0.00    +0.068 C 
ATOM     10  CA  UNL     1     -34.347  27.962   1.073  0.00  0.00    +0.184 C 
ATOM     11  CA  UNL     1     -35.548  26.451   3.802  0.00  0.00    +0.178 C 
ATOM     12  C   UNL     1     -36.161  27.009   2.502  0.00  0.00    +0.247 C 
ATOM     13  C   UNL     1     -32.135  29.078   1.829  0.00  0.00    +0.013 C 
ATOM     14  C   UNL     1     -32.095  27.137   0.237  0.00  0.00    +0.013 C 
BRANCH  10  16
ATOM     15  OXT UNL     1     -34.499  29.625  -0.670  0.00  0.00    -0.248 OA
ATOM     16  C   UNL     1     -34.723  29.283   0.482  0.00  0.00    +0.333 C 
BRANCH  16  17
ATOM     17  O   UNL     1     -35.348  30.058   1.400  0.00  0.00    -0.479 OA
ATOM     18  H   UNL     1     -35.325  29.822   2.306  0.00  0.00    +0.295 HD
ENDBRANCH  16  17
ENDBRANCH  10  16
ENDBRANCH   2  11
BRANCH   3  21
ATOM     19  O   UNL     1     -35.150  20.646   4.526  0.00  0.00    -0.358 OA
ATOM     20  N   UNL     1     -35.412  20.604   3.162  0.00  0.00    -0.077 NA
ATOM     21  C   UNL     1     -35.865  22.645   3.971  0.00  0.00    +0.107 A 
ATOM     22  C   UNL     1     -35.844  21.830   2.855  0.00  0.00    +0.130 A 
ATOM     23  C   UNL     1     -35.429  21.888   4.998  0.00  0.00    +0.159 A 
ATOM     24  C   UNL     1     -35.205  22.103   6.434  0.00  0.00    +0.076 C 
BRANCH  22  27
ATOM     25 CL   UNL     1     -38.833  21.674   2.142  0.00  0.00    -0.082 Cl
ATOM     26  F   UNL     1     -33.923  22.558   0.997  0.00  0.00    -0.204 F 
ATOM     27  C   UNL     1     -36.214  22.152   1.502  0.00  0.00    +0.059 C 
ATOM     28  C   UNL     1     -37.542  22.112   1.077  0.00  0.00    +0.061 C 
ATOM     29  C   UNL     1     -35.206  22.512   0.607  0.00  0.00    +0.142 C 
ATOM     30  C   UNL     1     -37.862  22.432  -0.243  0.00  0.00    +0.012 C 
ATOM     31  C   UNL     1     -35.526  22.832  -0.713  0.00  0.00    +0.030 C 
ATOM     32  C   UNL     1     -36.854  22.792  -1.137  0.00  0.00    +0.003 C 
ENDBRANCH  22  27
ENDBRANCH   3  21
TORSDOF 5
ENDMDL
MODEL 3
REMARK VINA RESULT:      -6.3      4.211      6.462
REMARK  Name = 21319
REMARK  5 active torsions:
REMARK  status: ('A' for Active; 'I' for Inactive)
REMARK    1  A    between atoms: N_2  and  CA_11
REMARK    2  A    between atoms: C_3  and  C_21
REMARK    3  A    between atoms: CA_10  and  C_16
REMARK    4  A    between atoms: C_16  and  O_17
REMARK    5  A    between atoms: C_22  and  C_27
REMARK                            x       y       z     vdW  Elec       q    Type
REMARK                         _______ _______ _______ _____ _____    ______ ____
ROOT
ATOM      1  O   UNL     1     -35.346  21.007  -0.013  0.00  0.00    -0.270 OA
ATOM      2  N   UNL     1     -36.443  21.363   1.983  0.00  0.00    -0.293 N 
ATOM      3  C   UNL     1     -36.361  20.882   0.670  0.00  0.00    +0.251 C 
ATOM      4  H   UNL     1     -37.281  21.233   2.482  0.00  0.00    +0.150 HD
ENDROOT
BRANCH   2  11
ATOM      5  S   UNL     1     -36.403  24.362   1.328  0.00  0.00    -0.118 S 
ATOM      6  O   UNL     1     -36.091  22.078   5.082  0.00  0.00    -0.273 OA
ATOM      7  N   UNL     1     -35.427  23.853   3.676  0.00  0.00    -0.260 N 
ATOM      8  C   UNL     1     -35.089  23.525   2.288  0.00  0.00    +0.151 C 
ATOM      9  C   UNL     1     -36.528  25.714   2.603  0.00  0.00    +0.068 C 
ATOM     10  CA  UNL     1     -36.305  24.975   3.940  0.00  0.00    +0.184 C 
ATOM     11  CA  UNL     1     -35.327  22.052   2.647  0.00  0.00    +0.178 C 
ATOM     12  C   UNL     1     -35.660  22.564   4.062  0.00  0.00    +0.247 C 
ATOM     13  C   UNL     1     -35.466  26.771   2.274  0.00  0.00    +0.013 C 
ATOM     14  C   UNL     1     -37.924  26.334   2.534  0.00  0.00    +0.013 C 
BRANCH  10  16
ATOM     15  OXT UNL     1     -34.501  25.703   5.370  0.00  0.00    -0.248 OA
ATOM     16  C   UNL     1     -35.670  25.789   5.021  0.00  0.00    +0.333 C 
BRANCH  16  17
ATOM     17  O   UNL     1     -36.569  26.642   5.570  0.00  0.00    -0.479 OA
ATOM     18  H   UNL     1     -37.218  27.048   5.031  0.00  0.00    +0.295 HD
ENDBRANCH  16  17
ENDBRANCH  10  16
ENDBRANCH   2  11
BRANCH   3  21
ATOM     19  O   UNL     1     -38.846  18.592  -0.612  0.00  0.00    -0.358 OA
ATOM     20  N   UNL     1     -39.629  19.738  -0.551  0.00  0.00    -0.077 NA
ATOM     21  C   UNL     1     -37.550  20.188   0.157  0.00  0.00    +0.107 A 
ATOM     22  C   UNL     1     -38.816  20.688  -0.080  0.00  0.00    +0.130 A 
ATOM     23  C   UNL     1     -37.592  18.883  -0.180  0.00  0.00    +0.159 A 
ATOM     24  C   UNL     1     -36.631  17.772  -0.183  0.00  0.00    +0.076 C 
BRANCH  22  27
ATOM     25 CL   UNL     1     -38.587  22.625  -2.460  0.00  0.00    -0.082 Cl
ATOM     26  F   UNL     1     -39.907  21.461   2.347  0.00  0.00    -0.204 F 
ATOM     27  C   UNL     1     -39.302  22.029   0.115  0.00  0.00    +0.059 C 
ATOM     28  C   UNL     1     -39.244  22.984  -0.900  0.00  0.00    +0.061 C 
ATOM     29  C   UNL     1     -39.841  22.365   1.358  0.00  0.00    +0.142 C 
ATOM     30  C   UNL     1     -39.726  24.273  -0.674  0.00  0.00    +0.012 C 
ATOM     31  C   UNL     1     -40.322  23.655   1.584  0.00  0.00    +0.030 C 
ATOM     32  C   UNL     1     -40.265  24.608   0.568  0.00  0.00    +0.003 C 
ENDBRANCH  22  27
ENDBRANCH   3  21
TORSDOF 5
ENDMDL
MODEL 4
REMARK VINA RESULT:      -6.3      1.344      1.606
REMARK  Name = 21319
REMARK  5 active torsions:
REMARK  status: ('A' for Active; 'I' for Inactive)
REMARK    1  A    between atoms: N_2  and  CA_11
REMARK    2  A    between atoms: C_3  and  C_21
REMARK    3  A    between atoms: CA_10  and  C_16
REMARK    4  A    between atoms: C_16  and  O_17
REMARK    5  A    between atoms: C_22  and  C_27
REMARK                            x       y       z     vdW  Elec       q    Type
REMARK                         _______ _______ _______ _____ _____    ______ ____
ROOT
ATOM      1  O   UNL     1     -34.357  25.333   1.164  0.00  0.00    -0.270 OA
ATOM      2  N   UNL     1     -34.248  26.680   3.031  0.00  0.00    -0.293 N 
ATOM      3  C   UNL     1     -34.923  25.855   2.123  0.00  0.00    +0.251 C 
ATOM      4  H   UNL     1     -34.753  27.070   3.780  0.00  0.00    +0.150 HD
ENDROOT
BRANCH   2  11
ATOM      5  S   UNL     1     -33.767  29.353   1.599  0.00  0.00    -0.118 S 
ATOM      6  O   UNL     1     -32.198  27.582   5.315  0.00  0.00    -0.273 OA
ATOM      7  N   UNL     1     -31.905  28.807   3.320  0.00  0.00    -0.260 N 
ATOM      8  C   UNL     1     -32.419  28.214   2.082  0.00  0.00    +0.151 C 
ATOM      9  C   UNL     1     -32.869  30.799   2.356  0.00  0.00    +0.068 C 
ATOM     10  CA  UNL     1     -32.199  30.196   3.609  0.00  0.00    +0.184 C 
ATOM     11  CA  UNL     1     -32.815  26.985   2.912  0.00  0.00    +0.178 C 
ATOM     12  C   UNL     1     -32.235  27.750   4.118  0.00  0.00    +0.247 C 
ATOM     13  C   UNL     1     -31.889  31.345   1.309  0.00  0.00    +0.013 C 
ATOM     14  C   UNL     1     -33.888  31.876   2.731  0.00  0.00    +0.013 C 
BRANCH  10  16
ATOM     15  OXT UNL     1     -30.823  31.925   4.582  0.00  0.00    -0.248 OA
ATOM     16  C   UNL     1     -30.915  30.843   4.021  0.00  0.00    +0.333 C 
BRANCH  16  17
ATOM     17  O   UNL     1     -29.857  30.066   3.684  0.00  0.00    -0.479 OA
ATOM     18  H   UNL     1     -28.989  30.335   3.909  0.00  0.00    +0.295 HD
ENDBRANCH  16  17
ENDBRANCH  10  16
ENDBRANCH   2  11
BRANCH   3  21
ATOM     19  O   UNL     1     -38.532  25.822   2.315  0.00  0.00    -0.358 OA
ATOM     20  N   UNL     1     -38.265  24.790   3.206  0.00  0.00    -0.077 NA
ATOM     21  C   UNL     1     -36.348  25.620   2.393  0.00  0.00    +0.107 A 
ATOM     22  C   UNL     1     -36.933  24.691   3.232  0.00  0.00    +0.130 A 
ATOM     23  C   UNL     1     -37.361  26.311   1.833  0.00  0.00    +0.159 A 
ATOM     24  C   UNL     1     -37.466  27.416   0.871  0.00  0.00    +0.076 C 
BRANCH  22  27
ATOM     25 CL   UNL     1     -35.919  25.625   5.983  0.00  0.00    -0.082 Cl
ATOM     26  F   UNL     1     -36.646  22.074   2.368  0.00  0.00    -0.204 F 
ATOM     27  C   UNL     1     -36.294  23.706   4.066  0.00  0.00    +0.059 C 
ATOM     28  C   UNL     1     -35.799  24.027   5.329  0.00  0.00    +0.061 C 
ATOM     29  C   UNL     1     -36.176  22.403   3.581  0.00  0.00    +0.142 C 
ATOM     30  C   UNL     1     -35.188  23.046   6.110  0.00  0.00    +0.012 C 
ATOM     31  C   UNL     1     -35.562  21.422   4.360  0.00  0.00    +0.030 C 
ATOM     32  C   UNL     1     -35.069  21.743   5.625  0.00  0.00    +0.003 C 
ENDBRANCH  22  27
ENDBRANCH   3  21
TORSDOF 5
ENDMDL
MODEL 5
REMARK VINA RESULT:      -6.3      1.733      2.144
REMARK  Name = 21319
REMARK  5 active torsions:
REMARK  status: ('A' for Active; 'I' for Inactive)
REMARK    1  A    between atoms: N_2  and  CA_11
REMARK    2  A    between atoms: C_3  and  C_21
REMARK    3  A    between atoms: CA_10  and  C_16
REMARK    4  A    between atoms: C_16  and  O_17
REMARK    5  A    between atoms: C_22  and  C_27
REMARK                            x       y       z     vdW  Elec       q    Type
REMARK                         _______ _______ _______ _____ _____    ______ ____
ROOT
ATOM      1  O   UNL     1     -34.415  25.648   0.700  0.00  0.00    -0.270 OA
ATOM      2  N   UNL     1     -34.117  27.591   1.903  0.00  0.00    -0.293 N 
ATOM      3  C   UNL     1     -34.886  26.522   1.426  0.00  0.00    +0.251 C 
ATOM      4  H   UNL     1     -34.548  28.261   2.482  0.00  0.00    +0.150 HD
ENDROOT
BRANCH   2  11
ATOM      5  S   UNL     1     -32.852  29.922   3.450  0.00  0.00    -0.118 S 
ATOM      6  O   UNL     1     -31.648  25.742   2.753  0.00  0.00    -0.273 OA
ATOM      7  N   UNL     1     -31.144  28.040   2.931  0.00  0.00    -0.260 N 
ATOM      8  C   UNL     1     -31.968  28.975   2.159  0.00  0.00    +0.151 C 
ATOM      9  C   UNL     1     -31.414  29.744   4.621  0.00  0.00    +0.068 C 
ATOM     10  CA  UNL     1     -30.880  28.325   4.327  0.00  0.00    +0.184 C 
ATOM     11  CA  UNL     1     -32.693  27.753   1.578  0.00  0.00    +0.178 C 
ATOM     12  C   UNL     1     -31.749  26.911   2.460  0.00  0.00    +0.247 C 
ATOM     13  C   UNL     1     -30.420  30.874   4.322  0.00  0.00    +0.013 C 
ATOM     14  C   UNL     1     -31.925  29.862   6.057  0.00  0.00    +0.013 C 
BRANCH  10  16
ATOM     15  OXT UNL     1     -28.550  28.292   3.695  0.00  0.00    -0.248 OA
ATOM     16  C   UNL     1     -29.413  28.138   4.547  0.00  0.00    +0.333 C 
BRANCH  16  17
ATOM     17  O   UNL     1     -29.163  27.768   5.827  0.00  0.00    -0.479 OA
ATOM     18  H   UNL     1     -28.360  28.018   6.238  0.00  0.00    +0.295 HD
ENDBRANCH  16  17
ENDBRANCH  10  16
ENDBRANCH   2  11
BRANCH   3  21
ATOM     19  O   UNL     1     -38.428  26.945   2.003  0.00  0.00    -0.358 OA
ATOM     20  N   UNL     1     -38.181  25.950   2.940  0.00  0.00    -0.077 NA
ATOM     21  C   UNL     1     -36.287  26.482   1.864  0.00  0.00    +0.107 A 
ATOM     22  C   UNL     1     -36.875  25.690   2.832  0.00  0.00    +0.130 A 
ATOM     23  C   UNL     1     -37.272  27.254   1.362  0.00  0.00    +0.159 A 
ATOM     24  C   UNL     1     -37.360  28.296   0.331  0.00  0.00    +0.076 C 
BRANCH  22  27
ATOM     25 CL   UNL     1     -36.607  22.853   1.670  0.00  0.00    -0.082 Cl
ATOM     26  F   UNL     1     -35.981  26.329   5.376  0.00  0.00    -0.204 F 
ATOM     27  C   UNL     1     -36.261  24.692   3.669  0.00  0.00    +0.059 C 
ATOM     28  C   UNL     1     -36.093  23.377   3.237  0.00  0.00    +0.061 C 
ATOM     29  C   UNL     1     -35.829  25.068   4.942  0.00  0.00    +0.142 C 
ATOM     30  C   UNL     1     -35.492  22.438   4.075  0.00  0.00    +0.012 C 
ATOM     31  C   UNL     1     -35.230  24.129   5.781  0.00  0.00    +0.030 C 
ATOM     32  C   UNL     1     -35.060  22.814   5.348  0.00  0.00    +0.003 C 
ENDBRANCH  22  27
ENDBRANCH   3  21
TORSDOF 5
ENDMDL
MODEL 6
REMARK VINA RESULT:      -6.2      4.778      7.114
REMARK  Name = 21319
REMARK  5 active torsions:
REMARK  status: ('A' for Active; 'I' for Inactive)
REMARK    1  A    between atoms: N_2  and  CA_11
REMARK    2  A    between atoms: C_3  and  C_21
REMARK    3  A    between atoms: CA_10  and  C_16
REMARK    4  A    between atoms: C_16  and  O_17
REMARK    5  A    between atoms: C_22  and  C_27
REMARK                            x       y       z     vdW  Elec       q    Type
REMARK                         _______ _______ _______ _____ _____    ______ ____
ROOT
ATOM      1  O   UNL     1     -35.409  24.899   3.557  0.00  0.00    -0.270 OA
ATOM      2  N   UNL     1     -37.615  24.270   3.334  0.00  0.00    -0.293 N 
ATOM      3  C   UNL     1     -36.250  24.003   3.498  0.00  0.00    +0.251 C 
ATOM      4  H   UNL     1     -38.243  23.512   3.294  0.00  0.00    +0.150 HD
ENDROOT
BRANCH   2  11
ATOM      5  S   UNL     1     -37.643  25.244   0.422  0.00  0.00    -0.118 S 
ATOM      6  O   UNL     1     -40.638  25.268   3.653  0.00  0.00    -0.273 OA
ATOM      7  N   UNL     1     -39.545  26.300   1.834  0.00  0.00    -0.260 N 
ATOM      8  C   UNL     1     -38.079  26.310   1.844  0.00  0.00    +0.151 C 
ATOM      9  C   UNL     1     -39.179  25.767  -0.492  0.00  0.00    +0.068 C 
ATOM     10  CA  UNL     1     -40.237  25.905   0.624  0.00  0.00    +0.184 C 
ATOM     11  CA  UNL     1     -38.149  25.634   3.220  0.00  0.00    +0.178 C 
ATOM     12  C   UNL     1     -39.680  25.696   3.050  0.00  0.00    +0.247 C 
ATOM     13  C   UNL     1     -38.863  27.071  -1.237  0.00  0.00    +0.013 C 
ATOM     14  C   UNL     1     -39.560  24.672  -1.490  0.00  0.00    +0.013 C 
BRANCH  10  16
ATOM     15  OXT UNL     1     -42.236  26.785  -0.406  0.00  0.00    -0.248 OA
ATOM     16  C   UNL     1     -41.302  26.924   0.371  0.00  0.00    +0.333 C 
BRANCH  16  17
ATOM     17  O   UNL     1     -41.093  28.033   1.121  0.00  0.00    -0.479 OA
ATOM     18  H   UNL     1     -41.804  28.422   1.589  0.00  0.00    +0.295 HD
ENDBRANCH  16  17
ENDBRANCH  10  16
ENDBRANCH   2  11
BRANCH   3  21
ATOM     19  O   UNL     1     -35.167  20.705   4.505  0.00  0.00    -0.358 OA
ATOM     20  N   UNL     1     -35.490  20.425   3.183  0.00  0.00    -0.077 NA
ATOM     21  C   UNL     1     -35.875  22.589   3.627  0.00  0.00    +0.107 A 
ATOM     22  C   UNL     1     -35.917  21.586   2.677  0.00  0.00    +0.130 A 
ATOM     23  C   UNL     1     -35.406  22.018   4.756  0.00  0.00    +0.159 A 
ATOM     24  C   UNL     1     -35.114  22.483   6.118  0.00  0.00    +0.076 C 
BRANCH  22  27
ATOM     25 CL   UNL     1     -33.779  22.315   0.588  0.00  0.00    -0.082 Cl
ATOM     26  F   UNL     1     -38.553  21.101   1.978  0.00  0.00    -0.204 F 
ATOM     27  C   UNL     1     -36.341  21.668   1.304  0.00  0.00    +0.059 C 
ATOM     28  C   UNL     1     -35.451  21.992   0.281  0.00  0.00    +0.061 C 
ATOM     29  C   UNL     1     -37.681  21.415   1.008  0.00  0.00    +0.142 C 
ATOM     30  C   UNL     1     -35.899  22.061  -1.039  0.00  0.00    +0.012 C 
ATOM     31  C   UNL     1     -38.129  21.485  -0.311  0.00  0.00    +0.030 C 
ATOM     32  C   UNL     1     -37.238  21.807  -1.334  0.00  0.00    +0.003 C 
ENDBRANCH  22  27
ENDBRANCH   3  21
TORSDOF 5
ENDMDL
MODEL 7
REMARK VINA RESULT:      -6.1      2.109      2.442
REMARK  Name = 21319
REMARK  5 active torsions:
REMARK  status: ('A' for Active; 'I' for Inactive)
REMARK    1  A    between atoms: N_2  and  CA_11
REMARK    2  A    between atoms: C_3  and  C_21
REMARK    3  A    between atoms: CA_10  and  C_16
REMARK    4  A    between atoms: C_16  and  O_17
REMARK    5  A    between atoms: C_22  and  C_27
REMARK                            x       y       z     vdW  Elec       q    Type
REMARK                         _______ _______ _______ _____ _____    ______ ____
ROOT
ATOM      1  O   UNL     1     -36.264  25.712   0.458  0.00  0.00    -0.270 OA
ATOM      2  N   UNL     1     -36.033  27.279   2.132  0.00  0.00    -0.293 N 
ATOM      3  C   UNL     1     -36.682  26.210   1.502  0.00  0.00    +0.251 C 
ATOM      4  H   UNL     1     -36.414  27.638   2.966  0.00  0.00    +0.150 HD
ENDROOT
BRANCH   2  11
ATOM      5  S   UNL     1     -36.626  29.833   0.534  0.00  0.00    -0.118 S 
ATOM      6  O   UNL     1     -33.732  28.849   3.707  0.00  0.00    -0.273 OA
ATOM      7  N   UNL     1     -34.295  29.899   1.670  0.00  0.00    -0.260 N 
ATOM      8  C   UNL     1     -34.961  29.084   0.650  0.00  0.00    +0.151 C 
ATOM      9  C   UNL     1     -35.942  31.514   0.955  0.00  0.00    +0.068 C 
ATOM     10  CA  UNL     1     -34.833  31.208   1.985  0.00  0.00    +0.184 C 
ATOM     11  CA  UNL     1     -34.805  27.887   1.600  0.00  0.00    +0.178 C 
ATOM     12  C   UNL     1     -34.129  28.882   2.565  0.00  0.00    +0.247 C 
ATOM     13  C   UNL     1     -35.444  32.159  -0.345  0.00  0.00    +0.013 C 
ATOM     14  C   UNL     1     -37.055  32.364   1.569  0.00  0.00    +0.013 C 
BRANCH  10  16
ATOM     15  OXT UNL     1     -33.732  33.313   2.416  0.00  0.00    -0.248 OA
ATOM     16  C   UNL     1     -33.686  32.167   1.992  0.00  0.00    +0.333 C 
BRANCH  16  17
ATOM     17  O   UNL     1     -32.579  31.595   1.460  0.00  0.00    -0.479 OA
ATOM     18  H   UNL     1     -32.291  30.758   1.766  0.00  0.00    +0.295 HD
ENDBRANCH  16  17
ENDBRANCH  10  16
ENDBRANCH   2  11
BRANCH   3  21
ATOM     19  O   UNL     1     -39.991  25.357   2.677  0.00  0.00    -0.358 OA
ATOM     20  N   UNL     1     -39.249  24.573   3.553  0.00  0.00    -0.077 NA
ATOM     21  C   UNL     1     -37.882  25.692   2.173  0.00  0.00    +0.107 A 
ATOM     22  C   UNL     1     -37.975  24.797   3.222  0.00  0.00    +0.130 A 
ATOM     23  C   UNL     1     -39.148  26.026   1.850  0.00  0.00    +0.159 A 
ATOM     24  C   UNL     1     -39.775  26.906   0.856  0.00  0.00    +0.076 C 
BRANCH  22  27
ATOM     25 CL   UNL     1     -37.294  21.917   2.379  0.00  0.00    -0.082 Cl
ATOM     26  F   UNL     1     -36.619  26.093   5.261  0.00  0.00    -0.204 F 
ATOM     27  C   UNL     1     -36.912  24.137   3.935  0.00  0.00    +0.059 C 
ATOM     28  C   UNL     1     -36.527  22.832   3.631  0.00  0.00    +0.061 C 
ATOM     29  C   UNL     1     -36.263  24.837   4.953  0.00  0.00    +0.142 C 
ATOM     30  C   UNL     1     -35.492  22.226   4.343  0.00  0.00    +0.012 C 
ATOM     31  C   UNL     1     -35.229  24.230   5.666  0.00  0.00    +0.030 C 
ATOM     32  C   UNL     1     -34.843  22.925   5.361  0.00  0.00    +0.003 C 
ENDBRANCH  22  27
ENDBRANCH   3  21
TORSDOF 5
ENDMDL
MODEL 8
REMARK VINA RESULT:      -6.1      2.908      3.642
REMARK  Name = 21319
REMARK  5 active torsions:
REMARK  status: ('A' for Active; 'I' for Inactive)
REMARK    1  A    between atoms: N_2  and  CA_11
REMARK    2  A    between atoms: C_3  and  C_21
REMARK    3  A    between atoms: CA_10  and  C_16
REMARK    4  A    between atoms: C_16  and  O_17
REMARK    5  A    between atoms: C_22  and  C_27
REMARK                            x       y       z     vdW  Elec       q    Type
REMARK                         _______ _______ _______ _____ _____    ______ ____
ROOT
ATOM      1  O   UNL     1     -36.367  23.378   4.659  0.00  0.00    -0.270 OA
ATOM      2  N   UNL     1     -35.094  24.428   3.050  0.00  0.00    -0.293 N 
ATOM      3  C   UNL     1     -36.164  23.629   3.472  0.00  0.00    +0.251 C 
ATOM      4  H   UNL     1     -34.981  24.595   2.086  0.00  0.00    +0.150 HD
ENDROOT
BRANCH   2  11
ATOM      5  S   UNL     1     -33.097  26.266   1.613  0.00  0.00    -0.118 S 
ATOM      6  O   UNL     1     -35.586  26.727   5.220  0.00  0.00    -0.273 OA
ATOM      7  N   UNL     1     -33.557  27.023   4.051  0.00  0.00    -0.260 N 
ATOM      8  C   UNL     1     -32.980  25.848   3.391  0.00  0.00    +0.151 C 
ATOM      9  C   UNL     1     -32.889  28.079   1.986  0.00  0.00    +0.068 C 
ATOM     10  CA  UNL     1     -33.651  28.268   3.316  0.00  0.00    +0.184 C 
ATOM     11  CA  UNL     1     -34.134  25.029   3.987  0.00  0.00    +0.178 C 
ATOM     12  C   UNL     1     -34.610  26.357   4.608  0.00  0.00    +0.247 C 
ATOM     13  C   UNL     1     -31.385  28.374   2.066  0.00  0.00    +0.013 C 
ATOM     14  C   UNL     1     -33.523  28.894   0.858  0.00  0.00    +0.013 C 
BRANCH  10  16
ATOM     15  OXT UNL     1     -33.263  30.547   4.011  0.00  0.00    -0.248 OA
ATOM     16  C   UNL     1     -33.124  29.348   4.205  0.00  0.00    +0.333 C 
BRANCH  16  17
ATOM     17  O   UNL     1     -32.465  28.818   5.265  0.00  0.00    -0.479 OA
ATOM     18  H   UNL     1     -31.538  28.921   5.338  0.00  0.00    +0.295 HD
ENDBRANCH  16  17
ENDBRANCH  10  16
ENDBRANCH   2  11
BRANCH   3  21
ATOM     19  O   UNL     1     -38.852  22.829   1.192  0.00  0.00    -0.358 OA
ATOM     20  N   UNL     1     -37.864  22.019   0.645  0.00  0.00    -0.077 NA
ATOM     21  C   UNL     1     -37.055  23.127   2.418  0.00  0.00    +0.107 A 
ATOM     22  C   UNL     1     -36.787  22.222   1.409  0.00  0.00    +0.130 A 
ATOM     23  C   UNL     1     -38.344  23.491   2.264  0.00  0.00    +0.159 A 
ATOM     24  C   UNL     1     -39.266  24.396   2.963  0.00  0.00    +0.076 C 
BRANCH  22  27
ATOM     25 CL   UNL     1     -34.816  23.596  -0.514  0.00  0.00    -0.082 Cl
ATOM     26  F   UNL     1     -36.244  19.763   2.564  0.00  0.00    -0.204 F 
ATOM     27  C   UNL     1     -35.556  21.531   1.126  0.00  0.00    +0.059 C 
ATOM     28  C   UNL     1     -34.596  22.068   0.268  0.00  0.00    +0.061 C 
ATOM     29  C   UNL     1     -35.334  20.296   1.735  0.00  0.00    +0.142 C 
ATOM     30  C   UNL     1     -33.414  21.371   0.020  0.00  0.00    +0.012 C 
ATOM     31  C   UNL     1     -34.152  19.598   1.486  0.00  0.00    +0.030 C 
ATOM     32  C   UNL     1     -33.192  20.135   0.629  0.00  0.00    +0.003 C 
ENDBRANCH  22  27
ENDBRANCH   3  21
TORSDOF 5
ENDMDL
MODEL 9
REMARK VINA RESULT:      -5.9      3.494      7.747
REMARK  Name = 21319
REMARK  5 active torsions:
REMARK  status: ('A' for Active; 'I' for Inactive)
REMARK    1  A    between atoms: N_2  and  CA_11
REMARK    2  A    between atoms: C_3  and  C_21
REMARK    3  A    between atoms: CA_10  and  C_16
REMARK    4  A    between atoms: C_16  and  O_17
REMARK    5  A    between atoms: C_22  and  C_27
REMARK                            x       y       z     vdW  Elec       q    Type
REMARK                         _______ _______ _______ _____ _____    ______ ____
ROOT
ATOM      1  O   UNL     1     -33.313  28.446   4.499  0.00  0.00    -0.270 OA
ATOM      2  N   UNL     1     -34.559  27.134   3.072  0.00  0.00    -0.293 N 
ATOM      3  C   UNL     1     -33.591  28.107   3.350  0.00  0.00    +0.251 C 
ATOM      4  H   UNL     1     -34.740  26.903   2.132  0.00  0.00    +0.150 HD
ENDROOT
BRANCH   2  11
ATOM      5  S   UNL     1     -36.330  24.903   1.927  0.00  0.00    -0.118 S 
ATOM      6  O   UNL     1     -33.492  25.091   5.291  0.00  0.00    -0.273 OA
ATOM      7  N   UNL     1     -35.535  24.389   4.341  0.00  0.00    -0.260 N 
ATOM      8  C   UNL     1     -36.360  25.408   3.685  0.00  0.00    +0.151 C 
ATOM      9  C   UNL     1     -36.192  23.108   2.404  0.00  0.00    +0.068 C 
ATOM     10  CA  UNL     1     -35.295  23.133   3.660  0.00  0.00    +0.184 C 
ATOM     11  CA  UNL     1     -35.316  26.443   4.126  0.00  0.00    +0.178 C 
ATOM     12  C   UNL     1     -34.566  25.255   4.760  0.00  0.00    +0.247 C 
ATOM     13  C   UNL     1     -37.611  22.574   2.644  0.00  0.00    +0.013 C 
ATOM     14  C   UNL     1     -35.530  22.339   1.259  0.00  0.00    +0.013 C 
BRANCH  10  16
ATOM     15  OXT UNL     1     -35.158  20.886   4.533  0.00  0.00    -0.248 OA
ATOM     16  C   UNL     1     -35.548  22.039   4.647  0.00  0.00    +0.333 C 
BRANCH  16  17
ATOM     17  O   UNL     1     -36.277  22.497   5.695  0.00  0.00    -0.479 OA
ATOM     18  H   UNL     1     -37.206  22.381   5.705  0.00  0.00    +0.295 HD
ENDBRANCH  16  17
ENDBRANCH  10  16
ENDBRANCH   2  11
BRANCH   3  21
ATOM     19  O   UNL     1     -31.334  29.100   0.708  0.00  0.00    -0.358 OA
ATOM     20  N   UNL     1     -32.422  29.892   0.363  0.00  0.00    -0.077 NA
ATOM     21  C   UNL     1     -32.898  28.685   2.191  0.00  0.00    +0.107 A 
ATOM     22  C   UNL     1     -33.354  29.618   1.280  0.00  0.00    +0.130 A 
ATOM     23  C   UNL     1     -31.640  28.377   1.816  0.00  0.00    +0.159 A 
ATOM     24  C   UNL     1     -30.589  27.480   2.317  0.00  0.00    +0.076 C 
BRANCH  22  27
ATOM     25 CL   UNL     1     -33.567  32.394   2.590  0.00  0.00    -0.082 Cl
ATOM     26  F   UNL     1     -35.517  28.402   0.048  0.00  0.00    -0.204 F 
ATOM     27  C   UNL     1     -34.636  30.271   1.230  0.00  0.00    +0.059 C 
ATOM     28  C   UNL     1     -34.838  31.531   1.794  0.00  0.00    +0.061 C 
ATOM     29  C   UNL     1     -35.691  29.613   0.597  0.00  0.00    +0.142 C 
ATOM     30  C   UNL     1     -36.094  32.133   1.725  0.00  0.00    +0.012 C 
ATOM     31  C   UNL     1     -36.948  30.216   0.529  0.00  0.00    +0.030 C 
ATOM     32  C   UNL     1     -37.149  31.476   1.092  0.00  0.00    +0.003 C 
ENDBRANCH  22  27
ENDBRANCH   3  21
TORSDOF 5
ENDMDL
