MODEL 1
REMARK VINA RESULT:      -5.5      0.000      0.000
REMARK  Name = 53786440
REMARK  5 active torsions:
REMARK  status: ('A' for Active; 'I' for Inactive)
REMARK    1  A    between atoms: N_3  and  C1*_11
REMARK    2  A    between atoms: N_4  and  N_20
REMARK    3  A    between atoms: C3*_12  and  O3*_15
REMARK    4  A    between atoms: C4*_14  and  C5*_17
REMARK    5  A    between atoms: C5*_17  and  O5*_18
REMARK                            x       y       z     vdW  Elec       q    Type
REMARK                         _______ _______ _______ _____ _____    ______ ____
ROOT
ATOM      1  O   UNL     1     -34.938  23.430   6.253  0.00  0.00    -0.250 OA
ATOM      2  O   UNL     1     -35.749  20.267   2.928  0.00  0.00    -0.268 OA
ATOM      3  N   UNL     1     -34.815  24.063   4.018  0.00  0.00    -0.218 N 
ATOM      4  N   UNL     1     -35.345  21.841   4.604  0.00  0.00    -0.155 N 
ATOM      5  C   UNL     1     -34.919  23.707   2.689  0.00  0.00    +0.071 C 
ATOM      6  C   UNL     1     -35.024  23.139   5.057  0.00  0.00    +0.332 C 
ATOM      7  C   UNL     1     -35.223  22.474   2.268  0.00  0.00    +0.048 C 
ATOM      8  C   UNL     1     -35.467  21.411   3.280  0.00  0.00    +0.266 C 
ATOM      9  C   UNL     1     -35.332  22.104   0.822  0.00  0.00    +0.037 C 
ENDROOT
BRANCH   3  11
ATOM     10  O4* UNL     1     -35.657  26.240   4.197  0.00  0.00    -0.335 OA
ATOM     11  C1* UNL     1     -34.481  25.425   4.315  0.00  0.00    +0.202 C 
ATOM     12  C3* UNL     1     -33.835  27.451   3.283  0.00  0.00    +0.144 C 
ATOM     13  C2* UNL     1     -33.437  25.996   3.369  0.00  0.00    +0.083 C 
ATOM     14  C4* UNL     1     -35.352  27.402   3.402  0.00  0.00    +0.173 C 
BRANCH  12  15
ATOM     15  O3* UNL     1     -33.284  28.166   4.387  0.00  0.00    -0.382 OA
ATOM     16  H3* UNL     1     -33.714  29.032   4.458  0.00  0.00    +0.210 HD
ENDBRANCH  12  15
BRANCH  14  17
ATOM     17  C5* UNL     1     -36.047  27.245   2.056  0.00  0.00    +0.169 C 
BRANCH  17  18
ATOM     18  O5* UNL     1     -37.435  27.057   2.275  0.00  0.00    -0.379 OA
ATOM     19  H5* UNL     1     -37.756  27.721   2.903  0.00  0.00    +0.211 HD
ENDBRANCH  17  18
ENDBRANCH  14  17
ENDBRANCH   3  11
BRANCH   4  20
ATOM     20  N   UNL     1     -35.566  20.877   5.592  0.00  0.00    -0.243 NA
ATOM     21  H   UNL     1     -35.085  20.018   5.560  0.00  0.00    +0.141 HD
ATOM     22  H   UNL     1     -36.204  21.057   6.321  0.00  0.00    +0.141 HD
ENDBRANCH   4  20
TORSDOF 5
ENDMDL
MODEL 2
REMARK VINA RESULT:      -5.4      2.627      3.460
REMARK  Name = 53786440
REMARK  5 active torsions:
REMARK  status: ('A' for Active; 'I' for Inactive)
REMARK    1  A    between atoms: N_3  and  C1*_11
REMARK    2  A    between atoms: N_4  and  N_20
REMARK    3  A    between atoms: C3*_12  and  O3*_15
REMARK    4  A    between atoms: C4*_14  and  C5*_17
REMARK    5  A    between atoms: C5*_17  and  O5*_18
REMARK                            x       y       z     vdW  Elec       q    Type
REMARK                         _______ _______ _______ _____ _____    ______ ____
ROOT
ATOM      1  O   UNL     1     -39.367  23.233   2.484  0.00  0.00    -0.250 OA
ATOM      2  O   UNL     1     -37.058  19.470   0.992  0.00  0.00    -0.268 OA
ATOM      3  N   UNL     1     -37.090  23.042   2.918  0.00  0.00    -0.218 N 
ATOM      4  N   UNL     1     -38.227  21.349   1.734  0.00  0.00    -0.155 N 
ATOM      5  C   UNL     1     -35.928  22.308   2.795  0.00  0.00    +0.071 C 
ATOM      6  C   UNL     1     -38.314  22.597   2.389  0.00  0.00    +0.332 C 
ATOM      7  C   UNL     1     -35.854  21.125   2.172  0.00  0.00    +0.048 C 
ATOM      8  C   UNL     1     -37.090  20.554   1.571  0.00  0.00    +0.266 C 
ATOM      9  C   UNL     1     -34.587  20.341   2.047  0.00  0.00    +0.037 C 
ENDROOT
BRANCH   3  11
ATOM     10  O4* UNL     1     -36.409  25.276   2.759  0.00  0.00    -0.335 OA
ATOM     11  C1* UNL     1     -37.011  24.293   3.614  0.00  0.00    +0.202 C 
ATOM     12  C3* UNL     1     -35.558  25.593   4.949  0.00  0.00    +0.144 C 
ATOM     13  C2* UNL     1     -36.169  24.213   4.877  0.00  0.00    +0.083 C 
ATOM     14  C4* UNL     1     -35.374  25.966   3.484  0.00  0.00    +0.173 C 
BRANCH  12  15
ATOM     15  O3* UNL     1     -36.474  26.494   5.568  0.00  0.00    -0.382 OA
ATOM     16  H3* UNL     1     -36.016  26.998   6.257  0.00  0.00    +0.210 HD
ENDBRANCH  12  15
BRANCH  14  17
ATOM     17  C5* UNL     1     -34.031  25.518   2.923  0.00  0.00    +0.169 C 
BRANCH  17  18
ATOM     18  O5* UNL     1     -33.049  25.628   3.941  0.00  0.00    -0.379 OA
ATOM     19  H5* UNL     1     -33.073  24.836   4.499  0.00  0.00    +0.211 HD
ENDBRANCH  17  18
ENDBRANCH  14  17
ENDBRANCH   3  11
BRANCH   4  20
ATOM     20  N   UNL     1     -39.414  20.855   1.185  0.00  0.00    -0.243 NA
ATOM     21  H   UNL     1     -40.105  21.478   0.861  0.00  0.00    +0.141 HD
ATOM     22  H   UNL     1     -39.559  19.883   1.121  0.00  0.00    +0.141 HD
ENDBRANCH   4  20
TORSDOF 5
ENDMDL
MODEL 3
REMARK VINA RESULT:      -5.4      2.900      3.707
REMARK  Name = 53786440
REMARK  5 active torsions:
REMARK  status: ('A' for Active; 'I' for Inactive)
REMARK    1  A    between atoms: N_3  and  C1*_11
REMARK    2  A    between atoms: N_4  and  N_20
REMARK    3  A    between atoms: C3*_12  and  O3*_15
REMARK    4  A    between atoms: C4*_14  and  C5*_17
REMARK    5  A    between atoms: C5*_17  and  O5*_18
REMARK                            x       y       z     vdW  Elec       q    Type
REMARK                         _______ _______ _______ _____ _____    ______ ____
ROOT
ATOM      1  O   UNL     1     -35.116  20.083   2.534  0.00  0.00    -0.250 OA
ATOM      2  O   UNL     1     -39.046  20.022   0.030  0.00  0.00    -0.268 OA
ATOM      3  N   UNL     1     -36.547  21.915   2.608  0.00  0.00    -0.218 N 
ATOM      4  N   UNL     1     -37.074  20.039   1.279  0.00  0.00    -0.155 N 
ATOM      5  C   UNL     1     -37.720  22.508   2.185  0.00  0.00    +0.071 C 
ATOM      6  C   UNL     1     -36.158  20.636   2.172  0.00  0.00    +0.332 C 
ATOM      7  C   UNL     1     -38.583  21.935   1.337  0.00  0.00    +0.048 C 
ATOM      8  C   UNL     1     -38.275  20.578   0.810  0.00  0.00    +0.266 C 
ATOM      9  C   UNL     1     -39.850  22.591   0.889  0.00  0.00    +0.037 C 
ENDROOT
BRANCH   3  11
ATOM     10  O4* UNL     1     -36.557  23.346   4.459  0.00  0.00    -0.335 OA
ATOM     11  C1* UNL     1     -35.723  22.654   3.518  0.00  0.00    +0.202 C 
ATOM     12  C3* UNL     1     -34.777  24.793   3.858  0.00  0.00    +0.144 C 
ATOM     13  C2* UNL     1     -34.863  23.696   2.822  0.00  0.00    +0.083 C 
ATOM     14  C4* UNL     1     -36.131  24.719   4.552  0.00  0.00    +0.173 C 
BRANCH  12  15
ATOM     15  O3* UNL     1     -33.738  24.497   4.788  0.00  0.00    -0.382 OA
ATOM     16  H3* UNL     1     -33.291  25.318   5.045  0.00  0.00    +0.210 HD
ENDBRANCH  12  15
BRANCH  14  17
ATOM     17  C5* UNL     1     -37.189  25.584   3.879  0.00  0.00    +0.169 C 
BRANCH  17  18
ATOM     18  O5* UNL     1     -38.473  25.091   4.226  0.00  0.00    -0.379 OA
ATOM     19  H5* UNL     1     -38.434  24.128   4.325  0.00  0.00    +0.211 HD
ENDBRANCH  17  18
ENDBRANCH  14  17
ENDBRANCH   3  11
BRANCH   4  20
ATOM     20  N   UNL     1     -36.742  18.764   0.811  0.00  0.00    -0.243 NA
ATOM     21  H   UNL     1     -37.395  18.245   0.288  0.00  0.00    +0.141 HD
ATOM     22  H   UNL     1     -35.854  18.384   1.006  0.00  0.00    +0.141 HD
ENDBRANCH   4  20
TORSDOF 5
ENDMDL
MODEL 4
REMARK VINA RESULT:      -5.4      3.182      4.580
REMARK  Name = 53786440
REMARK  5 active torsions:
REMARK  status: ('A' for Active; 'I' for Inactive)
REMARK    1  A    between atoms: N_3  and  C1*_11
REMARK    2  A    between atoms: N_4  and  N_20
REMARK    3  A    between atoms: C3*_12  and  O3*_15
REMARK    4  A    between atoms: C4*_14  and  C5*_17
REMARK    5  A    between atoms: C5*_17  and  O5*_18
REMARK                            x       y       z     vdW  Elec       q    Type
REMARK                         _______ _______ _______ _____ _____    ______ ____
ROOT
ATOM      1  O   UNL     1     -36.493  21.681   2.785  0.00  0.00    -0.250 OA
ATOM      2  O   UNL     1     -40.800  22.982   1.572  0.00  0.00    -0.268 OA
ATOM      3  N   UNL     1     -37.178  23.870   3.173  0.00  0.00    -0.218 N 
ATOM      4  N   UNL     1     -38.645  22.317   2.174  0.00  0.00    -0.155 N 
ATOM      5  C   UNL     1     -38.173  24.823   3.084  0.00  0.00    +0.071 C 
ATOM      6  C   UNL     1     -37.363  22.552   2.717  0.00  0.00    +0.332 C 
ATOM      7  C   UNL     1     -39.385  24.591   2.567  0.00  0.00    +0.048 C 
ATOM      8  C   UNL     1     -39.696  23.229   2.053  0.00  0.00    +0.266 C 
ATOM      9  C   UNL     1     -40.453  25.635   2.478  0.00  0.00    +0.037 C 
ENDROOT
BRANCH   3  11
ATOM     10  O4* UNL     1     -35.162  23.101   4.079  0.00  0.00    -0.335 OA
ATOM     11  C1* UNL     1     -35.929  24.269   3.752  0.00  0.00    +0.202 C 
ATOM     12  C3* UNL     1     -34.885  24.671   5.834  0.00  0.00    +0.144 C 
ATOM     13  C2* UNL     1     -36.101  25.071   5.031  0.00  0.00    +0.083 C 
ATOM     14  C4* UNL     1     -34.664  23.221   5.425  0.00  0.00    +0.173 C 
BRANCH  12  15
ATOM     15  O3* UNL     1     -33.767  25.463   5.439  0.00  0.00    -0.382 OA
ATOM     16  H3* UNL     1     -34.060  26.369   5.259  0.00  0.00    +0.210 HD
ENDBRANCH  12  15
BRANCH  14  17
ATOM     17  C5* UNL     1     -35.431  22.236   6.298  0.00  0.00    +0.169 C 
BRANCH  17  18
ATOM     18  O5* UNL     1     -35.451  20.972   5.656  0.00  0.00    -0.379 OA
ATOM     19  H5* UNL     1     -34.845  20.368   6.111  0.00  0.00    +0.211 HD
ENDBRANCH  17  18
ENDBRANCH  14  17
ENDBRANCH   3  11
BRANCH   4  20
ATOM     20  N   UNL     1     -38.890  21.023   1.705  0.00  0.00    -0.243 NA
ATOM     21  H   UNL     1     -39.809  20.668   1.693  0.00  0.00    +0.141 HD
ATOM     22  H   UNL     1     -38.144  20.465   1.386  0.00  0.00    +0.141 HD
ENDBRANCH   4  20
TORSDOF 5
ENDMDL
MODEL 5
REMARK VINA RESULT:      -5.3      2.486      5.584
REMARK  Name = 53786440
REMARK  5 active torsions:
REMARK  status: ('A' for Active; 'I' for Inactive)
REMARK    1  A    between atoms: N_3  and  C1*_11
REMARK    2  A    between atoms: N_4  and  N_20
REMARK    3  A    between atoms: C3*_12  and  O3*_15
REMARK    4  A    between atoms: C4*_14  and  C5*_17
REMARK    5  A    between atoms: C5*_17  and  O5*_18
REMARK                            x       y       z     vdW  Elec       q    Type
REMARK                         _______ _______ _______ _____ _____    ______ ____
ROOT
ATOM      1  O   UNL     1     -37.386  26.217   2.491  0.00  0.00    -0.250 OA
ATOM      2  O   UNL     1     -34.526  25.293   6.052  0.00  0.00    -0.268 OA
ATOM      3  N   UNL     1     -37.054  24.011   3.148  0.00  0.00    -0.218 N 
ATOM      4  N   UNL     1     -35.955  25.770   4.270  0.00  0.00    -0.155 N 
ATOM      5  C   UNL     1     -36.434  23.119   4.000  0.00  0.00    +0.071 C 
ATOM      6  C   UNL     1     -36.845  25.398   3.238  0.00  0.00    +0.332 C 
ATOM      7  C   UNL     1     -35.592  23.480   4.975  0.00  0.00    +0.048 C 
ATOM      8  C   UNL     1     -35.295  24.926   5.166  0.00  0.00    +0.266 C 
ATOM      9  C   UNL     1     -34.928  22.501   5.890  0.00  0.00    +0.037 C 
ENDROOT
BRANCH   3  11
ATOM     10  O4* UNL     1     -38.220  22.101   2.461  0.00  0.00    -0.335 OA
ATOM     11  C1* UNL     1     -37.932  23.472   2.150  0.00  0.00    +0.202 C 
ATOM     12  C3* UNL     1     -37.923  22.271   0.115  0.00  0.00    +0.144 C 
ATOM     13  C2* UNL     1     -37.329  23.504   0.756  0.00  0.00    +0.083 C 
ATOM     14  C4* UNL     1     -38.036  21.297   1.280  0.00  0.00    +0.173 C 
BRANCH  12  15
ATOM     15  O3* UNL     1     -39.220  22.571  -0.394  0.00  0.00    -0.382 OA
ATOM     16  H3* UNL     1     -39.333  23.533  -0.445  0.00  0.00    +0.210 HD
ENDBRANCH  12  15
BRANCH  14  17
ATOM     17  C5* UNL     1     -36.779  20.459   1.475  0.00  0.00    +0.169 C 
BRANCH  17  18
ATOM     18  O5* UNL     1     -36.879  19.760   2.705  0.00  0.00    -0.379 OA
ATOM     19  H5* UNL     1     -36.842  20.391   3.439  0.00  0.00    +0.211 HD
ENDBRANCH  17  18
ENDBRANCH  14  17
ENDBRANCH   3  11
BRANCH   4  20
ATOM     20  N   UNL     1     -35.709  27.139   4.411  0.00  0.00    -0.243 NA
ATOM     21  H   UNL     1     -36.102  27.779   3.773  0.00  0.00    +0.141 HD
ATOM     22  H   UNL     1     -35.142  27.464   5.148  0.00  0.00    +0.141 HD
ENDBRANCH   4  20
TORSDOF 5
ENDMDL
MODEL 6
REMARK VINA RESULT:      -5.3      2.618      3.357
REMARK  Name = 53786440
REMARK  5 active torsions:
REMARK  status: ('A' for Active; 'I' for Inactive)
REMARK    1  A    between atoms: N_3  and  C1*_11
REMARK    2  A    between atoms: N_4  and  N_20
REMARK    3  A    between atoms: C3*_12  and  O3*_15
REMARK    4  A    between atoms: C4*_14  and  C5*_17
REMARK    5  A    between atoms: C5*_17  and  O5*_18
REMARK                            x       y       z     vdW  Elec       q    Type
REMARK                         _______ _______ _______ _____ _____    ______ ____
ROOT
ATOM      1  O   UNL     1     -34.908  20.854   2.298  0.00  0.00    -0.250 OA
ATOM      2  O   UNL     1     -39.490  20.895   1.444  0.00  0.00    -0.268 OA
ATOM      3  N   UNL     1     -36.132  22.789   2.711  0.00  0.00    -0.218 N 
ATOM      4  N   UNL     1     -37.194  20.860   1.867  0.00  0.00    -0.155 N 
ATOM      5  C   UNL     1     -37.352  23.434   2.694  0.00  0.00    +0.071 C 
ATOM      6  C   UNL     1     -35.986  21.454   2.293  0.00  0.00    +0.332 C 
ATOM      7  C   UNL     1     -38.492  22.864   2.288  0.00  0.00    +0.048 C 
ATOM      8  C   UNL     1     -38.460  21.450   1.823  0.00  0.00    +0.266 C 
ATOM      9  C   UNL     1     -39.807  23.576   2.276  0.00  0.00    +0.037 C 
ENDROOT
BRANCH   3  11
ATOM     10  O4* UNL     1     -35.011  23.580   4.607  0.00  0.00    -0.335 OA
ATOM     11  C1* UNL     1     -34.996  23.533   3.173  0.00  0.00    +0.202 C 
ATOM     12  C3* UNL     1     -34.330  25.708   3.814  0.00  0.00    +0.144 C 
ATOM     13  C2* UNL     1     -34.988  24.968   2.673  0.00  0.00    +0.083 C 
ATOM     14  C4* UNL     1     -34.800  24.937   5.041  0.00  0.00    +0.173 C 
BRANCH  12  15
ATOM     15  O3* UNL     1     -32.913  25.614   3.695  0.00  0.00    -0.382 OA
ATOM     16  H3* UNL     1     -32.678  25.426   2.773  0.00  0.00    +0.210 HD
ENDBRANCH  12  15
BRANCH  14  17
ATOM     17  C5* UNL     1     -36.115  25.460   5.602  0.00  0.00    +0.169 C 
BRANCH  17  18
ATOM     18  O5* UNL     1     -36.303  26.795   5.162  0.00  0.00    -0.379 OA
ATOM     19  H5* UNL     1     -35.498  27.307   5.331  0.00  0.00    +0.211 HD
ENDBRANCH  17  18
ENDBRANCH  14  17
ENDBRANCH   3  11
BRANCH   4  20
ATOM     20  N   UNL     1     -37.114  19.531   1.440  0.00  0.00    -0.243 NA
ATOM     21  H   UNL     1     -36.465  18.919   1.857  0.00  0.00    +0.141 HD
ATOM     22  H   UNL     1     -37.706  19.208   0.723  0.00  0.00    +0.141 HD
ENDBRANCH   4  20
TORSDOF 5
ENDMDL
MODEL 7
REMARK VINA RESULT:      -5.3      2.364      5.963
REMARK  Name = 53786440
REMARK  5 active torsions:
REMARK  status: ('A' for Active; 'I' for Inactive)
REMARK    1  A    between atoms: N_3  and  C1*_11
REMARK    2  A    between atoms: N_4  and  N_20
REMARK    3  A    between atoms: C3*_12  and  O3*_15
REMARK    4  A    between atoms: C4*_14  and  C5*_17
REMARK    5  A    between atoms: C5*_17  and  O5*_18
REMARK                            x       y       z     vdW  Elec       q    Type
REMARK                         _______ _______ _______ _____ _____    ______ ____
ROOT
ATOM      1  O   UNL     1     -35.202  26.696   2.101  0.00  0.00    -0.250 OA
ATOM      2  O   UNL     1     -32.092  28.706   4.931  0.00  0.00    -0.268 OA
ATOM      3  N   UNL     1     -34.943  25.894   4.269  0.00  0.00    -0.218 N 
ATOM      4  N   UNL     1     -33.646  27.709   3.503  0.00  0.00    -0.155 N 
ATOM      5  C   UNL     1     -34.303  25.988   5.488  0.00  0.00    +0.071 C 
ATOM      6  C   UNL     1     -34.645  26.758   3.200  0.00  0.00    +0.332 C 
ATOM      7  C   UNL     1     -33.356  26.892   5.766  0.00  0.00    +0.048 C 
ATOM      8  C   UNL     1     -32.958  27.862   4.709  0.00  0.00    +0.266 C 
ATOM      9  C   UNL     1     -32.672  26.982   7.093  0.00  0.00    +0.037 C 
ENDROOT
BRANCH   3  11
ATOM     10  O4* UNL     1     -36.177  24.254   5.394  0.00  0.00    -0.335 OA
ATOM     11  C1* UNL     1     -35.937  24.871   4.121  0.00  0.00    +0.202 C 
ATOM     12  C3* UNL     1     -36.180  22.551   3.744  0.00  0.00    +0.144 C 
ATOM     13  C2* UNL     1     -35.515  23.775   3.157  0.00  0.00    +0.083 C 
ATOM     14  C4* UNL     1     -36.140  22.823   5.242  0.00  0.00    +0.173 C 
BRANCH  12  15
ATOM     15  O3* UNL     1     -37.533  22.478   3.300  0.00  0.00    -0.382 OA
ATOM     16  H3* UNL     1     -38.034  21.891   3.886  0.00  0.00    +0.210 HD
ENDBRANCH  12  15
BRANCH  14  17
ATOM     17  C5* UNL     1     -34.865  22.314   5.902  0.00  0.00    +0.169 C 
BRANCH  17  18
ATOM     18  O5* UNL     1     -34.845  20.898   5.834  0.00  0.00    -0.379 OA
ATOM     19  H5* UNL     1     -35.347  20.531   6.578  0.00  0.00    +0.211 HD
ENDBRANCH  17  18
ENDBRANCH  14  17
ENDBRANCH   3  11
BRANCH   4  20
ATOM     20  N   UNL     1     -33.307  28.598   2.478  0.00  0.00    -0.243 NA
ATOM     21  H   UNL     1     -33.224  28.274   1.552  0.00  0.00    +0.141 HD
ATOM     22  H   UNL     1     -33.152  29.548   2.683  0.00  0.00    +0.141 HD
ENDBRANCH   4  20
TORSDOF 5
ENDMDL
MODEL 8
REMARK VINA RESULT:      -5.1      2.193      5.367
REMARK  Name = 53786440
REMARK  5 active torsions:
REMARK  status: ('A' for Active; 'I' for Inactive)
REMARK    1  A    between atoms: N_3  and  C1*_11
REMARK    2  A    between atoms: N_4  and  N_20
REMARK    3  A    between atoms: C3*_12  and  O3*_15
REMARK    4  A    between atoms: C4*_14  and  C5*_17
REMARK    5  A    between atoms: C5*_17  and  O5*_18
REMARK                            x       y       z     vdW  Elec       q    Type
REMARK                         _______ _______ _______ _____ _____    ______ ____
ROOT
ATOM      1  O   UNL     1     -35.977  23.959   5.688  0.00  0.00    -0.250 OA
ATOM      2  O   UNL     1     -32.694  26.608   3.704  0.00  0.00    -0.268 OA
ATOM      3  N   UNL     1     -35.475  23.663   3.436  0.00  0.00    -0.218 N 
ATOM      4  N   UNL     1     -34.336  25.288   4.711  0.00  0.00    -0.155 N 
ATOM      5  C   UNL     1     -34.724  24.038   2.340  0.00  0.00    +0.071 C 
ATOM      6  C   UNL     1     -35.320  24.275   4.693  0.00  0.00    +0.332 C 
ATOM      7  C   UNL     1     -33.795  25.000   2.366  0.00  0.00    +0.048 C 
ATOM      8  C   UNL     1     -33.542  25.718   3.645  0.00  0.00    +0.266 C 
ATOM      9  C   UNL     1     -32.989  25.395   1.169  0.00  0.00    +0.037 C 
ENDROOT
BRANCH   3  11
ATOM     10  O4* UNL     1     -35.785  21.344   3.402  0.00  0.00    -0.335 OA
ATOM     11  C1* UNL     1     -36.435  22.614   3.253  0.00  0.00    +0.202 C 
ATOM     12  C3* UNL     1     -37.324  21.170   1.607  0.00  0.00    +0.144 C 
ATOM     13  C2* UNL     1     -37.077  22.636   1.875  0.00  0.00    +0.083 C 
ATOM     14  C4* UNL     1     -36.152  20.490   2.302  0.00  0.00    +0.173 C 
BRANCH  12  15
ATOM     15  O3* UNL     1     -38.549  20.769   2.216  0.00  0.00    -0.382 OA
ATOM     16  H3* UNL     1     -39.175  21.510   2.201  0.00  0.00    +0.210 HD
ENDBRANCH  12  15
BRANCH  14  17
ATOM     17  C5* UNL     1     -34.935  20.339   1.400  0.00  0.00    +0.169 C 
BRANCH  17  18
ATOM     18  O5* UNL     1     -34.104  19.313   1.917  0.00  0.00    -0.379 OA
ATOM     19  H5* UNL     1     -33.185  19.621   1.938  0.00  0.00    +0.211 HD
ENDBRANCH  17  18
ENDBRANCH  14  17
ENDBRANCH   3  11
BRANCH   4  20
ATOM     20  N   UNL     1     -34.135  25.933   5.935  0.00  0.00    -0.243 NA
ATOM     21  H   UNL     1     -34.907  26.202   6.483  0.00  0.00    +0.141 HD
ATOM     22  H   UNL     1     -33.220  26.118   6.248  0.00  0.00    +0.141 HD
ENDBRANCH   4  20
TORSDOF 5
ENDMDL
MODEL 9
REMARK VINA RESULT:      -5.1      3.172      4.913
REMARK  Name = 53786440
REMARK  5 active torsions:
REMARK  status: ('A' for Active; 'I' for Inactive)
REMARK    1  A    between atoms: N_3  and  C1*_11
REMARK    2  A    between atoms: N_4  and  N_20
REMARK    3  A    between atoms: C3*_12  and  O3*_15
REMARK    4  A    between atoms: C4*_14  and  C5*_17
REMARK    5  A    between atoms: C5*_17  and  O5*_18
REMARK                            x       y       z     vdW  Elec       q    Type
REMARK                         _______ _______ _______ _____ _____    ______ ____
ROOT
ATOM      1  O   UNL     1     -37.131  21.325   2.256  0.00  0.00    -0.250 OA
ATOM      2  O   UNL     1     -34.870  23.145   5.903  0.00  0.00    -0.268 OA
ATOM      3  N   UNL     1     -37.456  23.563   2.803  0.00  0.00    -0.218 N 
ATOM      4  N   UNL     1     -35.996  22.220   4.079  0.00  0.00    -0.155 N 
ATOM      5  C   UNL     1     -37.160  24.624   3.633  0.00  0.00    +0.071 C 
ATOM      6  C   UNL     1     -36.884  22.291   2.984  0.00  0.00    +0.332 C 
ATOM      7  C   UNL     1     -36.317  24.549   4.670  0.00  0.00    +0.048 C 
ATOM      8  C   UNL     1     -35.650  23.250   4.959  0.00  0.00    +0.266 C 
ATOM      9  C   UNL     1     -36.006  25.709   5.562  0.00  0.00    +0.037 C 
ENDROOT
BRANCH   3  11
ATOM     10  O4* UNL     1     -38.730  25.190   1.703  0.00  0.00    -0.335 OA
ATOM     11  C1* UNL     1     -38.380  23.798   1.732  0.00  0.00    +0.202 C 
ATOM     12  C3* UNL     1     -40.692  23.935   1.265  0.00  0.00    +0.144 C 
ATOM     13  C2* UNL     1     -39.670  23.010   1.883  0.00  0.00    +0.083 C 
ATOM     14  C4* UNL     1     -40.161  25.319   1.614  0.00  0.00    +0.173 C 
BRANCH  12  15
ATOM     15  O3* UNL     1     -40.704  23.762  -0.150  0.00  0.00    -0.382 OA
ATOM     16  H3* UNL     1     -41.057  22.885  -0.366  0.00  0.00    +0.210 HD
ENDBRANCH  12  15
BRANCH  14  17
ATOM     17  C5* UNL     1     -40.671  25.828   2.955  0.00  0.00    +0.169 C 
BRANCH  17  18
ATOM     18  O5* UNL     1     -39.700  26.695   3.517  0.00  0.00    -0.379 OA
ATOM     19  H5* UNL     1     -39.085  26.982   2.825  0.00  0.00    +0.211 HD
ENDBRANCH  17  18
ENDBRANCH  14  17
ENDBRANCH   3  11
BRANCH   4  20
ATOM     20  N   UNL     1     -35.394  20.980   4.309  0.00  0.00    -0.243 NA
ATOM     21  H   UNL     1     -34.468  20.935   4.640  0.00  0.00    +0.141 HD
ATOM     22  H   UNL     1     -35.897  20.150   4.140  0.00  0.00    +0.141 HD
ENDBRANCH   4  20
TORSDOF 5
ENDMDL
