MODEL 1
REMARK VINA RESULT:      -6.0      0.000      0.000
REMARK  Name = 189926
REMARK  3 active torsions:
REMARK  status: ('A' for Active; 'I' for Inactive)
REMARK    1  A    between atoms: N_1  and  C_13
REMARK    2  A    between atoms: C_13  and  C_18
REMARK    3  A    between atoms: P_14  and  O_21
REMARK                            x       y       z     vdW  Elec       q    Type
REMARK                         _______ _______ _______ _____ _____    ______ ____
ROOT
ATOM      1  N   UNL     1     -35.104  25.255   3.949  0.00  0.00    -0.269 N 
ATOM      2  N   UNL     1     -36.892  24.226   4.758  0.00  0.00    -0.242 NA
ATOM      3  N   UNL     1     -36.142  26.704   2.303  0.00  0.00    -0.228 NA
ATOM      4  N   UNL     1     -38.563  26.399   2.274  0.00  0.00    -0.229 NA
ATOM      5  C   UNL     1     -36.158  25.770   3.267  0.00  0.00    +0.151 C 
ATOM      6  C   UNL     1     -35.583  24.334   4.831  0.00  0.00    +0.221 C 
ATOM      7  C   UNL     1     -37.265  25.117   3.783  0.00  0.00    +0.140 C 
ATOM      8  C   UNL     1     -38.504  25.462   3.252  0.00  0.00    +0.143 C 
ATOM      9  C   UNL     1     -37.396  26.953   1.866  0.00  0.00    +0.253 C 
ATOM     10  N   UNL     1     -39.680  24.852   3.718  0.00  0.00    -0.342 N 
ATOM     11  H   UNL     1     -40.552  25.103   3.334  0.00  0.00    +0.144 HD
ATOM     12  H   UNL     1     -39.634  24.172   4.429  0.00  0.00    +0.144 HD
ENDROOT
BRANCH   1  13
ATOM     13  C   UNL     1     -33.703  25.615   3.777  0.00  0.00    +0.126 C 
BRANCH  13  18
ATOM     14  P   UNL     1     -31.603  28.597   6.270  0.00  0.00    +0.370 P 
ATOM     15  O   UNL     1     -32.057  27.317   4.066  0.00  0.00    -0.340 OA
ATOM     16  O   UNL     1     -32.943  27.813   6.726  0.00  0.00    -0.290 OA
ATOM     17  O   UNL     1     -31.410  29.940   6.911  0.00  0.00    -0.255 OA
ATOM     18  C   UNL     1     -33.337  26.880   4.540  0.00  0.00    +0.166 C 
ATOM     19  C   UNL     1     -33.264  26.607   6.039  0.00  0.00    +0.183 C 
ATOM     20  C   UNL     1     -31.735  28.636   4.500  0.00  0.00    +0.258 C 
BRANCH  14  21
ATOM     21  O   UNL     1     -30.412  27.541   6.554  0.00  0.00    -0.322 OA
ATOM     22  H   UNL     1     -29.579  28.022   6.686  0.00  0.00    +0.220 HD
ENDBRANCH  14  21
ENDBRANCH  13  18
ENDBRANCH   1  13
TORSDOF 3
ENDMDL
MODEL 2
REMARK VINA RESULT:      -6.0      4.903      5.867
REMARK  Name = 189926
REMARK  3 active torsions:
REMARK  status: ('A' for Active; 'I' for Inactive)
REMARK    1  A    between atoms: N_1  and  C_13
REMARK    2  A    between atoms: C_13  and  C_18
REMARK    3  A    between atoms: P_14  and  O_21
REMARK                            x       y       z     vdW  Elec       q    Type
REMARK                         _______ _______ _______ _____ _____    ______ ____
ROOT
ATOM      1  N   UNL     1     -36.754  21.589   2.282  0.00  0.00    -0.269 N 
ATOM      2  N   UNL     1     -35.370  19.878   2.030  0.00  0.00    -0.242 NA
ATOM      3  N   UNL     1     -38.451  21.023   0.643  0.00  0.00    -0.228 NA
ATOM      4  N   UNL     1     -37.905  18.933  -0.492  0.00  0.00    -0.229 NA
ATOM      5  C   UNL     1     -37.309  20.815   1.316  0.00  0.00    +0.151 C 
ATOM      6  C   UNL     1     -35.596  20.997   2.684  0.00  0.00    +0.221 C 
ATOM      7  C   UNL     1     -36.432  19.752   1.171  0.00  0.00    +0.140 C 
ATOM      8  C   UNL     1     -36.765  18.786   0.225  0.00  0.00    +0.143 C 
ATOM      9  C   UNL     1     -38.666  20.025  -0.243  0.00  0.00    +0.253 C 
ATOM     10  N   UNL     1     -35.934  17.673   0.013  0.00  0.00    -0.342 N 
ATOM     11  H   UNL     1     -36.179  16.996  -0.658  0.00  0.00    +0.144 HD
ATOM     12  H   UNL     1     -35.106  17.569   0.537  0.00  0.00    +0.144 HD
ENDROOT
BRANCH   1  13
ATOM     13  C   UNL     1     -37.294  22.837   2.806  0.00  0.00    +0.126 C 
BRANCH  13  18
ATOM     14  P   UNL     1     -35.227  25.927   5.193  0.00  0.00    +0.370 P 
ATOM     15  O   UNL     1     -36.514  23.702   4.888  0.00  0.00    -0.340 OA
ATOM     16  O   UNL     1     -35.217  25.870   3.576  0.00  0.00    -0.290 OA
ATOM     17  O   UNL     1     -34.034  26.599   5.807  0.00  0.00    -0.255 OA
ATOM     18  C   UNL     1     -36.227  23.685   3.484  0.00  0.00    +0.166 C 
ATOM     19  C   UNL     1     -36.240  25.110   2.940  0.00  0.00    +0.183 C 
ATOM     20  C   UNL     1     -35.437  24.227   5.659  0.00  0.00    +0.258 C 
BRANCH  14  21
ATOM     21  O   UNL     1     -36.644  26.615   5.556  0.00  0.00    -0.322 OA
ATOM     22  H   UNL     1     -36.945  27.151   4.805  0.00  0.00    +0.220 HD
ENDBRANCH  14  21
ENDBRANCH  13  18
ENDBRANCH   1  13
TORSDOF 3
ENDMDL
MODEL 3
REMARK VINA RESULT:      -5.9      2.041      3.664
REMARK  Name = 189926
REMARK  3 active torsions:
REMARK  status: ('A' for Active; 'I' for Inactive)
REMARK    1  A    between atoms: N_1  and  C_13
REMARK    2  A    between atoms: C_13  and  C_18
REMARK    3  A    between atoms: P_14  and  O_21
REMARK                            x       y       z     vdW  Elec       q    Type
REMARK                         _______ _______ _______ _____ _____    ______ ____
ROOT
ATOM      1  N   UNL     1     -35.491  24.858   3.884  0.00  0.00    -0.269 N 
ATOM      2  N   UNL     1     -35.868  23.414   2.246  0.00  0.00    -0.242 NA
ATOM      3  N   UNL     1     -35.086  23.332   5.727  0.00  0.00    -0.228 NA
ATOM      4  N   UNL     1     -35.265  21.011   4.994  0.00  0.00    -0.229 NA
ATOM      5  C   UNL     1     -35.371  23.630   4.450  0.00  0.00    +0.151 C 
ATOM      6  C   UNL     1     -35.789  24.688   2.567  0.00  0.00    +0.221 C 
ATOM      7  C   UNL     1     -35.610  22.741   3.414  0.00  0.00    +0.140 C 
ATOM      8  C   UNL     1     -35.548  21.385   3.722  0.00  0.00    +0.143 C 
ATOM      9  C   UNL     1     -35.055  21.992   5.903  0.00  0.00    +0.253 C 
ATOM     10  N   UNL     1     -35.774  20.414   2.733  0.00  0.00    -0.342 N 
ATOM     11  H   UNL     1     -35.728  19.457   2.962  0.00  0.00    +0.144 HD
ATOM     12  H   UNL     1     -35.980  20.689   1.810  0.00  0.00    +0.144 HD
ENDROOT
BRANCH   1  13
ATOM     13  C   UNL     1     -35.331  26.140   4.558  0.00  0.00    +0.126 C 
BRANCH  13  18
ATOM     14  P   UNL     1     -31.581  28.120   5.797  0.00  0.00    +0.370 P 
ATOM     15  O   UNL     1     -33.877  27.008   6.239  0.00  0.00    -0.340 OA
ATOM     16  O   UNL     1     -31.874  27.585   4.299  0.00  0.00    -0.290 OA
ATOM     17  O   UNL     1     -30.130  28.169   6.177  0.00  0.00    -0.255 OA
ATOM     18  C   UNL     1     -33.881  26.414   4.934  0.00  0.00    +0.166 C 
ATOM     19  C   UNL     1     -33.233  27.366   3.934  0.00  0.00    +0.183 C 
ATOM     20  C   UNL     1     -32.573  27.054   6.813  0.00  0.00    +0.258 C 
BRANCH  14  21
ATOM     21  O   UNL     1     -32.339  29.547   5.862  0.00  0.00    -0.322 OA
ATOM     22  H   UNL     1     -33.023  29.581   5.174  0.00  0.00    +0.220 HD
ENDBRANCH  14  21
ENDBRANCH  13  18
ENDBRANCH   1  13
TORSDOF 3
ENDMDL
MODEL 4
REMARK VINA RESULT:      -5.7      1.885      2.667
REMARK  Name = 189926
REMARK  3 active torsions:
REMARK  status: ('A' for Active; 'I' for Inactive)
REMARK    1  A    between atoms: N_1  and  C_13
REMARK    2  A    between atoms: C_13  and  C_18
REMARK    3  A    between atoms: P_14  and  O_21
REMARK                            x       y       z     vdW  Elec       q    Type
REMARK                         _______ _______ _______ _____ _____    ______ ____
ROOT
ATOM      1  N   UNL     1     -35.877  24.530   4.526  0.00  0.00    -0.269 N 
ATOM      2  N   UNL     1     -35.531  22.423   3.934  0.00  0.00    -0.242 NA
ATOM      3  N   UNL     1     -38.015  24.939   3.454  0.00  0.00    -0.228 NA
ATOM      4  N   UNL     1     -38.790  22.953   2.265  0.00  0.00    -0.229 NA
ATOM      5  C   UNL     1     -36.955  24.183   3.778  0.00  0.00    +0.151 C 
ATOM      6  C   UNL     1     -35.048  23.453   4.596  0.00  0.00    +0.221 C 
ATOM      7  C   UNL     1     -36.723  22.865   3.417  0.00  0.00    +0.140 C 
ATOM      8  C   UNL     1     -37.692  22.248   2.631  0.00  0.00    +0.143 C 
ATOM      9  C   UNL     1     -38.882  24.236   2.692  0.00  0.00    +0.253 C 
ATOM     10  N   UNL     1     -37.539  20.914   2.220  0.00  0.00    -0.342 N 
ATOM     11  H   UNL     1     -38.231  20.487   1.665  0.00  0.00    +0.144 HD
ATOM     12  H   UNL     1     -36.740  20.404   2.488  0.00  0.00    +0.144 HD
ENDROOT
BRANCH   1  13
ATOM     13  C   UNL     1     -35.638  25.826   5.149  0.00  0.00    +0.126 C 
BRANCH  13  18
ATOM     14  P   UNL     1     -31.801  28.000   5.398  0.00  0.00    +0.370 P 
ATOM     15  O   UNL     1     -33.946  26.951   6.398  0.00  0.00    -0.340 OA
ATOM     16  O   UNL     1     -32.330  27.240   4.071  0.00  0.00    -0.290 OA
ATOM     17  O   UNL     1     -30.309  28.117   5.504  0.00  0.00    -0.255 OA
ATOM     18  C   UNL     1     -34.156  26.165   5.218  0.00  0.00    +0.166 C 
ATOM     19  C   UNL     1     -33.724  26.958   3.989  0.00  0.00    +0.183 C 
ATOM     20  C   UNL     1     -32.565  27.094   6.720  0.00  0.00    +0.258 C 
BRANCH  14  21
ATOM     21  O   UNL     1     -32.585  29.414   5.383  0.00  0.00    -0.322 OA
ATOM     22  H   UNL     1     -33.533  29.256   5.253  0.00  0.00    +0.220 HD
ENDBRANCH  14  21
ENDBRANCH  13  18
ENDBRANCH   1  13
TORSDOF 3
ENDMDL
MODEL 5
REMARK VINA RESULT:      -5.6      2.934      3.610
REMARK  Name = 189926
REMARK  3 active torsions:
REMARK  status: ('A' for Active; 'I' for Inactive)
REMARK    1  A    between atoms: N_1  and  C_13
REMARK    2  A    between atoms: C_13  and  C_18
REMARK    3  A    between atoms: P_14  and  O_21
REMARK                            x       y       z     vdW  Elec       q    Type
REMARK                         _______ _______ _______ _____ _____    ______ ____
ROOT
ATOM      1  N   UNL     1     -35.962  22.329   3.775  0.00  0.00    -0.269 N 
ATOM      2  N   UNL     1     -36.206  20.682   2.314  0.00  0.00    -0.242 NA
ATOM      3  N   UNL     1     -37.989  23.593   3.350  0.00  0.00    -0.228 NA
ATOM      4  N   UNL     1     -39.322  22.541   1.597  0.00  0.00    -0.229 NA
ATOM      5  C   UNL     1     -37.139  22.575   3.146  0.00  0.00    +0.151 C 
ATOM      6  C   UNL     1     -35.433  21.190   3.250  0.00  0.00    +0.221 C 
ATOM      7  C   UNL     1     -37.276  21.537   2.238  0.00  0.00    +0.140 C 
ATOM      8  C   UNL     1     -38.420  21.542   1.445  0.00  0.00    +0.143 C 
ATOM      9  C   UNL     1     -39.055  23.491   2.526  0.00  0.00    +0.253 C 
ATOM     10  N   UNL     1     -38.641  20.528   0.499  0.00  0.00    -0.342 N 
ATOM     11  H   UNL     1     -39.453  20.541  -0.057  0.00  0.00    +0.144 HD
ATOM     12  H   UNL     1     -37.983  19.802   0.391  0.00  0.00    +0.144 HD
ENDROOT
BRANCH   1  13
ATOM     13  C   UNL     1     -35.359  23.136   4.828  0.00  0.00    +0.126 C 
BRANCH  13  18
ATOM     14  P   UNL     1     -33.653  27.195   4.465  0.00  0.00    +0.370 P 
ATOM     15  O   UNL     1     -33.635  24.628   4.127  0.00  0.00    -0.340 OA
ATOM     16  O   UNL     1     -35.167  26.886   4.942  0.00  0.00    -0.290 OA
ATOM     17  O   UNL     1     -33.457  28.535   3.819  0.00  0.00    -0.255 OA
ATOM     18  C   UNL     1     -35.047  24.551   4.360  0.00  0.00    +0.166 C 
ATOM     19  C   UNL     1     -35.450  25.573   5.418  0.00  0.00    +0.183 C 
ATOM     20  C   UNL     1     -33.262  25.811   3.424  0.00  0.00    +0.258 C 
BRANCH  14  21
ATOM     21  O   UNL     1     -32.763  26.955   5.793  0.00  0.00    -0.322 OA
ATOM     22  H   UNL     1     -31.948  27.479   5.735  0.00  0.00    +0.220 HD
ENDBRANCH  14  21
ENDBRANCH  13  18
ENDBRANCH   1  13
TORSDOF 3
ENDMDL
MODEL 6
REMARK VINA RESULT:      -5.6      6.074      7.847
REMARK  Name = 189926
REMARK  3 active torsions:
REMARK  status: ('A' for Active; 'I' for Inactive)
REMARK    1  A    between atoms: N_1  and  C_13
REMARK    2  A    between atoms: C_13  and  C_18
REMARK    3  A    between atoms: P_14  and  O_21
REMARK                            x       y       z     vdW  Elec       q    Type
REMARK                         _______ _______ _______ _____ _____    ______ ____
ROOT
ATOM      1  N   UNL     1     -37.614  23.392   2.675  0.00  0.00    -0.269 N 
ATOM      2  N   UNL     1     -37.278  25.575   2.496  0.00  0.00    -0.242 NA
ATOM      3  N   UNL     1     -36.290  22.906   4.648  0.00  0.00    -0.228 NA
ATOM      4  N   UNL     1     -35.234  24.931   5.511  0.00  0.00    -0.229 NA
ATOM      5  C   UNL     1     -36.798  23.718   3.708  0.00  0.00    +0.151 C 
ATOM      6  C   UNL     1     -37.879  24.528   1.973  0.00  0.00    +0.221 C 
ATOM      7  C   UNL     1     -36.597  25.083   3.582  0.00  0.00    +0.140 C 
ATOM      8  C   UNL     1     -35.782  25.690   4.532  0.00  0.00    +0.143 C 
ATOM      9  C   UNL     1     -35.517  23.606   5.509  0.00  0.00    +0.253 C 
ATOM     10  N   UNL     1     -35.526  27.070   4.482  0.00  0.00    -0.342 N 
ATOM     11  H   UNL     1     -34.947  27.490   5.159  0.00  0.00    +0.144 HD
ATOM     12  H   UNL     1     -35.926  27.620   3.769  0.00  0.00    +0.144 HD
ENDROOT
BRANCH   1  13
ATOM     13  C   UNL     1     -38.125  22.064   2.361  0.00  0.00    +0.126 C 
BRANCH  13  18
ATOM     14  P   UNL     1     -36.231  18.920  -0.098  0.00  0.00    +0.370 P 
ATOM     15  O   UNL     1     -38.082  20.648   0.442  0.00  0.00    -0.340 OA
ATOM     16  O   UNL     1     -35.516  19.645   1.159  0.00  0.00    -0.290 OA
ATOM     17  O   UNL     1     -35.290  18.391  -1.139  0.00  0.00    -0.255 OA
ATOM     18  C   UNL     1     -37.231  21.323   1.378  0.00  0.00    +0.166 C 
ATOM     19  C   UNL     1     -36.355  20.305   2.102  0.00  0.00    +0.183 C 
ATOM     20  C   UNL     1     -37.367  20.151  -0.686  0.00  0.00    +0.258 C 
BRANCH  14  21
ATOM     21  O   UNL     1     -37.179  17.799   0.580  0.00  0.00    -0.322 OA
ATOM     22  H   UNL     1     -36.783  17.503   1.415  0.00  0.00    +0.220 HD
ENDBRANCH  14  21
ENDBRANCH  13  18
ENDBRANCH   1  13
TORSDOF 3
ENDMDL
MODEL 7
REMARK VINA RESULT:      -5.5      1.205      2.288
REMARK  Name = 189926
REMARK  3 active torsions:
REMARK  status: ('A' for Active; 'I' for Inactive)
REMARK    1  A    between atoms: N_1  and  C_13
REMARK    2  A    between atoms: C_13  and  C_18
REMARK    3  A    between atoms: P_14  and  O_21
REMARK                            x       y       z     vdW  Elec       q    Type
REMARK                         _______ _______ _______ _____ _____    ______ ____
ROOT
ATOM      1  N   UNL     1     -34.316  26.344   2.996  0.00  0.00    -0.269 N 
ATOM      2  N   UNL     1     -36.473  26.780   2.738  0.00  0.00    -0.242 NA
ATOM      3  N   UNL     1     -34.438  24.238   4.194  0.00  0.00    -0.228 NA
ATOM      4  N   UNL     1     -36.758  23.574   4.561  0.00  0.00    -0.229 NA
ATOM      5  C   UNL     1     -34.968  25.308   3.582  0.00  0.00    +0.151 C 
ATOM      6  C   UNL     1     -35.249  27.204   2.504  0.00  0.00    +0.221 C 
ATOM      7  C   UNL     1     -36.312  25.596   3.413  0.00  0.00    +0.140 C 
ATOM      8  C   UNL     1     -37.223  24.679   3.929  0.00  0.00    +0.143 C 
ATOM      9  C   UNL     1     -35.415  23.424   4.653  0.00  0.00    +0.253 C 
ATOM     10  N   UNL     1     -38.605  24.891   3.801  0.00  0.00    -0.342 N 
ATOM     11  H   UNL     1     -39.241  24.235   4.170  0.00  0.00    +0.144 HD
ATOM     12  H   UNL     1     -38.941  25.695   3.341  0.00  0.00    +0.144 HD
ENDROOT
BRANCH   1  13
ATOM     13  C   UNL     1     -32.872  26.516   2.904  0.00  0.00    +0.126 C 
BRANCH  13  18
ATOM     14  P   UNL     1     -30.799  28.747   6.105  0.00  0.00    +0.370 P 
ATOM     15  O   UNL     1     -30.934  27.583   3.796  0.00  0.00    -0.340 OA
ATOM     16  O   UNL     1     -32.395  28.480   6.069  0.00  0.00    -0.290 OA
ATOM     17  O   UNL     1     -30.383  29.978   6.853  0.00  0.00    -0.255 OA
ATOM     18  C   UNL     1     -32.367  27.623   3.818  0.00  0.00    +0.166 C 
ATOM     19  C   UNL     1     -32.864  27.418   5.245  0.00  0.00    +0.183 C 
ATOM     20  C   UNL     1     -30.346  28.739   4.388  0.00  0.00    +0.258 C 
BRANCH  14  21
ATOM     21  O   UNL     1     -30.181  27.370   6.683  0.00  0.00    -0.322 OA
ATOM     22  H   UNL     1     -29.453  27.077   6.112  0.00  0.00    +0.220 HD
ENDBRANCH  14  21
ENDBRANCH  13  18
ENDBRANCH   1  13
TORSDOF 3
ENDMDL
MODEL 8
REMARK VINA RESULT:      -5.5      6.965      8.717
REMARK  Name = 189926
REMARK  3 active torsions:
REMARK  status: ('A' for Active; 'I' for Inactive)
REMARK    1  A    between atoms: N_1  and  C_13
REMARK    2  A    between atoms: C_13  and  C_18
REMARK    3  A    between atoms: P_14  and  O_21
REMARK                            x       y       z     vdW  Elec       q    Type
REMARK                         _______ _______ _______ _____ _____    ______ ____
ROOT
ATOM      1  N   UNL     1     -36.342  21.826   1.987  0.00  0.00    -0.269 N 
ATOM      2  N   UNL     1     -35.282  20.549   3.456  0.00  0.00    -0.242 NA
ATOM      3  N   UNL     1     -36.715  23.814   3.326  0.00  0.00    -0.228 NA
ATOM      4  N   UNL     1     -35.805  23.537   5.573  0.00  0.00    -0.229 NA
ATOM      5  C   UNL     1     -36.259  22.570   3.119  0.00  0.00    +0.151 C 
ATOM      6  C   UNL     1     -35.748  20.625   2.227  0.00  0.00    +0.221 C 
ATOM      7  C   UNL     1     -35.595  21.758   4.025  0.00  0.00    +0.140 C 
ATOM      8  C   UNL     1     -35.371  22.284   5.294  0.00  0.00    +0.143 C 
ATOM      9  C   UNL     1     -36.441  24.214   4.587  0.00  0.00    +0.253 C 
ATOM     10  N   UNL     1     -34.704  21.532   6.275  0.00  0.00    -0.342 N 
ATOM     11  H   UNL     1     -34.550  21.914   7.169  0.00  0.00    +0.144 HD
ATOM     12  H   UNL     1     -34.389  20.622   6.068  0.00  0.00    +0.144 HD
ENDROOT
BRANCH   1  13
ATOM     13  C   UNL     1     -36.957  22.231   0.729  0.00  0.00    +0.126 C 
BRANCH  13  18
ATOM     14  P   UNL     1     -40.997  20.972  -0.539  0.00  0.00    +0.370 P 
ATOM     15  O   UNL     1     -38.541  21.671  -0.964  0.00  0.00    -0.340 OA
ATOM     16  O   UNL     1     -40.482  20.963   0.995  0.00  0.00    -0.290 OA
ATOM     17  O   UNL     1     -42.078  19.978  -0.846  0.00  0.00    -0.255 OA
ATOM     18  C   UNL     1     -38.189  21.401   0.399  0.00  0.00    +0.166 C 
ATOM     19  C   UNL     1     -39.353  21.771   1.313  0.00  0.00    +0.183 C 
ATOM     20  C   UNL     1     -39.503  20.751  -1.472  0.00  0.00    +0.258 C 
BRANCH  14  21
ATOM     21  O   UNL     1     -41.408  22.513  -0.809  0.00  0.00    -0.322 OA
ATOM     22  H   UNL     1     -41.293  23.026   0.007  0.00  0.00    +0.220 HD
ENDBRANCH  14  21
ENDBRANCH  13  18
ENDBRANCH   1  13
TORSDOF 3
ENDMDL
MODEL 9
REMARK VINA RESULT:      -5.5      4.466      6.562
REMARK  Name = 189926
REMARK  3 active torsions:
REMARK  status: ('A' for Active; 'I' for Inactive)
REMARK    1  A    between atoms: N_1  and  C_13
REMARK    2  A    between atoms: C_13  and  C_18
REMARK    3  A    between atoms: P_14  and  O_21
REMARK                            x       y       z     vdW  Elec       q    Type
REMARK                         _______ _______ _______ _____ _____    ______ ____
ROOT
ATOM      1  N   UNL     1     -33.901  26.704   5.049  0.00  0.00    -0.269 N 
ATOM      2  N   UNL     1     -32.637  27.028   6.840  0.00  0.00    -0.242 NA
ATOM      3  N   UNL     1     -32.808  28.185   3.469  0.00  0.00    -0.228 NA
ATOM      4  N   UNL     1     -30.904  29.311   4.501  0.00  0.00    -0.229 NA
ATOM      5  C   UNL     1     -32.959  27.603   4.668  0.00  0.00    +0.151 C 
ATOM      6  C   UNL     1     -33.677  26.385   6.353  0.00  0.00    +0.221 C 
ATOM      7  C   UNL     1     -32.179  27.795   5.798  0.00  0.00    +0.140 C 
ATOM      8  C   UNL     1     -31.116  28.686   5.685  0.00  0.00    +0.143 C 
ATOM      9  C   UNL     1     -31.750  29.027   3.482  0.00  0.00    +0.253 C 
ATOM     10  N   UNL     1     -30.273  28.939   6.779  0.00  0.00    -0.342 N 
ATOM     11  H   UNL     1     -29.524  29.572   6.688  0.00  0.00    +0.144 HD
ATOM     12  H   UNL     1     -30.429  28.483   7.638  0.00  0.00    +0.144 HD
ENDROOT
BRANCH   1  13
ATOM     13  C   UNL     1     -34.970  26.168   4.217  0.00  0.00    +0.126 C 
BRANCH  13  18
ATOM     14  P   UNL     1     -35.853  21.915   3.405  0.00  0.00    +0.370 P 
ATOM     15  O   UNL     1     -35.344  24.357   2.709  0.00  0.00    -0.340 OA
ATOM     16  O   UNL     1     -35.492  22.506   4.868  0.00  0.00    -0.290 OA
ATOM     17  O   UNL     1     -35.507  20.469   3.207  0.00  0.00    -0.255 OA
ATOM     18  C   UNL     1     -34.843  24.664   4.017  0.00  0.00    +0.166 C 
ATOM     19  C   UNL     1     -35.650  23.907   5.067  0.00  0.00    +0.183 C 
ATOM     20  C   UNL     1     -35.023  23.030   2.300  0.00  0.00    +0.258 C 
BRANCH  14  21
ATOM     21  O   UNL     1     -37.420  22.262   3.214  0.00  0.00    -0.322 OA
ATOM     22  H   UNL     1     -37.514  23.008   2.600  0.00  0.00    +0.220 HD
ENDBRANCH  14  21
ENDBRANCH  13  18
ENDBRANCH   1  13
TORSDOF 3
ENDMDL
