MODEL 1
REMARK VINA RESULT:      -6.6      0.000      0.000
REMARK  Name = 189858
REMARK  13 active torsions:
REMARK  status: ('A' for Active; 'I' for Inactive)
REMARK    1  A    between atoms: C_1  and  C_4
REMARK    2  A    between atoms: C_1  and  N_12
REMARK    3  A    between atoms: C_1  and  C_22
REMARK    4  A    between atoms: N_3  and  C_6
REMARK    5  A    between atoms: C_6  and  C_7
REMARK    6  A    between atoms: C_7  and  C_9
REMARK    7  A    between atoms: C_9  and  O_10
REMARK    8  A    between atoms: N_12  and  C_15
REMARK    9  A    between atoms: C_15  and  P_16
REMARK   10  A    between atoms: P_16  and  O_18
REMARK   11  A    between atoms: P_16  and  O_20
REMARK   12  A    between atoms: C_22  and  C_23
REMARK   13  A    between atoms: C_26  and  C_29
REMARK                            x       y       z     vdW  Elec       q    Type
REMARK                         _______ _______ _______ _____ _____    ______ ____
ROOT
ATOM      1  C   UNL     1     -35.983  20.810   2.158  0.00  0.00    +0.022 C 
ENDROOT
BRANCH   1   4
ATOM      2  O   UNL     1     -34.864  22.959   2.197  0.00  0.00    -0.277 OA
ATOM      3  N   UNL     1     -36.532  22.548   3.756  0.00  0.00    -0.305 N 
ATOM      4  C   UNL     1     -35.721  22.219   2.680  0.00  0.00    +0.203 C 
ATOM      5  H   UNL     1     -37.191  21.890   4.074  0.00  0.00    +0.149 HD
BRANCH   3   6
ATOM      6  C   UNL     1     -36.439  23.823   4.425  0.00  0.00    +0.101 C 
BRANCH   6   7
ATOM      7  C   UNL     1     -35.538  23.763   5.651  0.00  0.00    +0.131 C 
BRANCH   7   9
ATOM      8  O   UNL     1     -34.233  21.729   5.968  0.00  0.00    -0.250 OA
ATOM      9  C   UNL     1     -35.276  22.349   6.123  0.00  0.00    +0.316 C 
BRANCH   9  10
ATOM     10  O   UNL     1     -36.357  21.833   6.763  0.00  0.00    -0.480 OA
ATOM     11  H   UNL     1     -36.599  20.938   6.628  0.00  0.00    +0.295 HD
ENDBRANCH   9  10
ENDBRANCH   7   9
ENDBRANCH   6   7
ENDBRANCH   3   6
ENDBRANCH   1   4
BRANCH   1  12
ATOM     12  N   UNL     1     -37.430  20.603   2.211  0.00  0.00    +0.399 N 
ATOM     13  H   UNL     1     -37.827  21.187   2.947  0.00  0.00    -0.083 HD
ATOM     14  H   UNL     1     -37.615  19.618   2.405  0.00  0.00    -0.083 HD
BRANCH  12  15
ATOM     15  C   UNL     1     -38.043  20.952   0.941  0.00  0.00    +0.038 C 
BRANCH  15  16
ATOM     16  P   UNL     1     -39.463  21.920   1.424  0.00  0.00    +0.316 P 
ATOM     17  O   UNL     1     -39.110  23.201   2.122  0.00  0.00    -0.260 OA
BRANCH  16  18
ATOM     18  O   UNL     1     -40.311  22.111   0.061  0.00  0.00    -0.325 OA
ATOM     19  H   UNL     1     -40.542  23.048  -0.048  0.00  0.00    +0.220 HD
ENDBRANCH  16  18
BRANCH  16  20
ATOM     20  O   UNL     1     -40.371  20.907   2.300  0.00  0.00    -0.325 OA
ATOM     21  H   UNL     1     -41.306  21.036   2.076  0.00  0.00    +0.220 HD
ENDBRANCH  16  20
ENDBRANCH  15  16
ENDBRANCH  12  15
ENDBRANCH   1  12
BRANCH   1  22
ATOM     22  C   UNL     1     -35.487  20.664   0.711  0.00  0.00    +0.014 C 
BRANCH  22  23
ATOM     23  C   UNL     1     -34.072  20.142   0.627  0.00  0.00    -0.024 C 
ATOM     24  C   UNL     1     -33.753  18.900   1.178  0.00  0.00    -0.004 C 
ATOM     25  C   UNL     1     -33.084  20.901  -0.001  0.00  0.00    -0.004 C 
ATOM     26  C   UNL     1     -31.459  19.177   0.473  0.00  0.00    -0.000 C 
ATOM     27  C   UNL     1     -32.446  18.418   1.101  0.00  0.00    -0.000 C 
ATOM     28  C   UNL     1     -31.778  20.419  -0.078  0.00  0.00    -0.000 C 
BRANCH  26  29
ATOM     29  C   UNL     1     -30.104  18.678   0.392  0.00  0.00    -0.000 C 
ATOM     30  C   UNL     1     -29.183  19.292  -0.458  0.00  0.00    -0.000 C 
ATOM     31  C   UNL     1     -29.717  17.583   1.165  0.00  0.00    -0.000 C 
ATOM     32  C   UNL     1     -27.877  18.810  -0.535  0.00  0.00    +0.000 C 
ATOM     33  C   UNL     1     -28.409  17.102   1.087  0.00  0.00    +0.000 C 
ATOM     34  C   UNL     1     -27.490  17.716   0.237  0.00  0.00    +0.000 C 
ENDBRANCH  26  29
ENDBRANCH  22  23
ENDBRANCH   1  22
TORSDOF 13
ENDMDL
MODEL 2
REMARK VINA RESULT:      -6.6      1.544      2.314
REMARK  Name = 189858
REMARK  13 active torsions:
REMARK  status: ('A' for Active; 'I' for Inactive)
REMARK    1  A    between atoms: C_1  and  C_4
REMARK    2  A    between atoms: C_1  and  N_12
REMARK    3  A    between atoms: C_1  and  C_22
REMARK    4  A    between atoms: N_3  and  C_6
REMARK    5  A    between atoms: C_6  and  C_7
REMARK    6  A    between atoms: C_7  and  C_9
REMARK    7  A    between atoms: C_9  and  O_10
REMARK    8  A    between atoms: N_12  and  C_15
REMARK    9  A    between atoms: C_15  and  P_16
REMARK   10  A    between atoms: P_16  and  O_18
REMARK   11  A    between atoms: P_16  and  O_20
REMARK   12  A    between atoms: C_22  and  C_23
REMARK   13  A    between atoms: C_26  and  C_29
REMARK                            x       y       z     vdW  Elec       q    Type
REMARK                         _______ _______ _______ _____ _____    ______ ____
ROOT
ATOM      1  C   UNL     1     -36.179  21.143   2.557  0.00  0.00    +0.022 C 
ENDROOT
BRANCH   1   4
ATOM      2  O   UNL     1     -35.186  21.034   4.765  0.00  0.00    -0.277 OA
ATOM      3  N   UNL     1     -35.205  23.071   3.656  0.00  0.00    -0.305 N 
ATOM      4  C   UNL     1     -35.467  21.715   3.779  0.00  0.00    +0.203 C 
ATOM      5  H   UNL     1     -35.467  23.534   2.827  0.00  0.00    +0.149 HD
BRANCH   3   6
ATOM      6  C   UNL     1     -34.559  23.826   4.703  0.00  0.00    +0.101 C 
BRANCH   6   7
ATOM      7  C   UNL     1     -35.562  24.575   5.571  0.00  0.00    +0.131 C 
BRANCH   7   9
ATOM      8  O   UNL     1     -37.557  24.507   4.173  0.00  0.00    -0.250 OA
ATOM      9  C   UNL     1     -36.713  25.154   4.777  0.00  0.00    +0.316 C 
BRANCH   9  10
ATOM     10  O   UNL     1     -36.709  26.512   4.819  0.00  0.00    -0.480 OA
ATOM     11  H   UNL     1     -37.088  27.004   4.118  0.00  0.00    +0.295 HD
ENDBRANCH   9  10
ENDBRANCH   7   9
ENDBRANCH   6   7
ENDBRANCH   3   6
ENDBRANCH   1   4
BRANCH   1  12
ATOM     12  N   UNL     1     -37.525  21.716   2.546  0.00  0.00    +0.399 N 
ATOM     13  H   UNL     1     -37.568  22.484   3.216  0.00  0.00    -0.083 HD
ATOM     14  H   UNL     1     -38.195  20.989   2.800  0.00  0.00    -0.083 HD
BRANCH  12  15
ATOM     15  C   UNL     1     -37.856  22.216   1.223  0.00  0.00    +0.038 C 
BRANCH  15  16
ATOM     16  P   UNL     1     -39.391  21.388   0.845  0.00  0.00    +0.316 P 
ATOM     17  O   UNL     1     -40.292  22.174  -0.063  0.00  0.00    -0.260 OA
BRANCH  16  18
ATOM     18  O   UNL     1     -38.947  19.946   0.264  0.00  0.00    -0.325 OA
ATOM     19  H   UNL     1     -38.114  19.673   0.679  0.00  0.00    +0.220 HD
ENDBRANCH  16  18
BRANCH  16  20
ATOM     20  O   UNL     1     -40.034  21.037   2.287  0.00  0.00    -0.325 OA
ATOM     21  H   UNL     1     -40.823  20.485   2.163  0.00  0.00    +0.220 HD
ENDBRANCH  16  20
ENDBRANCH  15  16
ENDBRANCH  12  15
ENDBRANCH   1  12
BRANCH   1  22
ATOM     22  C   UNL     1     -35.438  21.525   1.267  0.00  0.00    +0.014 C 
BRANCH  22  23
ATOM     23  C   UNL     1     -34.222  20.666   1.014  0.00  0.00    -0.024 C 
ATOM     24  C   UNL     1     -33.198  21.132   0.188  0.00  0.00    -0.004 C 
ATOM     25  C   UNL     1     -34.122  19.406   1.604  0.00  0.00    -0.004 C 
ATOM     26  C   UNL     1     -31.975  19.079   0.545  0.00  0.00    -0.000 C 
ATOM     27  C   UNL     1     -32.075  20.338  -0.046  0.00  0.00    -0.000 C 
ATOM     28  C   UNL     1     -32.999  18.612   1.370  0.00  0.00    -0.000 C 
BRANCH  26  29
ATOM     29  C   UNL     1     -30.811  18.255   0.302  0.00  0.00    -0.000 C 
ATOM     30  C   UNL     1     -30.957  16.881   0.108  0.00  0.00    -0.000 C 
ATOM     31  C   UNL     1     -29.543  18.834   0.262  0.00  0.00    -0.000 C 
ATOM     32  C   UNL     1     -29.834  16.087  -0.125  0.00  0.00    +0.000 C 
ATOM     33  C   UNL     1     -28.420  18.040   0.028  0.00  0.00    +0.000 C 
ATOM     34  C   UNL     1     -28.567  16.666  -0.165  0.00  0.00    +0.000 C 
ENDBRANCH  26  29
ENDBRANCH  22  23
ENDBRANCH   1  22
TORSDOF 13
ENDMDL
MODEL 3
REMARK VINA RESULT:      -6.6      1.565      2.275
REMARK  Name = 189858
REMARK  13 active torsions:
REMARK  status: ('A' for Active; 'I' for Inactive)
REMARK    1  A    between atoms: C_1  and  C_4
REMARK    2  A    between atoms: C_1  and  N_12
REMARK    3  A    between atoms: C_1  and  C_22
REMARK    4  A    between atoms: N_3  and  C_6
REMARK    5  A    between atoms: C_6  and  C_7
REMARK    6  A    between atoms: C_7  and  C_9
REMARK    7  A    between atoms: C_9  and  O_10
REMARK    8  A    between atoms: N_12  and  C_15
REMARK    9  A    between atoms: C_15  and  P_16
REMARK   10  A    between atoms: P_16  and  O_18
REMARK   11  A    between atoms: P_16  and  O_20
REMARK   12  A    between atoms: C_22  and  C_23
REMARK   13  A    between atoms: C_26  and  C_29
REMARK                            x       y       z     vdW  Elec       q    Type
REMARK                         _______ _______ _______ _____ _____    ______ ____
ROOT
ATOM      1  C   UNL     1     -36.673  21.257   2.460  0.00  0.00    +0.022 C 
ENDROOT
BRANCH   1   4
ATOM      2  O   UNL     1     -37.543  23.310   3.412  0.00  0.00    -0.277 OA
ATOM      3  N   UNL     1     -35.803  22.231   4.502  0.00  0.00    -0.305 N 
ATOM      4  C   UNL     1     -36.744  22.377   3.494  0.00  0.00    +0.203 C 
ATOM      5  H   UNL     1     -35.204  21.449   4.486  0.00  0.00    +0.149 HD
BRANCH   3   6
ATOM      6  C   UNL     1     -35.673  23.187   5.575  0.00  0.00    +0.101 C 
BRANCH   6   7
ATOM      7  C   UNL     1     -34.759  24.346   5.201  0.00  0.00    +0.131 C 
BRANCH   7   9
ATOM      8  O   UNL     1     -34.973  26.762   4.964  0.00  0.00    -0.250 OA
ATOM      9  C   UNL     1     -35.496  25.662   5.073  0.00  0.00    +0.316 C 
BRANCH   9  10
ATOM     10  O   UNL     1     -36.842  25.478   5.084  0.00  0.00    -0.480 OA
ATOM     11  H   UNL     1     -37.198  24.619   4.976  0.00  0.00    +0.295 HD
ENDBRANCH   9  10
ENDBRANCH   7   9
ENDBRANCH   6   7
ENDBRANCH   3   6
ENDBRANCH   1   4
BRANCH   1  12
ATOM     12  N   UNL     1     -38.052  20.887   2.144  0.00  0.00    +0.399 N 
ATOM     13  H   UNL     1     -38.690  21.485   2.670  0.00  0.00    -0.083 HD
ATOM     14  H   UNL     1     -38.198  19.909   2.397  0.00  0.00    -0.083 HD
BRANCH  12  15
ATOM     15  C   UNL     1     -38.311  21.047   0.723  0.00  0.00    +0.038 C 
BRANCH  15  16
ATOM     16  P   UNL     1     -39.873  21.910   0.686  0.00  0.00    +0.316 P 
ATOM     17  O   UNL     1     -39.955  22.962  -0.381  0.00  0.00    -0.260 OA
BRANCH  16  18
ATOM     18  O   UNL     1     -40.984  20.741   0.561  0.00  0.00    -0.325 OA
ATOM     19  H   UNL     1     -41.247  20.642  -0.368  0.00  0.00    +0.220 HD
ENDBRANCH  16  18
BRANCH  16  20
ATOM     20  O   UNL     1     -40.071  22.466   2.192  0.00  0.00    -0.325 OA
ATOM     21  H   UNL     1     -39.226  22.807   2.523  0.00  0.00    +0.220 HD
ENDBRANCH  16  20
ENDBRANCH  15  16
ENDBRANCH  12  15
ENDBRANCH   1  12
BRANCH   1  22
ATOM     22  C   UNL     1     -35.956  21.736   1.189  0.00  0.00    +0.014 C 
BRANCH  22  23
ATOM     23  C   UNL     1     -34.641  21.029   0.956  0.00  0.00    -0.024 C 
ATOM     24  C   UNL     1     -33.677  21.605   0.128  0.00  0.00    -0.004 C 
ATOM     25  C   UNL     1     -34.392  19.800   1.567  0.00  0.00    -0.004 C 
ATOM     26  C   UNL     1     -32.214  19.723   0.525  0.00  0.00    -0.000 C 
ATOM     27  C   UNL     1     -32.463  20.952  -0.087  0.00  0.00    -0.000 C 
ATOM     28  C   UNL     1     -33.179  19.147   1.352  0.00  0.00    -0.000 C 
BRANCH  26  29
ATOM     29  C   UNL     1     -30.956  19.045   0.302  0.00  0.00    -0.000 C 
ATOM     30  C   UNL     1     -30.744  17.774   0.837  0.00  0.00    -0.000 C 
ATOM     31  C   UNL     1     -29.954  19.662  -0.447  0.00  0.00    -0.000 C 
ATOM     32  C   UNL     1     -29.531  17.121   0.622  0.00  0.00    +0.000 C 
ATOM     33  C   UNL     1     -28.740  19.008  -0.662  0.00  0.00    +0.000 C 
ATOM     34  C   UNL     1     -28.530  17.737  -0.127  0.00  0.00    +0.000 C 
ENDBRANCH  26  29
ENDBRANCH  22  23
ENDBRANCH   1  22
TORSDOF 13
ENDMDL
MODEL 4
REMARK VINA RESULT:      -6.6      1.236      1.704
REMARK  Name = 189858
REMARK  13 active torsions:
REMARK  status: ('A' for Active; 'I' for Inactive)
REMARK    1  A    between atoms: C_1  and  C_4
REMARK    2  A    between atoms: C_1  and  N_12
REMARK    3  A    between atoms: C_1  and  C_22
REMARK    4  A    between atoms: N_3  and  C_6
REMARK    5  A    between atoms: C_6  and  C_7
REMARK    6  A    between atoms: C_7  and  C_9
REMARK    7  A    between atoms: C_9  and  O_10
REMARK    8  A    between atoms: N_12  and  C_15
REMARK    9  A    between atoms: C_15  and  P_16
REMARK   10  A    between atoms: P_16  and  O_18
REMARK   11  A    between atoms: P_16  and  O_20
REMARK   12  A    between atoms: C_22  and  C_23
REMARK   13  A    between atoms: C_26  and  C_29
REMARK                            x       y       z     vdW  Elec       q    Type
REMARK                         _______ _______ _______ _____ _____    ______ ____
ROOT
ATOM      1  C   UNL     1     -35.897  21.070   2.358  0.00  0.00    +0.022 C 
ENDROOT
BRANCH   1   4
ATOM      2  O   UNL     1     -34.914  23.285   2.376  0.00  0.00    -0.277 OA
ATOM      3  N   UNL     1     -36.470  22.748   4.010  0.00  0.00    -0.305 N 
ATOM      4  C   UNL     1     -35.697  22.486   2.889  0.00  0.00    +0.203 C 
ATOM      5  H   UNL     1     -37.070  22.045   4.350  0.00  0.00    +0.149 HD
BRANCH   3   6
ATOM      6  C   UNL     1     -36.423  24.018   4.695  0.00  0.00    +0.101 C 
BRANCH   6   7
ATOM      7  C   UNL     1     -35.240  24.110   5.648  0.00  0.00    +0.131 C 
BRANCH   7   9
ATOM      8  O   UNL     1     -34.371  26.368   5.944  0.00  0.00    -0.250 OA
ATOM      9  C   UNL     1     -34.341  25.293   5.361  0.00  0.00    +0.316 C 
BRANCH   9  10
ATOM     10  O   UNL     1     -33.465  25.017   4.360  0.00  0.00    -0.480 OA
ATOM     11  H   UNL     1     -32.642  25.464   4.321  0.00  0.00    +0.295 HD
ENDBRANCH   9  10
ENDBRANCH   7   9
ENDBRANCH   6   7
ENDBRANCH   3   6
ENDBRANCH   1   4
BRANCH   1  12
ATOM     12  N   UNL     1     -37.328  20.781   2.454  0.00  0.00    +0.399 N 
ATOM     13  H   UNL     1     -37.741  21.369   3.178  0.00  0.00    -0.083 HD
ATOM     14  H   UNL     1     -37.450  19.796   2.689  0.00  0.00    -0.083 HD
BRANCH  12  15
ATOM     15  C   UNL     1     -37.989  21.046   1.188  0.00  0.00    +0.038 C 
BRANCH  15  16
ATOM     16  P   UNL     1     -39.431  21.982   1.667  0.00  0.00    +0.316 P 
ATOM     17  O   UNL     1     -39.118  23.174   2.524  0.00  0.00    -0.260 OA
BRANCH  16  18
ATOM     18  O   UNL     1     -40.172  22.335   0.274  0.00  0.00    -0.325 OA
ATOM     19  H   UNL     1     -40.711  21.578  -0.006  0.00  0.00    +0.220 HD
ENDBRANCH  16  18
BRANCH  16  20
ATOM     20  O   UNL     1     -40.413  20.898   2.359  0.00  0.00    -0.325 OA
ATOM     21  H   UNL     1     -39.882  20.210   2.789  0.00  0.00    +0.220 HD
ENDBRANCH  16  20
ENDBRANCH  15  16
ENDBRANCH  12  15
ENDBRANCH   1  12
BRANCH   1  22
ATOM     22  C   UNL     1     -35.441  20.968   0.894  0.00  0.00    +0.014 C 
BRANCH  22  23
ATOM     23  C   UNL     1     -34.064  20.365   0.750  0.00  0.00    -0.024 C 
ATOM     24  C   UNL     1     -33.079  21.040   0.028  0.00  0.00    -0.004 C 
ATOM     25  C   UNL     1     -33.777  19.132   1.337  0.00  0.00    -0.004 C 
ATOM     26  C   UNL     1     -31.521  19.250   0.482  0.00  0.00    -0.000 C 
ATOM     27  C   UNL     1     -31.807  20.482  -0.106  0.00  0.00    -0.000 C 
ATOM     28  C   UNL     1     -32.506  18.575   1.203  0.00  0.00    -0.000 C 
BRANCH  26  29
ATOM     29  C   UNL     1     -30.202  18.671   0.344  0.00  0.00    -0.000 C 
ATOM     30  C   UNL     1     -29.227  19.329  -0.405  0.00  0.00    -0.000 C 
ATOM     31  C   UNL     1     -29.906  17.455   0.960  0.00  0.00    -0.000 C 
ATOM     32  C   UNL     1     -27.956  18.771  -0.539  0.00  0.00    +0.000 C 
ATOM     33  C   UNL     1     -28.634  16.897   0.827  0.00  0.00    +0.000 C 
ATOM     34  C   UNL     1     -27.660  17.556   0.077  0.00  0.00    +0.000 C 
ENDBRANCH  26  29
ENDBRANCH  22  23
ENDBRANCH   1  22
TORSDOF 13
ENDMDL
MODEL 5
REMARK VINA RESULT:      -6.5      2.480      3.805
REMARK  Name = 189858
REMARK  13 active torsions:
REMARK  status: ('A' for Active; 'I' for Inactive)
REMARK    1  A    between atoms: C_1  and  C_4
REMARK    2  A    between atoms: C_1  and  N_12
REMARK    3  A    between atoms: C_1  and  C_22
REMARK    4  A    between atoms: N_3  and  C_6
REMARK    5  A    between atoms: C_6  and  C_7
REMARK    6  A    between atoms: C_7  and  C_9
REMARK    7  A    between atoms: C_9  and  O_10
REMARK    8  A    between atoms: N_12  and  C_15
REMARK    9  A    between atoms: C_15  and  P_16
REMARK   10  A    between atoms: P_16  and  O_18
REMARK   11  A    between atoms: P_16  and  O_20
REMARK   12  A    between atoms: C_22  and  C_23
REMARK   13  A    between atoms: C_26  and  C_29
REMARK                            x       y       z     vdW  Elec       q    Type
REMARK                         _______ _______ _______ _____ _____    ______ ____
ROOT
ATOM      1  C   UNL     1     -36.715  22.809   3.333  0.00  0.00    +0.022 C 
ENDROOT
BRANCH   1   4
ATOM      2  O   UNL     1     -35.950  22.734   5.632  0.00  0.00    -0.277 OA
ATOM      3  N   UNL     1     -35.162  24.427   4.254  0.00  0.00    -0.305 N 
ATOM      4  C   UNL     1     -35.909  23.292   4.535  0.00  0.00    +0.203 C 
ATOM      5  H   UNL     1     -35.192  24.804   3.346  0.00  0.00    +0.149 HD
BRANCH   3   6
ATOM      6  C   UNL     1     -34.342  25.072   5.252  0.00  0.00    +0.101 C 
BRANCH   6   7
ATOM      7  C   UNL     1     -33.756  26.384   4.749  0.00  0.00    +0.131 C 
BRANCH   7   9
ATOM      8  O   UNL     1     -34.250  26.621   2.375  0.00  0.00    -0.250 OA
ATOM      9  C   UNL     1     -34.479  26.928   3.536  0.00  0.00    +0.316 C 
BRANCH   9  10
ATOM     10  O   UNL     1     -35.444  27.815   3.892  0.00  0.00    -0.480 OA
ATOM     11  H   UNL     1     -36.348  27.577   3.823  0.00  0.00    +0.295 HD
ENDBRANCH   9  10
ENDBRANCH   7   9
ENDBRANCH   6   7
ENDBRANCH   3   6
ENDBRANCH   1   4
BRANCH   1  12
ATOM     12  N   UNL     1     -37.966  23.566   3.332  0.00  0.00    +0.399 N 
ATOM     13  H   UNL     1     -37.955  24.234   4.103  0.00  0.00    -0.083 HD
ATOM     14  H   UNL     1     -38.745  22.915   3.440  0.00  0.00    -0.083 HD
BRANCH  12  15
ATOM     15  C   UNL     1     -38.127  24.284   2.079  0.00  0.00    +0.038 C 
BRANCH  15  16
ATOM     16  P   UNL     1     -38.386  25.970   2.605  0.00  0.00    +0.316 P 
ATOM     17  O   UNL     1     -39.811  26.426   2.487  0.00  0.00    -0.260 OA
BRANCH  16  18
ATOM     18  O   UNL     1     -37.787  26.028   4.106  0.00  0.00    -0.325 OA
ATOM     19  H   UNL     1     -38.161  25.303   4.632  0.00  0.00    +0.220 HD
ENDBRANCH  16  18
BRANCH  16  20
ATOM     20  O   UNL     1     -37.331  26.837   1.739  0.00  0.00    -0.325 OA
ATOM     21  H   UNL     1     -37.606  27.767   1.731  0.00  0.00    +0.220 HD
ENDBRANCH  16  20
ENDBRANCH  15  16
ENDBRANCH  12  15
ENDBRANCH   1  12
BRANCH   1  22
ATOM     22  C   UNL     1     -35.948  23.065   2.026  0.00  0.00    +0.014 C 
BRANCH  22  23
ATOM     23  C   UNL     1     -35.038  21.920   1.647  0.00  0.00    -0.024 C 
ATOM     24  C   UNL     1     -34.069  22.097   0.659  0.00  0.00    -0.004 C 
ATOM     25  C   UNL     1     -35.167  20.685   2.284  0.00  0.00    -0.004 C 
ATOM     26  C   UNL     1     -33.358  19.806   0.946  0.00  0.00    -0.000 C 
ATOM     27  C   UNL     1     -33.229  21.039   0.309  0.00  0.00    -0.000 C 
ATOM     28  C   UNL     1     -34.328  19.628   1.933  0.00  0.00    -0.000 C 
BRANCH  26  29
ATOM     29  C   UNL     1     -32.488  18.709   0.583  0.00  0.00    -0.000 C 
ATOM     30  C   UNL     1     -31.131  18.941   0.354  0.00  0.00    -0.000 C 
ATOM     31  C   UNL     1     -33.004  17.418   0.462  0.00  0.00    -0.000 C 
ATOM     32  C   UNL     1     -30.292  17.884   0.004  0.00  0.00    +0.000 C 
ATOM     33  C   UNL     1     -32.164  16.361   0.112  0.00  0.00    +0.000 C 
ATOM     34  C   UNL     1     -30.808  16.594  -0.116  0.00  0.00    +0.000 C 
ENDBRANCH  26  29
ENDBRANCH  22  23
ENDBRANCH   1  22
TORSDOF 13
ENDMDL
MODEL 6
REMARK VINA RESULT:      -6.3      4.730      7.919
REMARK  Name = 189858
REMARK  13 active torsions:
REMARK  status: ('A' for Active; 'I' for Inactive)
REMARK    1  A    between atoms: C_1  and  C_4
REMARK    2  A    between atoms: C_1  and  N_12
REMARK    3  A    between atoms: C_1  and  C_22
REMARK    4  A    between atoms: N_3  and  C_6
REMARK    5  A    between atoms: C_6  and  C_7
REMARK    6  A    between atoms: C_7  and  C_9
REMARK    7  A    between atoms: C_9  and  O_10
REMARK    8  A    between atoms: N_12  and  C_15
REMARK    9  A    between atoms: C_15  and  P_16
REMARK   10  A    between atoms: P_16  and  O_18
REMARK   11  A    between atoms: P_16  and  O_20
REMARK   12  A    between atoms: C_22  and  C_23
REMARK   13  A    between atoms: C_26  and  C_29
REMARK                            x       y       z     vdW  Elec       q    Type
REMARK                         _______ _______ _______ _____ _____    ______ ____
ROOT
ATOM      1  C   UNL     1     -36.596  23.531   3.646  0.00  0.00    +0.022 C 
ENDROOT
BRANCH   1   4
ATOM      2  O   UNL     1     -38.794  24.554   3.644  0.00  0.00    -0.277 OA
ATOM      3  N   UNL     1     -38.012  23.598   1.680  0.00  0.00    -0.305 N 
ATOM      4  C   UNL     1     -37.915  23.964   3.014  0.00  0.00    +0.203 C 
ATOM      5  H   UNL     1     -37.257  23.128   1.259  0.00  0.00    +0.149 HD
BRANCH   3   6
ATOM      6  C   UNL     1     -39.185  23.885   0.888  0.00  0.00    +0.101 C 
BRANCH   6   7
ATOM      7  C   UNL     1     -40.134  22.696   0.820  0.00  0.00    +0.131 C 
BRANCH   7   9
ATOM      8  O   UNL     1     -38.843  20.712   0.242  0.00  0.00    -0.250 OA
ATOM      9  C   UNL     1     -39.444  21.374   1.076  0.00  0.00    +0.316 C 
BRANCH   9  10
ATOM     10  O   UNL     1     -39.563  20.997   2.377  0.00  0.00    -0.480 OA
ATOM     11  H   UNL     1     -38.952  21.312   3.013  0.00  0.00    +0.295 HD
ENDBRANCH   9  10
ENDBRANCH   7   9
ENDBRANCH   6   7
ENDBRANCH   3   6
ENDBRANCH   1   4
BRANCH   1  12
ATOM     12  N   UNL     1     -36.631  22.072   3.735  0.00  0.00    +0.399 N 
ATOM     13  H   UNL     1     -37.281  21.708   3.039  0.00  0.00    -0.083 HD
ATOM     14  H   UNL     1     -36.934  21.806   4.673  0.00  0.00    -0.083 HD
BRANCH  12  15
ATOM     15  C   UNL     1     -35.311  21.514   3.494  0.00  0.00    +0.038 C 
BRANCH  15  16
ATOM     16  P   UNL     1     -35.579  20.410   2.118  0.00  0.00    +0.316 P 
ATOM     17  O   UNL     1     -34.400  19.532   1.812  0.00  0.00    -0.260 OA
BRANCH  16  18
ATOM     18  O   UNL     1     -36.932  19.608   2.492  0.00  0.00    -0.325 OA
ATOM     19  H   UNL     1     -36.956  18.769   2.006  0.00  0.00    +0.220 HD
ENDBRANCH  16  18
BRANCH  16  20
ATOM     20  O   UNL     1     -36.030  21.374   0.900  0.00  0.00    -0.325 OA
ATOM     21  H   UNL     1     -35.452  21.221   0.136  0.00  0.00    +0.220 HD
ENDBRANCH  16  20
ENDBRANCH  15  16
ENDBRANCH  12  15
ENDBRANCH   1  12
BRANCH   1  22
ATOM     22  C   UNL     1     -35.407  23.974   2.780  0.00  0.00    +0.014 C 
BRANCH  22  23
ATOM     23  C   UNL     1     -34.650  25.138   3.375  0.00  0.00    -0.024 C 
ATOM     24  C   UNL     1     -34.074  26.096   2.540  0.00  0.00    -0.004 C 
ATOM     25  C   UNL     1     -34.527  25.256   4.760  0.00  0.00    -0.004 C 
ATOM     26  C   UNL     1     -33.253  27.288   4.474  0.00  0.00    -0.000 C 
ATOM     27  C   UNL     1     -33.375  27.171   3.089  0.00  0.00    -0.000 C 
ATOM     28  C   UNL     1     -33.828  26.330   5.309  0.00  0.00    -0.000 C 
BRANCH  26  29
ATOM     29  C   UNL     1     -32.528  28.403   5.044  0.00  0.00    -0.000 C 
ATOM     30  C   UNL     1     -31.979  28.297   6.323  0.00  0.00    -0.000 C 
ATOM     31  C   UNL     1     -32.377  29.583   4.316  0.00  0.00    -0.000 C 
ATOM     32  C   UNL     1     -31.281  29.372   6.873  0.00  0.00    +0.000 C 
ATOM     33  C   UNL     1     -31.678  30.658   4.867  0.00  0.00    +0.000 C 
ATOM     34  C   UNL     1     -31.130  30.551   6.145  0.00  0.00    +0.000 C 
ENDBRANCH  26  29
ENDBRANCH  22  23
ENDBRANCH   1  22
TORSDOF 13
ENDMDL
MODEL 7
REMARK VINA RESULT:      -6.3      2.703      3.960
REMARK  Name = 189858
REMARK  13 active torsions:
REMARK  status: ('A' for Active; 'I' for Inactive)
REMARK    1  A    between atoms: C_1  and  C_4
REMARK    2  A    between atoms: C_1  and  N_12
REMARK    3  A    between atoms: C_1  and  C_22
REMARK    4  A    between atoms: N_3  and  C_6
REMARK    5  A    between atoms: C_6  and  C_7
REMARK    6  A    between atoms: C_7  and  C_9
REMARK    7  A    between atoms: C_9  and  O_10
REMARK    8  A    between atoms: N_12  and  C_15
REMARK    9  A    between atoms: C_15  and  P_16
REMARK   10  A    between atoms: P_16  and  O_18
REMARK   11  A    between atoms: P_16  and  O_20
REMARK   12  A    between atoms: C_22  and  C_23
REMARK   13  A    between atoms: C_26  and  C_29
REMARK                            x       y       z     vdW  Elec       q    Type
REMARK                         _______ _______ _______ _____ _____    ______ ____
ROOT
ATOM      1  C   UNL     1     -38.152  23.866   3.059  0.00  0.00    +0.022 C 
ENDROOT
BRANCH   1   4
ATOM      2  O   UNL     1     -37.036  25.976   2.639  0.00  0.00    -0.277 OA
ATOM      3  N   UNL     1     -36.940  25.075   4.775  0.00  0.00    -0.305 N 
ATOM      4  C   UNL     1     -37.330  25.092   3.444  0.00  0.00    +0.203 C 
ATOM      5  H   UNL     1     -37.223  24.324   5.345  0.00  0.00    +0.149 HD
BRANCH   3   6
ATOM      6  C   UNL     1     -36.133  26.124   5.351  0.00  0.00    +0.101 C 
BRANCH   6   7
ATOM      7  C   UNL     1     -34.752  25.627   5.757  0.00  0.00    +0.131 C 
BRANCH   7   9
ATOM      8  O   UNL     1     -34.536  23.400   4.792  0.00  0.00    -0.250 OA
ATOM      9  C   UNL     1     -34.203  24.576   4.817  0.00  0.00    +0.316 C 
BRANCH   9  10
ATOM     10  O   UNL     1     -33.277  25.103   3.973  0.00  0.00    -0.480 OA
ATOM     11  H   UNL     1     -33.551  25.614   3.238  0.00  0.00    +0.295 HD
ENDBRANCH   9  10
ENDBRANCH   7   9
ENDBRANCH   6   7
ENDBRANCH   3   6
ENDBRANCH   1   4
BRANCH   1  12
ATOM     12  N   UNL     1     -39.557  24.222   3.255  0.00  0.00    +0.399 N 
ATOM     13  H   UNL     1     -39.613  25.074   3.814  0.00  0.00    -0.083 HD
ATOM     14  H   UNL     1     -40.028  23.455   3.736  0.00  0.00    -0.083 HD
BRANCH  12  15
ATOM     15  C   UNL     1     -40.211  24.444   1.977  0.00  0.00    +0.038 C 
BRANCH  15  16
ATOM     16  P   UNL     1     -40.733  26.149   2.075  0.00  0.00    +0.316 P 
ATOM     17  O   UNL     1     -42.112  26.389   1.533  0.00  0.00    -0.260 OA
BRANCH  16  18
ATOM     18  O   UNL     1     -40.546  26.545   3.632  0.00  0.00    -0.325 OA
ATOM     19  H   UNL     1     -40.299  25.756   4.139  0.00  0.00    +0.220 HD
ENDBRANCH  16  18
BRANCH  16  20
ATOM     20  O   UNL     1     -39.564  26.980   1.326  0.00  0.00    -0.325 OA
ATOM     21  H   UNL     1     -39.946  27.481   0.589  0.00  0.00    +0.220 HD
ENDBRANCH  16  20
ENDBRANCH  15  16
ENDBRANCH  12  15
ENDBRANCH   1  12
BRANCH   1  22
ATOM     22  C   UNL     1     -37.909  23.487   1.590  0.00  0.00    +0.014 C 
BRANCH  22  23
ATOM     23  C   UNL     1     -36.709  22.588   1.408  0.00  0.00    -0.024 C 
ATOM     24  C   UNL     1     -35.884  22.744   0.293  0.00  0.00    -0.004 C 
ATOM     25  C   UNL     1     -36.426  21.602   2.352  0.00  0.00    -0.004 C 
ATOM     26  C   UNL     1     -34.493  20.928   1.070  0.00  0.00    -0.000 C 
ATOM     27  C   UNL     1     -34.776  21.913   0.124  0.00  0.00    -0.000 C 
ATOM     28  C   UNL     1     -35.318  20.772   2.184  0.00  0.00    -0.000 C 
BRANCH  26  29
ATOM     29  C   UNL     1     -33.344  20.067   0.895  0.00  0.00    -0.000 C 
ATOM     30  C   UNL     1     -32.260  20.496   0.128  0.00  0.00    -0.000 C 
ATOM     31  C   UNL     1     -33.319  18.807   1.494  0.00  0.00    -0.000 C 
ATOM     32  C   UNL     1     -31.153  19.665  -0.040  0.00  0.00    +0.000 C 
ATOM     33  C   UNL     1     -32.210  17.977   1.326  0.00  0.00    +0.000 C 
ATOM     34  C   UNL     1     -31.128  18.406   0.559  0.00  0.00    +0.000 C 
ENDBRANCH  26  29
ENDBRANCH  22  23
ENDBRANCH   1  22
TORSDOF 13
ENDMDL
MODEL 8
REMARK VINA RESULT:      -6.3      2.399      3.367
REMARK  Name = 189858
REMARK  13 active torsions:
REMARK  status: ('A' for Active; 'I' for Inactive)
REMARK    1  A    between atoms: C_1  and  C_4
REMARK    2  A    between atoms: C_1  and  N_12
REMARK    3  A    between atoms: C_1  and  C_22
REMARK    4  A    between atoms: N_3  and  C_6
REMARK    5  A    between atoms: C_6  and  C_7
REMARK    6  A    between atoms: C_7  and  C_9
REMARK    7  A    between atoms: C_9  and  O_10
REMARK    8  A    between atoms: N_12  and  C_15
REMARK    9  A    between atoms: C_15  and  P_16
REMARK   10  A    between atoms: P_16  and  O_18
REMARK   11  A    between atoms: P_16  and  O_20
REMARK   12  A    between atoms: C_22  and  C_23
REMARK   13  A    between atoms: C_26  and  C_29
REMARK                            x       y       z     vdW  Elec       q    Type
REMARK                         _______ _______ _______ _____ _____    ______ ____
ROOT
ATOM      1  C   UNL     1     -37.433  22.759   2.893  0.00  0.00    +0.022 C 
ENDROOT
BRANCH   1   4
ATOM      2  O   UNL     1     -37.232  24.573   4.488  0.00  0.00    -0.277 OA
ATOM      3  N   UNL     1     -35.440  23.125   4.224  0.00  0.00    -0.305 N 
ATOM      4  C   UNL     1     -36.719  23.589   3.956  0.00  0.00    +0.203 C 
ATOM      5  H   UNL     1     -35.113  22.328   3.748  0.00  0.00    +0.149 HD
BRANCH   3   6
ATOM      6  C   UNL     1     -34.573  23.773   5.179  0.00  0.00    +0.101 C 
BRANCH   6   7
ATOM      7  C   UNL     1     -33.914  25.018   4.600  0.00  0.00    +0.131 C 
BRANCH   7   9
ATOM      8  O   UNL     1     -33.611  26.767   6.270  0.00  0.00    -0.250 OA
ATOM      9  C   UNL     1     -34.266  26.279   5.359  0.00  0.00    +0.316 C 
BRANCH   9  10
ATOM     10  O   UNL     1     -35.419  26.830   4.897  0.00  0.00    -0.480 OA
ATOM     11  H   UNL     1     -35.706  26.651   4.024  0.00  0.00    +0.295 HD
ENDBRANCH   9  10
ENDBRANCH   7   9
ENDBRANCH   6   7
ENDBRANCH   3   6
ENDBRANCH   1   4
BRANCH   1  12
ATOM     12  N   UNL     1     -38.833  23.181   2.899  0.00  0.00    +0.399 N 
ATOM     13  H   UNL     1     -39.034  23.668   3.772  0.00  0.00    -0.083 HD
ATOM     14  H   UNL     1     -39.427  22.355   2.812  0.00  0.00    -0.083 HD
BRANCH  12  15
ATOM     15  C   UNL     1     -39.103  24.070   1.782  0.00  0.00    +0.038 C 
BRANCH  15  16
ATOM     16  P   UNL     1     -39.825  25.502   2.566  0.00  0.00    +0.316 P 
ATOM     17  O   UNL     1     -41.022  26.045   1.841  0.00  0.00    -0.260 OA
BRANCH  16  18
ATOM     18  O   UNL     1     -40.117  25.035   4.085  0.00  0.00    -0.325 OA
ATOM     19  H   UNL     1     -41.049  24.780   4.173  0.00  0.00    +0.220 HD
ENDBRANCH  16  18
BRANCH  16  20
ATOM     20  O   UNL     1     -38.601  26.549   2.716  0.00  0.00    -0.325 OA
ATOM     21  H   UNL     1     -38.845  27.392   2.302  0.00  0.00    +0.220 HD
ENDBRANCH  16  20
ENDBRANCH  15  16
ENDBRANCH  12  15
ENDBRANCH   1  12
BRANCH   1  22
ATOM     22  C   UNL     1     -36.818  23.004   1.507  0.00  0.00    +0.014 C 
BRANCH  22  23
ATOM     23  C   UNL     1     -35.609  22.139   1.240  0.00  0.00    -0.024 C 
ATOM     24  C   UNL     1     -35.578  20.823   1.704  0.00  0.00    -0.004 C 
ATOM     25  C   UNL     1     -34.523  22.654   0.532  0.00  0.00    -0.004 C 
ATOM     26  C   UNL     1     -33.376  20.540   0.749  0.00  0.00    -0.000 C 
ATOM     27  C   UNL     1     -34.461  20.023   1.458  0.00  0.00    -0.000 C 
ATOM     28  C   UNL     1     -33.407  21.855   0.287  0.00  0.00    -0.000 C 
BRANCH  26  29
ATOM     29  C   UNL     1     -32.218  19.711   0.494  0.00  0.00    -0.000 C 
ATOM     30  C   UNL     1     -32.147  18.427   1.036  0.00  0.00    -0.000 C 
ATOM     31  C   UNL     1     -31.173  20.196  -0.292  0.00  0.00    -0.000 C 
ATOM     32  C   UNL     1     -31.030  17.629   0.790  0.00  0.00    +0.000 C 
ATOM     33  C   UNL     1     -30.057  19.396  -0.538  0.00  0.00    +0.000 C 
ATOM     34  C   UNL     1     -29.986  18.113   0.003  0.00  0.00    +0.000 C 
ENDBRANCH  26  29
ENDBRANCH  22  23
ENDBRANCH   1  22
TORSDOF 13
ENDMDL
MODEL 9
REMARK VINA RESULT:      -6.1      2.791      5.335
REMARK  Name = 189858
REMARK  13 active torsions:
REMARK  status: ('A' for Active; 'I' for Inactive)
REMARK    1  A    between atoms: C_1  and  C_4
REMARK    2  A    between atoms: C_1  and  N_12
REMARK    3  A    between atoms: C_1  and  C_22
REMARK    4  A    between atoms: N_3  and  C_6
REMARK    5  A    between atoms: C_6  and  C_7
REMARK    6  A    between atoms: C_7  and  C_9
REMARK    7  A    between atoms: C_9  and  O_10
REMARK    8  A    between atoms: N_12  and  C_15
REMARK    9  A    between atoms: C_15  and  P_16
REMARK   10  A    between atoms: P_16  and  O_18
REMARK   11  A    between atoms: P_16  and  O_20
REMARK   12  A    between atoms: C_22  and  C_23
REMARK   13  A    between atoms: C_26  and  C_29
REMARK                            x       y       z     vdW  Elec       q    Type
REMARK                         _______ _______ _______ _____ _____    ______ ____
ROOT
ATOM      1  C   UNL     1     -37.035  24.311   3.353  0.00  0.00    +0.022 C 
ENDROOT
BRANCH   1   4
ATOM      2  O   UNL     1     -39.423  24.558   3.685  0.00  0.00    -0.277 OA
ATOM      3  N   UNL     1     -38.652  23.944   1.585  0.00  0.00    -0.305 N 
ATOM      4  C   UNL     1     -38.497  24.299   2.917  0.00  0.00    +0.203 C 
ATOM      5  H   UNL     1     -37.851  23.754   1.046  0.00  0.00    +0.149 HD
BRANCH   3   6
ATOM      6  C   UNL     1     -39.952  23.845   0.964  0.00  0.00    +0.101 C 
BRANCH   6   7
ATOM      7  C   UNL     1     -40.192  22.469   0.358  0.00  0.00    +0.131 C 
BRANCH   7   9
ATOM      8  O   UNL     1     -38.448  20.819   0.773  0.00  0.00    -0.250 OA
ATOM      9  C   UNL     1     -39.491  21.360   1.112  0.00  0.00    +0.316 C 
BRANCH   9  10
ATOM     10  O   UNL     1     -40.164  21.029   2.245  0.00  0.00    -0.480 OA
ATOM     11  H   UNL     1     -40.138  20.149   2.565  0.00  0.00    +0.295 HD
ENDBRANCH   9  10
ENDBRANCH   7   9
ENDBRANCH   6   7
ENDBRANCH   3   6
ENDBRANCH   1   4
BRANCH   1  12
ATOM     12  N   UNL     1     -36.931  25.265   4.457  0.00  0.00    +0.399 N 
ATOM     13  H   UNL     1     -37.820  25.296   4.958  0.00  0.00    -0.083 HD
ATOM     14  H   UNL     1     -36.709  26.186   4.076  0.00  0.00    -0.083 HD
BRANCH  12  15
ATOM     15  C   UNL     1     -35.878  24.871   5.376  0.00  0.00    +0.038 C 
BRANCH  15  16
ATOM     16  P   UNL     1     -34.525  25.948   4.933  0.00  0.00    +0.316 P 
ATOM     17  O   UNL     1     -33.495  25.294   4.059  0.00  0.00    -0.260 OA
BRANCH  16  18
ATOM     18  O   UNL     1     -35.232  27.246   4.279  0.00  0.00    -0.325 OA
ATOM     19  H   UNL     1     -34.587  27.729   3.738  0.00  0.00    +0.220 HD
ENDBRANCH  16  18
BRANCH  16  20
ATOM     20  O   UNL     1     -33.956  26.494   6.346  0.00  0.00    -0.325 OA
ATOM     21  H   UNL     1     -34.210  25.881   7.054  0.00  0.00    +0.220 HD
ENDBRANCH  16  20
ENDBRANCH  15  16
ENDBRANCH  12  15
ENDBRANCH   1  12
BRANCH   1  22
ATOM     22  C   UNL     1     -36.597  22.915   3.826  0.00  0.00    +0.014 C 
BRANCH  22  23
ATOM     23  C   UNL     1     -35.720  22.205   2.822  0.00  0.00    -0.024 C 
ATOM     24  C   UNL     1     -35.074  22.934   1.822  0.00  0.00    -0.004 C 
ATOM     25  C   UNL     1     -35.555  20.822   2.894  0.00  0.00    -0.004 C 
ATOM     26  C   UNL     1     -34.100  20.895   0.967  0.00  0.00    -0.000 C 
ATOM     27  C   UNL     1     -34.264  22.278   0.894  0.00  0.00    -0.000 C 
ATOM     28  C   UNL     1     -34.746  20.167   1.967  0.00  0.00    -0.000 C 
BRANCH  26  29
ATOM     29  C   UNL     1     -33.260  20.214   0.006  0.00  0.00    -0.000 C 
ATOM     30  C   UNL     1     -33.782  19.835  -1.231  0.00  0.00    -0.000 C 
ATOM     31  C   UNL     1     -31.928  19.938   0.315  0.00  0.00    -0.000 C 
ATOM     32  C   UNL     1     -32.972  19.178  -2.157  0.00  0.00    +0.000 C 
ATOM     33  C   UNL     1     -31.119  19.282  -0.613  0.00  0.00    +0.000 C 
ATOM     34  C   UNL     1     -31.641  18.902  -1.849  0.00  0.00    +0.000 C 
ENDBRANCH  26  29
ENDBRANCH  22  23
ENDBRANCH   1  22
TORSDOF 13
ENDMDL
