MODEL 1
REMARK VINA RESULT:      -5.6      0.000      0.000
REMARK  Name = 195992
REMARK  7 active torsions:
REMARK  status: ('A' for Active; 'I' for Inactive)
REMARK    1  A    between atoms: C_1  and  S_16
REMARK    2  A    between atoms: C_2  and  N_9
REMARK    3  A    between atoms: C_3  and  N_12
REMARK    4  A    between atoms: C_4  and  N_15
REMARK    5  A    between atoms: S_16  and  C_17
REMARK    6  A    between atoms: C_17  and  C_19
REMARK    7  A    between atoms: C_19  and  O_20
REMARK                            x       y       z     vdW  Elec       q    Type
REMARK                         _______ _______ _______ _____ _____    ______ ____
ROOT
ATOM      1  C   UNL     1     -36.334  24.106   3.732  0.00  0.00    +0.071 C 
ATOM      2  C   UNL     1     -35.514  23.690   4.781  0.00  0.00    +0.152 C 
ATOM      3  C   UNL     1     -36.233  25.408   3.242  0.00  0.00    +0.152 C 
ATOM      4  C   UNL     1     -34.491  25.877   4.848  0.00  0.00    +0.146 C 
ATOM      5  C   UNL     1     -34.592  24.576   5.339  0.00  0.00    +0.049 C 
ATOM      6  C   UNL     1     -35.311  26.293   3.800  0.00  0.00    +0.049 C 
ENDROOT
BRANCH   2   9
ATOM      7  O   UNL     1     -36.143  22.203   6.422  0.00  0.00    -0.126 OA
ATOM      8  O   UNL     1     -35.061  21.435   4.668  0.00  0.00    -0.126 OA
ATOM      9  N   UNL     1     -35.576  22.372   5.320  0.00  0.00    +0.058 N 
ENDBRANCH   2   9
BRANCH   3  12
ATOM     10  O   UNL     1     -36.679  25.663   0.998  0.00  0.00    -0.126 OA
ATOM     11  O   UNL     1     -38.096  26.506   2.453  0.00  0.00    -0.126 OA
ATOM     12  N   UNL     1     -37.046  25.884   2.174  0.00  0.00    +0.058 N 
ENDBRANCH   3  12
BRANCH   4  15
ATOM     13  O   UNL     1     -33.081  26.524   6.550  0.00  0.00    -0.126 OA
ATOM     14  O   UNL     1     -33.227  27.799   4.765  0.00  0.00    -0.126 OA
ATOM     15  N   UNL     1     -33.552  26.779   5.417  0.00  0.00    +0.058 N 
ENDBRANCH   4  15
BRANCH   1  16
ATOM     16  S   UNL     1     -37.525  22.961   3.011  0.00  0.00    -0.099 S 
BRANCH  16  17
ATOM     17  C   UNL     1     -36.504  22.135   1.764  0.00  0.00    +0.171 C 
BRANCH  17  19
ATOM     18  O   UNL     1     -37.480  20.253   0.616  0.00  0.00    -0.249 OA
ATOM     19  C   UNL     1     -36.950  20.708   1.622  0.00  0.00    +0.325 C 
BRANCH  19  20
ATOM     20  O   UNL     1     -36.686  19.964   2.726  0.00  0.00    -0.480 OA
ATOM     21  H   UNL     1     -36.185  19.175   2.651  0.00  0.00    +0.295 HD
ENDBRANCH  19  20
ENDBRANCH  17  19
ENDBRANCH  16  17
ENDBRANCH   1  16
TORSDOF 7
ENDMDL
MODEL 2
REMARK VINA RESULT:      -5.6      0.085      3.362
REMARK  Name = 195992
REMARK  7 active torsions:
REMARK  status: ('A' for Active; 'I' for Inactive)
REMARK    1  A    between atoms: C_1  and  S_16
REMARK    2  A    between atoms: C_2  and  N_9
REMARK    3  A    between atoms: C_3  and  N_12
REMARK    4  A    between atoms: C_4  and  N_15
REMARK    5  A    between atoms: S_16  and  C_17
REMARK    6  A    between atoms: C_17  and  C_19
REMARK    7  A    between atoms: C_19  and  O_20
REMARK                            x       y       z     vdW  Elec       q    Type
REMARK                         _______ _______ _______ _____ _____    ______ ____
ROOT
ATOM      1  C   UNL     1     -36.334  24.033   3.754  0.00  0.00    +0.071 C 
ATOM      2  C   UNL     1     -36.228  25.339   3.275  0.00  0.00    +0.152 C 
ATOM      3  C   UNL     1     -35.524  23.610   4.807  0.00  0.00    +0.152 C 
ATOM      4  C   UNL     1     -34.502  25.797   4.902  0.00  0.00    +0.146 C 
ATOM      5  C   UNL     1     -35.312  26.221   3.848  0.00  0.00    +0.049 C 
ATOM      6  C   UNL     1     -34.608  24.492   5.382  0.00  0.00    +0.049 C 
ENDROOT
BRANCH   2   9
ATOM      7  O   UNL     1     -38.079  26.450   2.473  0.00  0.00    -0.126 OA
ATOM      8  O   UNL     1     -36.654  25.604   1.027  0.00  0.00    -0.126 OA
ATOM      9  N   UNL     1     -37.031  25.824   2.201  0.00  0.00    +0.058 N 
ENDBRANCH   2   9
BRANCH   3  12
ATOM     10  O   UNL     1     -35.116  21.349   4.658  0.00  0.00    -0.126 OA
ATOM     11  O   UNL     1     -36.120  22.119   6.457  0.00  0.00    -0.126 OA
ATOM     12  N   UNL     1     -35.590  22.289   5.336  0.00  0.00    +0.058 N 
ENDBRANCH   3  12
BRANCH   4  15
ATOM     13  O   UNL     1     -33.240  27.722   4.847  0.00  0.00    -0.126 OA
ATOM     14  O   UNL     1     -33.109  26.430   6.621  0.00  0.00    -0.126 OA
ATOM     15  N   UNL     1     -33.570  26.695   5.486  0.00  0.00    +0.058 N 
ENDBRANCH   4  15
BRANCH   1  16
ATOM     16  S   UNL     1     -37.517  22.894   3.012  0.00  0.00    -0.099 S 
BRANCH  16  17
ATOM     17  C   UNL     1     -36.487  22.091   1.757  0.00  0.00    +0.171 C 
BRANCH  17  19
ATOM     18  O   UNL     1     -37.431  20.219   0.568  0.00  0.00    -0.249 OA
ATOM     19  C   UNL     1     -36.926  20.665   1.590  0.00  0.00    +0.325 C 
BRANCH  19  20
ATOM     20  O   UNL     1     -36.688  19.911   2.694  0.00  0.00    -0.480 OA
ATOM     21  H   UNL     1     -36.005  20.154   3.289  0.00  0.00    +0.295 HD
ENDBRANCH  19  20
ENDBRANCH  17  19
ENDBRANCH  16  17
ENDBRANCH   1  16
TORSDOF 7
ENDMDL
MODEL 3
REMARK VINA RESULT:      -5.2      1.893      3.589
REMARK  Name = 195992
REMARK  7 active torsions:
REMARK  status: ('A' for Active; 'I' for Inactive)
REMARK    1  A    between atoms: C_1  and  S_16
REMARK    2  A    between atoms: C_2  and  N_9
REMARK    3  A    between atoms: C_3  and  N_12
REMARK    4  A    between atoms: C_4  and  N_15
REMARK    5  A    between atoms: S_16  and  C_17
REMARK    6  A    between atoms: C_17  and  C_19
REMARK    7  A    between atoms: C_19  and  O_20
REMARK                            x       y       z     vdW  Elec       q    Type
REMARK                         _______ _______ _______ _____ _____    ______ ____
ROOT
ATOM      1  C   UNL     1     -36.644  24.418   2.299  0.00  0.00    +0.071 C 
ATOM      2  C   UNL     1     -36.865  25.723   2.740  0.00  0.00    +0.152 C 
ATOM      3  C   UNL     1     -35.522  23.715   2.739  0.00  0.00    +0.152 C 
ATOM      4  C   UNL     1     -34.844  25.622   4.058  0.00  0.00    +0.146 C 
ATOM      5  C   UNL     1     -35.965  26.325   3.619  0.00  0.00    +0.049 C 
ATOM      6  C   UNL     1     -34.622  24.317   3.619  0.00  0.00    +0.049 C 
ENDROOT
BRANCH   2   9
ATOM      7  O   UNL     1     -39.059  26.382   2.971  0.00  0.00    -0.126 OA
ATOM      8  O   UNL     1     -37.876  27.232   1.323  0.00  0.00    -0.126 OA
ATOM      9  N   UNL     1     -37.995  26.486   2.322  0.00  0.00    +0.058 N 
ENDBRANCH   2   9
BRANCH   3  12
ATOM     10  O   UNL     1     -35.671  21.435   3.022  0.00  0.00    -0.126 OA
ATOM     11  O   UNL     1     -34.592  22.208   1.268  0.00  0.00    -0.126 OA
ATOM     12  N   UNL     1     -35.247  22.382   2.321  0.00  0.00    +0.058 N 
ENDBRANCH   3  12
BRANCH   4  15
ATOM     13  O   UNL     1     -34.257  26.371   6.156  0.00  0.00    -0.126 OA
ATOM     14  O   UNL     1     -32.821  26.622   4.510  0.00  0.00    -0.126 OA
ATOM     15  N   UNL     1     -33.928  26.236   4.954  0.00  0.00    +0.058 N 
ENDBRANCH   4  15
BRANCH   1  16
ATOM     16  S   UNL     1     -37.806  23.641   1.163  0.00  0.00    -0.099 S 
BRANCH  16  17
ATOM     17  C   UNL     1     -39.042  22.992   2.318  0.00  0.00    +0.171 C 
BRANCH  17  19
ATOM     18  O   UNL     1     -40.407  21.144   1.588  0.00  0.00    -0.249 OA
ATOM     19  C   UNL     1     -39.325  21.555   1.988  0.00  0.00    +0.325 C 
BRANCH  19  20
ATOM     20  O   UNL     1     -38.244  20.754   2.166  0.00  0.00    -0.480 OA
ATOM     21  H   UNL     1     -38.186  19.936   1.711  0.00  0.00    +0.295 HD
ENDBRANCH  19  20
ENDBRANCH  17  19
ENDBRANCH  16  17
ENDBRANCH   1  16
TORSDOF 7
ENDMDL
MODEL 4
REMARK VINA RESULT:      -5.1      1.961      2.398
REMARK  Name = 195992
REMARK  7 active torsions:
REMARK  status: ('A' for Active; 'I' for Inactive)
REMARK    1  A    between atoms: C_1  and  S_16
REMARK    2  A    between atoms: C_2  and  N_9
REMARK    3  A    between atoms: C_3  and  N_12
REMARK    4  A    between atoms: C_4  and  N_15
REMARK    5  A    between atoms: S_16  and  C_17
REMARK    6  A    between atoms: C_17  and  C_19
REMARK    7  A    between atoms: C_19  and  O_20
REMARK                            x       y       z     vdW  Elec       q    Type
REMARK                         _______ _______ _______ _____ _____    ______ ____
ROOT
ATOM      1  C   UNL     1     -36.750  24.395   2.224  0.00  0.00    +0.071 C 
ATOM      2  C   UNL     1     -35.619  23.681   2.620  0.00  0.00    +0.152 C 
ATOM      3  C   UNL     1     -36.958  25.690   2.698  0.00  0.00    +0.152 C 
ATOM      4  C   UNL     1     -34.904  25.557   3.963  0.00  0.00    +0.146 C 
ATOM      5  C   UNL     1     -34.696  24.261   3.490  0.00  0.00    +0.049 C 
ATOM      6  C   UNL     1     -36.034  26.271   3.567  0.00  0.00    +0.049 C 
ENDROOT
BRANCH   2   9
ATOM      7  O   UNL     1     -34.746  22.202   1.086  0.00  0.00    -0.126 OA
ATOM      8  O   UNL     1     -35.752  21.395   2.867  0.00  0.00    -0.126 OA
ATOM      9  N   UNL     1     -35.358  22.354   2.166  0.00  0.00    +0.058 N 
ENDBRANCH   2   9
BRANCH   3  12
ATOM     10  O   UNL     1     -39.135  26.367   3.016  0.00  0.00    -0.126 OA
ATOM     11  O   UNL     1     -38.009  27.210   1.325  0.00  0.00    -0.126 OA
ATOM     12  N   UNL     1     -38.095  26.463   2.327  0.00  0.00    +0.058 N 
ENDBRANCH   3  12
BRANCH   4  15
ATOM     13  O   UNL     1     -32.794  26.344   4.444  0.00  0.00    -0.126 OA
ATOM     14  O   UNL     1     -34.337  26.452   6.006  0.00  0.00    -0.126 OA
ATOM     15  N   UNL     1     -33.964  26.147   4.849  0.00  0.00    +0.058 N 
ENDBRANCH   4  15
BRANCH   1  16
ATOM     16  S   UNL     1     -37.943  23.644   1.101  0.00  0.00    -0.099 S 
BRANCH  16  17
ATOM     17  C   UNL     1     -39.164  22.997   2.271  0.00  0.00    +0.171 C 
BRANCH  17  19
ATOM     18  O   UNL     1     -40.491  21.125   1.533  0.00  0.00    -0.249 OA
ATOM     19  C   UNL     1     -39.428  21.550   1.967  0.00  0.00    +0.325 C 
BRANCH  19  20
ATOM     20  O   UNL     1     -38.352  20.759   2.209  0.00  0.00    -0.480 OA
ATOM     21  H   UNL     1     -38.248  20.353   3.048  0.00  0.00    +0.295 HD
ENDBRANCH  19  20
ENDBRANCH  17  19
ENDBRANCH  16  17
ENDBRANCH   1  16
TORSDOF 7
ENDMDL
MODEL 5
REMARK VINA RESULT:      -5.0      2.095      3.421
REMARK  Name = 195992
REMARK  7 active torsions:
REMARK  status: ('A' for Active; 'I' for Inactive)
REMARK    1  A    between atoms: C_1  and  S_16
REMARK    2  A    between atoms: C_2  and  N_9
REMARK    3  A    between atoms: C_3  and  N_12
REMARK    4  A    between atoms: C_4  and  N_15
REMARK    5  A    between atoms: S_16  and  C_17
REMARK    6  A    between atoms: C_17  and  C_19
REMARK    7  A    between atoms: C_19  and  O_20
REMARK                            x       y       z     vdW  Elec       q    Type
REMARK                         _______ _______ _______ _____ _____    ______ ____
ROOT
ATOM      1  C   UNL     1     -34.929  25.046   2.927  0.00  0.00    +0.071 C 
ATOM      2  C   UNL     1     -33.856  25.812   2.471  0.00  0.00    +0.152 C 
ATOM      3  C   UNL     1     -35.295  25.091   4.273  0.00  0.00    +0.152 C 
ATOM      4  C   UNL     1     -33.516  26.668   4.704  0.00  0.00    +0.146 C 
ATOM      5  C   UNL     1     -33.149  26.623   3.360  0.00  0.00    +0.049 C 
ATOM      6  C   UNL     1     -34.588  25.902   5.161  0.00  0.00    +0.049 C 
ENDROOT
BRANCH   2   9
ATOM      7  O   UNL     1     -33.979  26.604   0.313  0.00  0.00    -0.126 OA
ATOM      8  O   UNL     1     -32.549  24.995   0.760  0.00  0.00    -0.126 OA
ATOM      9  N   UNL     1     -33.440  25.804   1.108  0.00  0.00    +0.058 N 
ENDBRANCH   2   9
BRANCH   3  12
ATOM     10  O   UNL     1     -36.127  23.367   5.552  0.00  0.00    -0.126 OA
ATOM     11  O   UNL     1     -37.546  24.653   4.469  0.00  0.00    -0.126 OA
ATOM     12  N   UNL     1     -36.380  24.330   4.792  0.00  0.00    +0.058 N 
ENDBRANCH   3  12
BRANCH   4  15
ATOM     13  O   UNL     1     -32.394  27.000   6.688  0.00  0.00    -0.126 OA
ATOM     14  O   UNL     1     -32.587  28.690   5.295  0.00  0.00    -0.126 OA
ATOM     15  N   UNL     1     -32.796  27.494   5.608  0.00  0.00    +0.058 N 
ENDBRANCH   4  15
BRANCH   1  16
ATOM     16  S   UNL     1     -35.841  23.998   1.780  0.00  0.00    -0.099 S 
BRANCH  16  17
ATOM     17  C   UNL     1     -34.956  22.429   1.962  0.00  0.00    +0.171 C 
BRANCH  17  19
ATOM     18  O   UNL     1     -35.471  20.320   3.010  0.00  0.00    -0.249 OA
ATOM     19  C   UNL     1     -35.829  21.445   2.686  0.00  0.00    +0.325 C 
BRANCH  19  20
ATOM     20  O   UNL     1     -37.062  21.943   2.960  0.00  0.00    -0.480 OA
ATOM     21  H   UNL     1     -37.444  21.809   3.806  0.00  0.00    +0.295 HD
ENDBRANCH  19  20
ENDBRANCH  17  19
ENDBRANCH  16  17
ENDBRANCH   1  16
TORSDOF 7
ENDMDL
MODEL 6
REMARK VINA RESULT:      -5.0      2.092      2.589
REMARK  Name = 195992
REMARK  7 active torsions:
REMARK  status: ('A' for Active; 'I' for Inactive)
REMARK    1  A    between atoms: C_1  and  S_16
REMARK    2  A    between atoms: C_2  and  N_9
REMARK    3  A    between atoms: C_3  and  N_12
REMARK    4  A    between atoms: C_4  and  N_15
REMARK    5  A    between atoms: S_16  and  C_17
REMARK    6  A    between atoms: C_17  and  C_19
REMARK    7  A    between atoms: C_19  and  O_20
REMARK                            x       y       z     vdW  Elec       q    Type
REMARK                         _______ _______ _______ _____ _____    ______ ____
ROOT
ATOM      1  C   UNL     1     -34.929  25.046   2.928  0.00  0.00    +0.071 C 
ATOM      2  C   UNL     1     -35.294  25.089   4.274  0.00  0.00    +0.152 C 
ATOM      3  C   UNL     1     -33.858  25.814   2.471  0.00  0.00    +0.152 C 
ATOM      4  C   UNL     1     -33.516  26.667   4.706  0.00  0.00    +0.146 C 
ATOM      5  C   UNL     1     -34.587  25.900   5.163  0.00  0.00    +0.049 C 
ATOM      6  C   UNL     1     -33.152  26.624   3.360  0.00  0.00    +0.049 C 
ENDROOT
BRANCH   2   9
ATOM      7  O   UNL     1     -36.125  23.361   5.548  0.00  0.00    -0.126 OA
ATOM      8  O   UNL     1     -37.546  24.651   4.474  0.00  0.00    -0.126 OA
ATOM      9  N   UNL     1     -36.380  24.325   4.794  0.00  0.00    +0.058 N 
ENDBRANCH   2   9
BRANCH   3  12
ATOM     10  O   UNL     1     -32.572  24.985   0.751  0.00  0.00    -0.126 OA
ATOM     11  O   UNL     1     -33.970  26.628   0.320  0.00  0.00    -0.126 OA
ATOM     12  N   UNL     1     -33.444  25.809   1.109  0.00  0.00    +0.058 N 
ENDBRANCH   3  12
BRANCH   4  15
ATOM     13  O   UNL     1     -32.576  28.684   5.295  0.00  0.00    -0.126 OA
ATOM     14  O   UNL     1     -32.409  26.998   6.697  0.00  0.00    -0.126 OA
ATOM     15  N   UNL     1     -32.797  27.492   5.611  0.00  0.00    +0.058 N 
ENDBRANCH   4  15
BRANCH   1  16
ATOM     16  S   UNL     1     -35.842  24.000   1.780  0.00  0.00    -0.099 S 
BRANCH  16  17
ATOM     17  C   UNL     1     -34.963  22.427   1.966  0.00  0.00    +0.171 C 
BRANCH  17  19
ATOM     18  O   UNL     1     -35.502  20.308   2.981  0.00  0.00    -0.249 OA
ATOM     19  C   UNL     1     -35.848  21.442   2.674  0.00  0.00    +0.325 C 
BRANCH  19  20
ATOM     20  O   UNL     1     -37.076  21.947   2.953  0.00  0.00    -0.480 OA
ATOM     21  H   UNL     1     -37.476  22.560   2.367  0.00  0.00    +0.295 HD
ENDBRANCH  19  20
ENDBRANCH  17  19
ENDBRANCH  16  17
ENDBRANCH   1  16
TORSDOF 7
ENDMDL
MODEL 7
REMARK VINA RESULT:      -5.0      2.243      6.522
REMARK  Name = 195992
REMARK  7 active torsions:
REMARK  status: ('A' for Active; 'I' for Inactive)
REMARK    1  A    between atoms: C_1  and  S_16
REMARK    2  A    between atoms: C_2  and  N_9
REMARK    3  A    between atoms: C_3  and  N_12
REMARK    4  A    between atoms: C_4  and  N_15
REMARK    5  A    between atoms: S_16  and  C_17
REMARK    6  A    between atoms: C_17  and  C_19
REMARK    7  A    between atoms: C_19  and  O_20
REMARK                            x       y       z     vdW  Elec       q    Type
REMARK                         _______ _______ _______ _____ _____    ______ ____
ROOT
ATOM      1  C   UNL     1     -36.494  23.142   2.620  0.00  0.00    +0.071 C 
ATOM      2  C   UNL     1     -37.577  23.823   2.064  0.00  0.00    +0.152 C 
ATOM      3  C   UNL     1     -36.439  21.749   2.555  0.00  0.00    +0.152 C 
ATOM      4  C   UNL     1     -38.548  21.720   1.378  0.00  0.00    +0.146 C 
ATOM      5  C   UNL     1     -38.605  23.112   1.443  0.00  0.00    +0.049 C 
ATOM      6  C   UNL     1     -37.466  21.039   1.933  0.00  0.00    +0.049 C 
ENDROOT
BRANCH   2   9
ATOM      7  O   UNL     1     -38.340  25.769   3.030  0.00  0.00    -0.126 OA
ATOM      8  O   UNL     1     -37.116  25.911   1.208  0.00  0.00    -0.126 OA
ATOM      9  N   UNL     1     -37.684  25.244   2.103  0.00  0.00    +0.058 N 
ENDBRANCH   2   9
BRANCH   3  12
ATOM     10  O   UNL     1     -34.541  20.467   2.324  0.00  0.00    -0.126 OA
ATOM     11  O   UNL     1     -35.266  20.915   4.352  0.00  0.00    -0.126 OA
ATOM     12  N   UNL     1     -35.358  21.004   3.106  0.00  0.00    +0.058 N 
ENDBRANCH   3  12
BRANCH   4  15
ATOM     13  O   UNL     1     -40.782  21.287   1.023  0.00  0.00    -0.126 OA
ATOM     14  O   UNL     1     -39.294  20.094  -0.070  0.00  0.00    -0.126 OA
ATOM     15  N   UNL     1     -39.595  20.997   0.745  0.00  0.00    +0.058 N 
ENDBRANCH   4  15
BRANCH   1  16
ATOM     16  S   UNL     1     -35.168  24.060   3.423  0.00  0.00    -0.099 S 
BRANCH  16  17
ATOM     17  C   UNL     1     -35.892  24.363   5.055  0.00  0.00    +0.171 C 
BRANCH  17  19
ATOM     18  O   UNL     1     -34.570  26.182   5.923  0.00  0.00    -0.249 OA
ATOM     19  C   UNL     1     -35.631  25.786   5.459  0.00  0.00    +0.325 C 
BRANCH  19  20
ATOM     20  O   UNL     1     -36.697  26.596   5.240  0.00  0.00    -0.480 OA
ATOM     21  H   UNL     1     -37.392  26.317   4.676  0.00  0.00    +0.295 HD
ENDBRANCH  19  20
ENDBRANCH  17  19
ENDBRANCH  16  17
ENDBRANCH   1  16
TORSDOF 7
ENDMDL
MODEL 8
REMARK VINA RESULT:      -5.0      2.264      5.848
REMARK  Name = 195992
REMARK  7 active torsions:
REMARK  status: ('A' for Active; 'I' for Inactive)
REMARK    1  A    between atoms: C_1  and  S_16
REMARK    2  A    between atoms: C_2  and  N_9
REMARK    3  A    between atoms: C_3  and  N_12
REMARK    4  A    between atoms: C_4  and  N_15
REMARK    5  A    between atoms: S_16  and  C_17
REMARK    6  A    between atoms: C_17  and  C_19
REMARK    7  A    between atoms: C_19  and  O_20
REMARK                            x       y       z     vdW  Elec       q    Type
REMARK                         _______ _______ _______ _____ _____    ______ ____
ROOT
ATOM      1  C   UNL     1     -36.498  23.066   2.586  0.00  0.00    +0.071 C 
ATOM      2  C   UNL     1     -36.441  21.676   2.480  0.00  0.00    +0.152 C 
ATOM      3  C   UNL     1     -37.591  23.759   2.067  0.00  0.00    +0.152 C 
ATOM      4  C   UNL     1     -38.569  21.674   1.339  0.00  0.00    +0.146 C 
ATOM      5  C   UNL     1     -37.476  20.980   1.856  0.00  0.00    +0.049 C 
ATOM      6  C   UNL     1     -38.627  23.064   1.444  0.00  0.00    +0.049 C 
ENDROOT
BRANCH   2   9
ATOM      7  O   UNL     1     -34.534  20.419   2.183  0.00  0.00    -0.126 OA
ATOM      8  O   UNL     1     -35.244  20.781   4.233  0.00  0.00    -0.126 OA
ATOM      9  N   UNL     1     -35.347  20.917   2.992  0.00  0.00    +0.058 N 
ENDBRANCH   2   9
BRANCH   3  12
ATOM     10  O   UNL     1     -38.347  25.675   3.097  0.00  0.00    -0.126 OA
ATOM     11  O   UNL     1     -37.146  25.871   1.264  0.00  0.00    -0.126 OA
ATOM     12  N   UNL     1     -37.701  25.177   2.147  0.00  0.00    +0.058 N 
ENDBRANCH   3  12
BRANCH   4  15
ATOM     13  O   UNL     1     -40.807  21.257   0.993  0.00  0.00    -0.126 OA
ATOM     14  O   UNL     1     -39.332  20.071  -0.126  0.00  0.00    -0.126 OA
ATOM     15  N   UNL     1     -39.623  20.965   0.703  0.00  0.00    +0.058 N 
ENDBRANCH   4  15
BRANCH   1  16
ATOM     16  S   UNL     1     -35.160  23.964   3.392  0.00  0.00    -0.099 S 
BRANCH  16  17
ATOM     17  C   UNL     1     -35.870  24.250   5.033  0.00  0.00    +0.171 C 
BRANCH  17  19
ATOM     18  O   UNL     1     -34.452  25.964   5.961  0.00  0.00    -0.249 OA
ATOM     19  C   UNL     1     -35.534  25.641   5.487  0.00  0.00    +0.325 C 
BRANCH  19  20
ATOM     20  O   UNL     1     -36.555  26.514   5.299  0.00  0.00    -0.480 OA
ATOM     21  H   UNL     1     -36.566  27.068   4.542  0.00  0.00    +0.295 HD
ENDBRANCH  19  20
ENDBRANCH  17  19
ENDBRANCH  16  17
ENDBRANCH   1  16
TORSDOF 7
ENDMDL
MODEL 9
REMARK VINA RESULT:      -4.9      2.833      5.632
REMARK  Name = 195992
REMARK  7 active torsions:
REMARK  status: ('A' for Active; 'I' for Inactive)
REMARK    1  A    between atoms: C_1  and  S_16
REMARK    2  A    between atoms: C_2  and  N_9
REMARK    3  A    between atoms: C_3  and  N_12
REMARK    4  A    between atoms: C_4  and  N_15
REMARK    5  A    between atoms: S_16  and  C_17
REMARK    6  A    between atoms: C_17  and  C_19
REMARK    7  A    between atoms: C_19  and  O_20
REMARK                            x       y       z     vdW  Elec       q    Type
REMARK                         _______ _______ _______ _____ _____    ______ ____
ROOT
ATOM      1  C   UNL     1     -37.840  22.583   2.383  0.00  0.00    +0.071 C 
ATOM      2  C   UNL     1     -36.578  22.546   2.977  0.00  0.00    +0.152 C 
ATOM      3  C   UNL     1     -38.192  21.625   1.433  0.00  0.00    +0.152 C 
ATOM      4  C   UNL     1     -36.022  20.590   1.672  0.00  0.00    +0.146 C 
ATOM      5  C   UNL     1     -35.669  21.549   2.621  0.00  0.00    +0.049 C 
ATOM      6  C   UNL     1     -37.283  20.628   1.078  0.00  0.00    +0.049 C 
ENDROOT
BRANCH   2   9
ATOM      7  O   UNL     1     -35.570  24.530   3.566  0.00  0.00    -0.126 OA
ATOM      8  O   UNL     1     -36.419  23.271   5.157  0.00  0.00    -0.126 OA
ATOM      9  N   UNL     1     -36.166  23.501   3.952  0.00  0.00    +0.058 N 
ENDBRANCH   2   9
BRANCH   3  12
ATOM     10  O   UNL     1     -39.588  22.199  -0.305  0.00  0.00    -0.126 OA
ATOM     11  O   UNL     1     -40.414  21.026   1.362  0.00  0.00    -0.126 OA
ATOM     12  N   UNL     1     -39.466  21.616   0.796  0.00  0.00    +0.058 N 
ENDBRANCH   3  12
BRANCH   4  15
ATOM     13  O   UNL     1     -34.035  19.465   1.969  0.00  0.00    -0.126 OA
ATOM     14  O   UNL     1     -35.371  18.827   0.344  0.00  0.00    -0.126 OA
ATOM     15  N   UNL     1     -35.095  19.576   1.310  0.00  0.00    +0.058 N 
ENDBRANCH   4  15
BRANCH   1  16
ATOM     16  S   UNL     1     -39.014  23.871   2.842  0.00  0.00    -0.099 S 
BRANCH  16  17
ATOM     17  C   UNL     1     -38.676  25.119   1.574  0.00  0.00    +0.171 C 
BRANCH  17  19
ATOM     18  O   UNL     1     -37.795  27.362   1.613  0.00  0.00    -0.249 OA
ATOM     19  C   UNL     1     -38.133  26.358   2.226  0.00  0.00    +0.325 C 
BRANCH  19  20
ATOM     20  O   UNL     1     -38.070  26.254   3.578  0.00  0.00    -0.480 OA
ATOM     21  H   UNL     1     -38.522  26.874   4.117  0.00  0.00    +0.295 HD
ENDBRANCH  19  20
ENDBRANCH  17  19
ENDBRANCH  16  17
ENDBRANCH   1  16
TORSDOF 7
ENDMDL
