MODEL 1
REMARK VINA RESULT:      -6.8      0.000      0.000
REMARK  Name = 57352130
REMARK  10 active torsions:
REMARK  status: ('A' for Active; 'I' for Inactive)
REMARK    1  A    between atoms: C_3  and  C_29
REMARK    2  A    between atoms: C_8  and  O_23
REMARK    3  A    between atoms: C_18  and  O_25
REMARK    4  A    between atoms: C_19  and  O_27
REMARK    5  A    between atoms: C_29  and  C_31
REMARK    6  A    between atoms: C_31  and  C_32
REMARK    7  A    between atoms: C_32  and  C_33
REMARK    8  A    between atoms: C_33  and  C_34
REMARK    9  A    between atoms: C_33  and  O_39
REMARK   10  A    between atoms: C_34  and  O_37
REMARK                            x       y       z     vdW  Elec       q    Type
REMARK                         _______ _______ _______ _____ _____    ______ ____
ROOT
ATOM      1  C   UNL     1     -36.116  25.176   4.259  0.00  0.00    +0.028 C 
ATOM      2  C   UNL     1     -35.583  23.696   4.408  0.00  0.00    +0.017 C 
ATOM      3  C   UNL     1     -35.151  25.767   3.171  0.00  0.00    +0.003 C 
ATOM      4  C   UNL     1     -37.533  22.105   1.275  0.00  0.00    +0.017 C 
ATOM      5  C   UNL     1     -36.028  22.769   3.239  0.00  0.00    -0.053 C 
ATOM      6  C   UNL     1     -37.069  23.061   2.417  0.00  0.00    -0.050 C 
ATOM      7  C   UNL     1     -36.335  21.185   0.843  0.00  0.00    +0.006 C 
ATOM      8  C   UNL     1     -37.603  25.142   3.841  0.00  0.00    +0.115 C 
ATOM      9  C   UNL     1     -34.057  23.945   4.409  0.00  0.00    +0.004 C 
ATOM     10  C   UNL     1     -33.814  25.023   3.358  0.00  0.00    +0.000 C 
ATOM     11  C   UNL     1     -37.867  24.340   2.570  0.00  0.00    +0.051 C 
ATOM     12  C   UNL     1     -36.548  20.265  -0.418  0.00  0.00    +0.027 C 
ATOM     13  C   UNL     1     -35.227  21.487   3.070  0.00  0.00    +0.021 C 
ATOM     14  C   UNL     1     -35.781  20.466   2.079  0.00  0.00    +0.005 C 
ATOM     15  C   UNL     1     -37.986  22.886   0.017  0.00  0.00    +0.035 C 
ATOM     16  C   UNL     1     -36.019  25.998   5.573  0.00  0.00    +0.003 C 
ATOM     17  C   UNL     1     -36.007  23.026   5.731  0.00  0.00    +0.004 C 
ATOM     18  C   UNL     1     -37.120  21.125  -1.584  0.00  0.00    +0.137 C 
ATOM     19  C   UNL     1     -38.309  21.996  -1.180  0.00  0.00    +0.137 C 
ATOM     20  C   UNL     1     -38.746  21.339   1.858  0.00  0.00    +0.004 C 
ATOM     21  C   UNL     1     -35.166  19.717  -0.878  0.00  0.00    +0.002 C 
ATOM     22  C   UNL     1     -37.427  19.023  -0.156  0.00  0.00    +0.002 C 
ENDROOT
BRANCH   8  23
ATOM     23  O   UNL     1     -38.138  26.454   3.675  0.00  0.00    -0.384 OA
ATOM     24  H   UNL     1     -39.087  26.395   3.486  0.00  0.00    +0.210 HD
ENDBRANCH   8  23
BRANCH  18  25
ATOM     25  O   UNL     1     -37.549  20.301  -2.672  0.00  0.00    -0.382 OA
ATOM     26  H   UNL     1     -37.977  20.852  -3.347  0.00  0.00    +0.210 HD
ENDBRANCH  18  25
BRANCH  19  27
ATOM     27  O   UNL     1     -38.645  22.859  -2.272  0.00  0.00    -0.382 OA
ATOM     28  H   UNL     1     -38.082  22.648  -3.034  0.00  0.00    +0.210 HD
ENDBRANCH  19  27
BRANCH   3  29
ATOM     29  C   UNL     1     -34.938  27.279   3.163  0.00  0.00    +0.000 C 
ATOM     30  C   UNL     1     -35.706  27.906   1.995  0.00  0.00    +0.000 C 
BRANCH  29  31
ATOM     31  C   UNL     1     -33.448  27.667   3.072  0.00  0.00    +0.003 C 
BRANCH  31  32
ATOM     32  C   UNL     1     -33.026  28.714   4.115  0.00  0.00    +0.032 C 
BRANCH  32  33
ATOM     33  C   UNL     1     -31.635  28.416   4.697  0.00  0.00    +0.135 C 
BRANCH  33  34
ATOM     34  C   UNL     1     -31.603  28.214   6.234  0.00  0.00    +0.113 C 
ATOM     35  C   UNL     1     -32.695  27.267   6.739  0.00  0.00    +0.032 C 
ATOM     36  C   UNL     1     -31.666  29.539   6.997  0.00  0.00    +0.032 C 
BRANCH  34  37
ATOM     37  O   UNL     1     -30.349  27.597   6.562  0.00  0.00    -0.384 OA
ATOM     38  H   UNL     1     -30.079  27.009   5.839  0.00  0.00    +0.210 HD
ENDBRANCH  34  37
ENDBRANCH  33  34
BRANCH  33  39
ATOM     39  O   UNL     1     -30.769  29.501   4.352  0.00  0.00    -0.382 OA
ATOM     40  H   UNL     1     -30.636  30.068   5.128  0.00  0.00    +0.210 HD
ENDBRANCH  33  39
ENDBRANCH  32  33
ENDBRANCH  31  32
ENDBRANCH  29  31
ENDBRANCH   3  29
TORSDOF 10
ENDMDL
MODEL 2
REMARK VINA RESULT:      -6.7      2.459      3.404
REMARK  Name = 57352130
REMARK  10 active torsions:
REMARK  status: ('A' for Active; 'I' for Inactive)
REMARK    1  A    between atoms: C_3  and  C_29
REMARK    2  A    between atoms: C_8  and  O_23
REMARK    3  A    between atoms: C_18  and  O_25
REMARK    4  A    between atoms: C_19  and  O_27
REMARK    5  A    between atoms: C_29  and  C_31
REMARK    6  A    between atoms: C_31  and  C_32
REMARK    7  A    between atoms: C_32  and  C_33
REMARK    8  A    between atoms: C_33  and  C_34
REMARK    9  A    between atoms: C_33  and  O_39
REMARK   10  A    between atoms: C_34  and  O_37
REMARK                            x       y       z     vdW  Elec       q    Type
REMARK                         _______ _______ _______ _____ _____    ______ ____
ROOT
ATOM      1  C   UNL     1     -35.544  25.149   2.610  0.00  0.00    +0.028 C 
ATOM      2  C   UNL     1     -35.990  23.727   3.134  0.00  0.00    +0.017 C 
ATOM      3  C   UNL     1     -34.069  25.248   3.137  0.00  0.00    +0.003 C 
ATOM      4  C   UNL     1     -34.387  21.535   0.172  0.00  0.00    +0.017 C 
ATOM      5  C   UNL     1     -35.409  22.556   2.287  0.00  0.00    -0.053 C 
ATOM      6  C   UNL     1     -34.928  22.722   1.028  0.00  0.00    -0.050 C 
ATOM      7  C   UNL     1     -33.915  20.376   1.122  0.00  0.00    +0.006 C 
ATOM      8  C   UNL     1     -35.675  25.188   1.070  0.00  0.00    +0.115 C 
ATOM      9  C   UNL     1     -35.406  23.759   4.566  0.00  0.00    +0.004 C 
ATOM     10  C   UNL     1     -34.040  24.424   4.440  0.00  0.00    +0.000 C 
ATOM     11  C   UNL     1     -34.903  24.081   0.359  0.00  0.00    +0.051 C 
ATOM     12  C   UNL     1     -33.174  19.155   0.459  0.00  0.00    +0.027 C 
ATOM     13  C   UNL     1     -35.420  21.189   2.953  0.00  0.00    +0.021 C 
ATOM     14  C   UNL     1     -35.064  19.999   2.065  0.00  0.00    +0.005 C 
ATOM     15  C   UNL     1     -33.164  21.950  -0.683  0.00  0.00    +0.035 C 
ATOM     16  C   UNL     1     -36.402  26.310   3.181  0.00  0.00    +0.003 C 
ATOM     17  C   UNL     1     -37.521  23.552   3.195  0.00  0.00    +0.004 C 
ATOM     18  C   UNL     1     -32.046  19.689  -0.474  0.00  0.00    +0.137 C 
ATOM     19  C   UNL     1     -32.506  20.791  -1.427  0.00  0.00    +0.137 C 
ATOM     20  C   UNL     1     -35.555  21.151  -0.770  0.00  0.00    +0.004 C 
ATOM     21  C   UNL     1     -32.493  18.313   1.578  0.00  0.00    +0.002 C 
ATOM     22  C   UNL     1     -34.105  18.179  -0.292  0.00  0.00    +0.002 C 
ENDROOT
BRANCH   8  23
ATOM     23  O   UNL     1     -35.270  26.447   0.536  0.00  0.00    -0.384 OA
ATOM     24  H   UNL     1     -35.094  26.353  -0.414  0.00  0.00    +0.210 HD
ENDBRANCH   8  23
BRANCH  18  25
ATOM     25  O   UNL     1     -31.497  18.638  -1.275  0.00  0.00    -0.382 OA
ATOM     26  H   UNL     1     -31.736  18.782  -2.205  0.00  0.00    +0.210 HD
ENDBRANCH  18  25
BRANCH  19  27
ATOM     27  O   UNL     1     -31.366  21.319  -2.111  0.00  0.00    -0.382 OA
ATOM     28  H   UNL     1     -30.765  20.593  -2.344  0.00  0.00    +0.210 HD
ENDBRANCH  19  27
BRANCH   3  29
ATOM     29  C   UNL     1     -33.491  26.643   3.361  0.00  0.00    +0.000 C 
ATOM     30  C   UNL     1     -32.203  26.810   2.548  0.00  0.00    +0.000 C 
BRANCH  29  31
ATOM     31  C   UNL     1     -33.208  26.937   4.848  0.00  0.00    +0.003 C 
BRANCH  31  32
ATOM     32  C   UNL     1     -32.476  28.268   5.078  0.00  0.00    +0.032 C 
BRANCH  32  33
ATOM     33  C   UNL     1     -31.689  28.270   6.398  0.00  0.00    +0.135 C 
BRANCH  33  34
ATOM     34  C   UNL     1     -30.150  28.367   6.238  0.00  0.00    +0.113 C 
ATOM     35  C   UNL     1     -29.541  29.555   6.989  0.00  0.00    +0.032 C 
ATOM     36  C   UNL     1     -29.718  28.400   4.770  0.00  0.00    +0.032 C 
BRANCH  34  37
ATOM     37  O   UNL     1     -29.580  27.185   6.820  0.00  0.00    -0.384 OA
ATOM     38  H   UNL     1     -28.901  27.438   7.465  0.00  0.00    +0.210 HD
ENDBRANCH  34  37
ENDBRANCH  33  34
BRANCH  33  39
ATOM     39  O   UNL     1     -32.009  27.069   7.106  0.00  0.00    -0.382 OA
ATOM     40  H   UNL     1     -31.593  27.089   7.983  0.00  0.00    +0.210 HD
ENDBRANCH  33  39
ENDBRANCH  32  33
ENDBRANCH  31  32
ENDBRANCH  29  31
ENDBRANCH   3  29
TORSDOF 10
ENDMDL
MODEL 3
REMARK VINA RESULT:      -6.3      3.910      9.115
REMARK  Name = 57352130
REMARK  10 active torsions:
REMARK  status: ('A' for Active; 'I' for Inactive)
REMARK    1  A    between atoms: C_3  and  C_29
REMARK    2  A    between atoms: C_8  and  O_23
REMARK    3  A    between atoms: C_18  and  O_25
REMARK    4  A    between atoms: C_19  and  O_27
REMARK    5  A    between atoms: C_29  and  C_31
REMARK    6  A    between atoms: C_31  and  C_32
REMARK    7  A    between atoms: C_32  and  C_33
REMARK    8  A    between atoms: C_33  and  C_34
REMARK    9  A    between atoms: C_33  and  O_39
REMARK   10  A    between atoms: C_34  and  O_37
REMARK                            x       y       z     vdW  Elec       q    Type
REMARK                         _______ _______ _______ _____ _____    ______ ____
ROOT
ATOM      1  C   UNL     1     -34.054  20.271  -0.688  0.00  0.00    +0.028 C 
ATOM      2  C   UNL     1     -33.886  21.794  -1.072  0.00  0.00    +0.017 C 
ATOM      3  C   UNL     1     -32.797  20.019   0.218  0.00  0.00    +0.003 C 
ATOM      4  C   UNL     1     -35.500  23.370   2.254  0.00  0.00    +0.017 C 
ATOM      5  C   UNL     1     -34.289  22.761   0.081  0.00  0.00    -0.053 C 
ATOM      6  C   UNL     1     -35.068  22.382   1.126  0.00  0.00    -0.050 C 
ATOM      7  C   UNL     1     -34.465  24.549   2.342  0.00  0.00    +0.006 C 
ATOM      8  C   UNL     1     -35.408  20.073   0.031  0.00  0.00    +0.115 C 
ATOM      9  C   UNL     1     -32.371  21.842  -1.375  0.00  0.00    +0.004 C 
ATOM     10  C   UNL     1     -31.709  20.974  -0.311  0.00  0.00    +0.000 C 
ATOM     11  C   UNL     1     -35.590  20.966   1.256  0.00  0.00    +0.051 C 
ATOM     12  C   UNL     1     -34.626  25.563   3.536  0.00  0.00    +0.027 C 
ATOM     13  C   UNL     1     -33.761  24.182  -0.034  0.00  0.00    +0.021 C 
ATOM     14  C   UNL     1     -34.321  25.197   0.960  0.00  0.00    +0.005 C 
ATOM     15  C   UNL     1     -35.529  22.683   3.642  0.00  0.00    +0.035 C 
ATOM     16  C   UNL     1     -34.036  19.322  -1.916  0.00  0.00    +0.003 C 
ATOM     17  C   UNL     1     -34.686  22.197  -2.328  0.00  0.00    +0.004 C 
ATOM     18  C   UNL     1     -34.769  24.766   4.866  0.00  0.00    +0.137 C 
ATOM     19  C   UNL     1     -35.801  23.640   4.800  0.00  0.00    +0.137 C 
ATOM     20  C   UNL     1     -36.936  23.809   1.878  0.00  0.00    +0.004 C 
ATOM     21  C   UNL     1     -33.330  26.420   3.644  0.00  0.00    +0.002 C 
ATOM     22  C   UNL     1     -35.782  26.571   3.360  0.00  0.00    +0.002 C 
ENDROOT
BRANCH   8  23
ATOM     23  O   UNL     1     -35.610  18.715   0.419  0.00  0.00    -0.384 OA
ATOM     24  H   UNL     1     -34.750  18.289   0.560  0.00  0.00    +0.210 HD
ENDBRANCH   8  23
BRANCH  18  25
ATOM     25  O   UNL     1     -35.150  25.624   5.946  0.00  0.00    -0.382 OA
ATOM     26  H   UNL     1     -34.475  26.311   6.067  0.00  0.00    +0.210 HD
ENDBRANCH  18  25
BRANCH  19  27
ATOM     27  O   UNL     1     -35.732  22.875   6.007  0.00  0.00    -0.382 OA
ATOM     28  H   UNL     1     -34.929  23.115   6.496  0.00  0.00    +0.210 HD
ENDBRANCH  19  27
BRANCH   3  29
ATOM     29  C   UNL     1     -32.270  18.588   0.311  0.00  0.00    +0.000 C 
ATOM     30  C   UNL     1     -32.528  18.028   1.713  0.00  0.00    +0.000 C 
BRANCH  29  31
ATOM     31  C   UNL     1     -30.766  18.488  -0.019  0.00  0.00    +0.003 C 
BRANCH  31  32
ATOM     32  C   UNL     1     -30.466  17.580  -1.222  0.00  0.00    +0.032 C 
BRANCH  32  33
ATOM     33  C   UNL     1     -30.131  16.144  -0.788  0.00  0.00    +0.135 C 
BRANCH  33  34
ATOM     34  C   UNL     1     -31.271  15.117  -1.001  0.00  0.00    +0.113 C 
ATOM     35  C   UNL     1     -30.776  13.769  -1.534  0.00  0.00    +0.032 C 
ATOM     36  C   UNL     1     -32.383  15.659  -1.904  0.00  0.00    +0.032 C 
BRANCH  34  37
ATOM     37  O   UNL     1     -31.860  14.853   0.281  0.00  0.00    -0.384 OA
ATOM     38  H   UNL     1     -31.192  14.971   0.974  0.00  0.00    +0.210 HD
ENDBRANCH  34  37
ENDBRANCH  33  34
BRANCH  33  39
ATOM     39  O   UNL     1     -29.781  16.172   0.600  0.00  0.00    -0.382 OA
ATOM     40  H   UNL     1     -29.447  17.053   0.831  0.00  0.00    +0.210 HD
ENDBRANCH  33  39
ENDBRANCH  32  33
ENDBRANCH  31  32
ENDBRANCH  29  31
ENDBRANCH   3  29
TORSDOF 10
ENDMDL
MODEL 4
REMARK VINA RESULT:      -6.0      4.261      9.065
REMARK  Name = 57352130
REMARK  10 active torsions:
REMARK  status: ('A' for Active; 'I' for Inactive)
REMARK    1  A    between atoms: C_3  and  C_29
REMARK    2  A    between atoms: C_8  and  O_23
REMARK    3  A    between atoms: C_18  and  O_25
REMARK    4  A    between atoms: C_19  and  O_27
REMARK    5  A    between atoms: C_29  and  C_31
REMARK    6  A    between atoms: C_31  and  C_32
REMARK    7  A    between atoms: C_32  and  C_33
REMARK    8  A    between atoms: C_33  and  C_34
REMARK    9  A    between atoms: C_33  and  O_39
REMARK   10  A    between atoms: C_34  and  O_37
REMARK                            x       y       z     vdW  Elec       q    Type
REMARK                         _______ _______ _______ _____ _____    ______ ____
ROOT
ATOM      1  C   UNL     1     -33.867  19.892  -0.574  0.00  0.00    +0.028 C 
ATOM      2  C   UNL     1     -34.067  21.418  -0.932  0.00  0.00    +0.017 C 
ATOM      3  C   UNL     1     -32.496  19.910   0.190  0.00  0.00    +0.003 C 
ATOM      4  C   UNL     1     -35.614  22.597   2.585  0.00  0.00    +0.017 C 
ATOM      5  C   UNL     1     -34.540  22.271   0.283  0.00  0.00    -0.053 C 
ATOM      6  C   UNL     1     -35.106  21.729   1.392  0.00  0.00    -0.050 C 
ATOM      7  C   UNL     1     -34.849  23.969   2.598  0.00  0.00    +0.006 C 
ATOM      8  C   UNL     1     -35.064  19.407   0.275  0.00  0.00    +0.115 C 
ATOM      9  C   UNL     1     -32.638  21.791  -1.387  0.00  0.00    +0.004 C 
ATOM     10  C   UNL     1     -31.697  21.078  -0.421  0.00  0.00    +0.000 C 
ATOM     11  C   UNL     1     -35.299  20.234   1.535  0.00  0.00    +0.051 C 
ATOM     12  C   UNL     1     -35.094  24.920   3.830  0.00  0.00    +0.027 C 
ATOM     13  C   UNL     1     -34.341  23.773   0.153  0.00  0.00    +0.021 C 
ATOM     14  C   UNL     1     -34.994  24.640   1.227  0.00  0.00    +0.005 C 
ATOM     15  C   UNL     1     -35.349  21.913   3.949  0.00  0.00    +0.035 C 
ATOM     16  C   UNL     1     -33.779  18.975  -1.824  0.00  0.00    +0.003 C 
ATOM     17  C   UNL     1     -35.063  21.648  -2.087  0.00  0.00    +0.004 C 
ATOM     18  C   UNL     1     -34.922  24.103   5.146  0.00  0.00    +0.137 C 
ATOM     19  C   UNL     1     -35.693  22.783   5.155  0.00  0.00    +0.137 C 
ATOM     20  C   UNL     1     -37.143  22.721   2.371  0.00  0.00    +0.004 C 
ATOM     21  C   UNL     1     -34.004  26.033   3.828  0.00  0.00    +0.002 C 
ATOM     22  C   UNL     1     -36.449  25.658   3.803  0.00  0.00    +0.002 C 
ENDROOT
BRANCH   8  23
ATOM     23  O   UNL     1     -34.931  18.035   0.643  0.00  0.00    -0.384 OA
ATOM     24  H   UNL     1     -35.736  17.555   0.394  0.00  0.00    +0.210 HD
ENDBRANCH   8  23
BRANCH  18  25
ATOM     25  O   UNL     1     -35.359  24.855   6.282  0.00  0.00    -0.382 OA
ATOM     26  H   UNL     1     -35.293  25.803   6.088  0.00  0.00    +0.210 HD
ENDBRANCH  18  25
BRANCH  19  27
ATOM     27  O   UNL     1     -35.336  22.045   6.327  0.00  0.00    -0.382 OA
ATOM     28  H   UNL     1     -34.488  22.371   6.668  0.00  0.00    +0.210 HD
ENDBRANCH  19  27
BRANCH   3  29
ATOM     29  C   UNL     1     -31.671  18.625   0.189  0.00  0.00    +0.000 C 
ATOM     30  C   UNL     1     -31.861  17.882   1.515  0.00  0.00    +0.000 C 
BRANCH  29  31
ATOM     31  C   UNL     1     -30.169  18.885  -0.050  0.00  0.00    +0.003 C 
BRANCH  31  32
ATOM     32  C   UNL     1     -29.624  18.192  -1.309  0.00  0.00    +0.032 C 
BRANCH  32  33
ATOM     33  C   UNL     1     -28.920  16.867  -0.976  0.00  0.00    +0.135 C 
BRANCH  33  34
ATOM     34  C   UNL     1     -29.728  15.594  -1.336  0.00  0.00    +0.113 C 
ATOM     35  C   UNL     1     -30.963  15.887  -2.192  0.00  0.00    +0.032 C 
ATOM     36  C   UNL     1     -30.130  14.789  -0.097  0.00  0.00    +0.032 C 
BRANCH  34  37
ATOM     37  O   UNL     1     -28.876  14.752  -2.128  0.00  0.00    -0.384 OA
ATOM     38  H   UNL     1     -29.161  14.786  -3.054  0.00  0.00    +0.210 HD
ENDBRANCH  34  37
ENDBRANCH  33  34
BRANCH  33  39
ATOM     39  O   UNL     1     -28.634  16.857   0.426  0.00  0.00    -0.382 OA
ATOM     40  H   UNL     1     -28.083  17.624   0.649  0.00  0.00    +0.210 HD
ENDBRANCH  33  39
ENDBRANCH  32  33
ENDBRANCH  31  32
ENDBRANCH  29  31
ENDBRANCH   3  29
TORSDOF 10
ENDMDL
MODEL 5
REMARK VINA RESULT:      -6.0      2.529      9.375
REMARK  Name = 57352130
REMARK  10 active torsions:
REMARK  status: ('A' for Active; 'I' for Inactive)
REMARK    1  A    between atoms: C_3  and  C_29
REMARK    2  A    between atoms: C_8  and  O_23
REMARK    3  A    between atoms: C_18  and  O_25
REMARK    4  A    between atoms: C_19  and  O_27
REMARK    5  A    between atoms: C_29  and  C_31
REMARK    6  A    between atoms: C_31  and  C_32
REMARK    7  A    between atoms: C_32  and  C_33
REMARK    8  A    between atoms: C_33  and  C_34
REMARK    9  A    between atoms: C_33  and  O_39
REMARK   10  A    between atoms: C_34  and  O_37
REMARK                            x       y       z     vdW  Elec       q    Type
REMARK                         _______ _______ _______ _____ _____    ______ ____
ROOT
ATOM      1  C   UNL     1     -34.145  27.463   1.370  0.00  0.00    +0.028 C 
ATOM      2  C   UNL     1     -32.620  27.435   0.957  0.00  0.00    +0.017 C 
ATOM      3  C   UNL     1     -34.256  26.207   2.306  0.00  0.00    +0.003 C 
ATOM      4  C   UNL     1     -31.147  29.267   4.217  0.00  0.00    +0.017 C 
ATOM      5  C   UNL     1     -31.676  27.954   2.082  0.00  0.00    -0.053 C 
ATOM      6  C   UNL     1     -32.109  28.716   3.119  0.00  0.00    -0.050 C 
ATOM      7  C   UNL     1     -29.872  28.353   4.301  0.00  0.00    +0.006 C 
ATOM      8  C   UNL     1     -34.460  28.806   2.065  0.00  0.00    +0.115 C 
ATOM      9  C   UNL     1     -32.430  25.925   0.684  0.00  0.00    +0.004 C 
ATOM     10  C   UNL     1     -33.210  25.205   1.779  0.00  0.00    +0.000 C 
ATOM     11  C   UNL     1     -33.567  29.101   3.267  0.00  0.00    +0.051 C 
ATOM     12  C   UNL     1     -28.856  28.639   5.470  0.00  0.00    +0.027 C 
ATOM     13  C   UNL     1     -30.212  27.565   1.948  0.00  0.00    +0.021 C 
ATOM     14  C   UNL     1     -29.238  28.243   2.909  0.00  0.00    +0.005 C 
ATOM     15  C   UNL     1     -31.808  29.260   5.618  0.00  0.00    +0.035 C 
ATOM     16  C   UNL     1     -35.110  27.325   0.162  0.00  0.00    +0.003 C 
ATOM     17  C   UNL     1     -32.321  28.242  -0.322  0.00  0.00    +0.004 C 
ATOM     18  C   UNL     1     -29.639  28.733   6.814  0.00  0.00    +0.137 C 
ATOM     19  C   UNL     1     -30.861  29.649   6.750  0.00  0.00    +0.137 C 
ATOM     20  C   UNL     1     -30.858  30.730   3.803  0.00  0.00    +0.004 C 
ATOM     21  C   UNL     1     -27.875  27.435   5.587  0.00  0.00    +0.002 C 
ATOM     22  C   UNL     1     -27.969  29.883   5.251  0.00  0.00    +0.002 C 
ENDROOT
BRANCH   8  23
ATOM     23  O   UNL     1     -35.824  28.883   2.476  0.00  0.00    -0.384 OA
ATOM     24  H   UNL     1     -36.021  29.786   2.772  0.00  0.00    +0.210 HD
ENDBRANCH   8  23
BRANCH  18  25
ATOM     25  O   UNL     1     -28.801  29.219   7.867  0.00  0.00    -0.382 OA
ATOM     26  H   UNL     1     -29.223  29.983   8.290  0.00  0.00    +0.210 HD
ENDBRANCH  18  25
BRANCH  19  27
ATOM     27  O   UNL     1     -31.592  29.533   7.974  0.00  0.00    -0.382 OA
ATOM     28  H   UNL     1     -31.950  30.400   8.220  0.00  0.00    +0.210 HD
ENDBRANCH  19  27
BRANCH   3  29
ATOM     29  C   UNL     1     -35.626  25.545   2.439  0.00  0.00    +0.000 C 
ATOM     30  C   UNL     1     -36.123  25.663   3.883  0.00  0.00    +0.000 C 
BRANCH  29  31
ATOM     31  C   UNL     1     -35.612  24.063   2.014  0.00  0.00    +0.003 C 
BRANCH  31  32
ATOM     32  C   UNL     1     -36.118  23.110   3.109  0.00  0.00    +0.032 C 
BRANCH  32  33
ATOM     33  C   UNL     1     -35.719  21.652   2.831  0.00  0.00    +0.135 C 
BRANCH  33  34
ATOM     34  C   UNL     1     -36.710  20.867   1.934  0.00  0.00    +0.113 C 
ATOM     35  C   UNL     1     -36.186  20.643   0.512  0.00  0.00    +0.032 C 
ATOM     36  C   UNL     1     -38.094  21.520   1.884  0.00  0.00    +0.032 C 
BRANCH  34  37
ATOM     37  O   UNL     1     -36.878  19.565   2.513  0.00  0.00    -0.384 OA
ATOM     38  H   UNL     1     -37.185  19.656   3.429  0.00  0.00    +0.210 HD
ENDBRANCH  34  37
ENDBRANCH  33  34
BRANCH  33  39
ATOM     39  O   UNL     1     -35.594  20.980   4.087  0.00  0.00    -0.382 OA
ATOM     40  H   UNL     1     -36.046  20.122   4.041  0.00  0.00    +0.210 HD
ENDBRANCH  33  39
ENDBRANCH  32  33
ENDBRANCH  31  32
ENDBRANCH  29  31
ENDBRANCH   3  29
TORSDOF 10
ENDMDL
MODEL 6
REMARK VINA RESULT:      -6.0      5.841      8.910
REMARK  Name = 57352130
REMARK  10 active torsions:
REMARK  status: ('A' for Active; 'I' for Inactive)
REMARK    1  A    between atoms: C_3  and  C_29
REMARK    2  A    between atoms: C_8  and  O_23
REMARK    3  A    between atoms: C_18  and  O_25
REMARK    4  A    between atoms: C_19  and  O_27
REMARK    5  A    between atoms: C_29  and  C_31
REMARK    6  A    between atoms: C_31  and  C_32
REMARK    7  A    between atoms: C_32  and  C_33
REMARK    8  A    between atoms: C_33  and  C_34
REMARK    9  A    between atoms: C_33  and  O_39
REMARK   10  A    between atoms: C_34  and  O_37
REMARK                            x       y       z     vdW  Elec       q    Type
REMARK                         _______ _______ _______ _____ _____    ______ ____
ROOT
ATOM      1  C   UNL     1     -40.533  25.072   0.719  0.00  0.00    +0.028 C 
ATOM      2  C   UNL     1     -41.238  26.239   1.518  0.00  0.00    +0.017 C 
ATOM      3  C   UNL     1     -40.358  23.973   1.826  0.00  0.00    +0.003 C 
ATOM      4  C   UNL     1     -45.005  24.858   1.272  0.00  0.00    +0.017 C 
ATOM      5  C   UNL     1     -42.754  25.977   1.765  0.00  0.00    -0.053 C 
ATOM      6  C   UNL     1     -43.477  25.082   1.045  0.00  0.00    -0.050 C 
ATOM      7  C   UNL     1     -45.384  25.286   2.735  0.00  0.00    +0.006 C 
ATOM      8  C   UNL     1     -41.433  24.649  -0.464  0.00  0.00    +0.115 C 
ATOM      9  C   UNL     1     -40.420  26.216   2.830  0.00  0.00    +0.004 C 
ATOM     10  C   UNL     1     -40.194  24.743   3.151  0.00  0.00    +0.000 C 
ATOM     11  C   UNL     1     -42.845  24.247  -0.049  0.00  0.00    +0.051 C 
ATOM     12  C   UNL     1     -46.850  24.974   3.220  0.00  0.00    +0.027 C 
ATOM     13  C   UNL     1     -43.396  26.803   2.869  0.00  0.00    +0.021 C 
ATOM     14  C   UNL     1     -44.917  26.726   2.977  0.00  0.00    +0.005 C 
ATOM     15  C   UNL     1     -45.399  23.369   1.113  0.00  0.00    +0.035 C 
ATOM     16  C   UNL     1     -39.153  25.477   0.134  0.00  0.00    +0.003 C 
ATOM     17  C   UNL     1     -41.101  27.615   0.836  0.00  0.00    +0.004 C 
ATOM     18  C   UNL     1     -47.187  23.487   2.903  0.00  0.00    +0.137 C 
ATOM     19  C   UNL     1     -46.854  23.074   1.469  0.00  0.00    +0.137 C 
ATOM     20  C   UNL     1     -45.702  25.686   0.165  0.00  0.00    +0.004 C 
ATOM     21  C   UNL     1     -46.913  25.146   4.767  0.00  0.00    +0.002 C 
ATOM     22  C   UNL     1     -47.923  25.925   2.649  0.00  0.00    +0.002 C 
ENDROOT
BRANCH   8  23
ATOM     23  O   UNL     1     -40.853  23.585  -1.217  0.00  0.00    -0.384 OA
ATOM     24  H   UNL     1     -41.524  22.903  -1.381  0.00  0.00    +0.210 HD
ENDBRANCH   8  23
BRANCH  18  25
ATOM     25  O   UNL     1     -48.577  23.216   3.108  0.00  0.00    -0.382 OA
ATOM     26  H   UNL     1     -48.791  22.337   2.758  0.00  0.00    +0.210 HD
ENDBRANCH  18  25
BRANCH  19  27
ATOM     27  O   UNL     1     -47.045  21.662   1.337  0.00  0.00    -0.382 OA
ATOM     28  H   UNL     1     -46.272  21.271   0.898  0.00  0.00    +0.210 HD
ENDBRANCH  19  27
BRANCH   3  29
ATOM     29  C   UNL     1     -39.232  22.958   1.640  0.00  0.00    +0.000 C 
ATOM     30  C   UNL     1     -39.781  21.536   1.793  0.00  0.00    +0.000 C 
BRANCH  29  31
ATOM     31  C   UNL     1     -38.070  23.175   2.631  0.00  0.00    +0.003 C 
BRANCH  31  32
ATOM     32  C   UNL     1     -36.683  23.051   1.980  0.00  0.00    +0.032 C 
BRANCH  32  33
ATOM     33  C   UNL     1     -35.846  21.932   2.619  0.00  0.00    +0.135 C 
BRANCH  33  34
ATOM     34  C   UNL     1     -35.880  20.581   1.861  0.00  0.00    +0.113 C 
ATOM     35  C   UNL     1     -34.527  19.863   1.850  0.00  0.00    +0.032 C 
ATOM     36  C   UNL     1     -36.405  20.729   0.430  0.00  0.00    +0.032 C 
BRANCH  34  37
ATOM     37  O   UNL     1     -36.791  19.717   2.557  0.00  0.00    -0.384 OA
ATOM     38  H   UNL     1     -36.662  19.816   3.514  0.00  0.00    +0.210 HD
ENDBRANCH  34  37
ENDBRANCH  33  34
BRANCH  33  39
ATOM     39  O   UNL     1     -36.323  21.730   3.953  0.00  0.00    -0.382 OA
ATOM     40  H   UNL     1     -37.230  21.385   3.924  0.00  0.00    +0.210 HD
ENDBRANCH  33  39
ENDBRANCH  32  33
ENDBRANCH  31  32
ENDBRANCH  29  31
ENDBRANCH   3  29
TORSDOF 10
ENDMDL
MODEL 7
REMARK VINA RESULT:      -6.0     11.197     15.906
REMARK  Name = 57352130
REMARK  10 active torsions:
REMARK  status: ('A' for Active; 'I' for Inactive)
REMARK    1  A    between atoms: C_3  and  C_29
REMARK    2  A    between atoms: C_8  and  O_23
REMARK    3  A    between atoms: C_18  and  O_25
REMARK    4  A    between atoms: C_19  and  O_27
REMARK    5  A    between atoms: C_29  and  C_31
REMARK    6  A    between atoms: C_31  and  C_32
REMARK    7  A    between atoms: C_32  and  C_33
REMARK    8  A    between atoms: C_33  and  C_34
REMARK    9  A    between atoms: C_33  and  O_39
REMARK   10  A    between atoms: C_34  and  O_37
REMARK                            x       y       z     vdW  Elec       q    Type
REMARK                         _______ _______ _______ _____ _____    ______ ____
ROOT
ATOM      1  C   UNL     1     -33.374  36.367  -0.100  0.00  0.00    +0.028 C 
ATOM      2  C   UNL     1     -32.136  36.062   0.834  0.00  0.00    +0.017 C 
ATOM      3  C   UNL     1     -34.577  36.260   0.902  0.00  0.00    +0.003 C 
ATOM      4  C   UNL     1     -31.686  39.754   2.355  0.00  0.00    +0.017 C 
ATOM      5  C   UNL     1     -31.740  37.270   1.733  0.00  0.00    -0.053 C 
ATOM      6  C   UNL     1     -32.124  38.546   1.471  0.00  0.00    -0.050 C 
ATOM      7  C   UNL     1     -31.338  39.246   3.800  0.00  0.00    +0.006 C 
ATOM      8  C   UNL     1     -33.198  37.763  -0.738  0.00  0.00    +0.115 C 
ATOM      9  C   UNL     1     -32.690  34.876   1.657  0.00  0.00    +0.004 C 
ATOM     10  C   UNL     1     -34.143  35.227   1.960  0.00  0.00    +0.000 C 
ATOM     11  C   UNL     1     -32.995  38.883   0.278  0.00  0.00    +0.051 C 
ATOM     12  C   UNL     1     -31.040  40.338   4.896  0.00  0.00    +0.027 C 
ATOM     13  C   UNL     1     -30.874  36.940   2.939  0.00  0.00    +0.021 C 
ATOM     14  C   UNL     1     -30.293  38.128   3.703  0.00  0.00    +0.005 C 
ATOM     15  C   UNL     1     -32.817  40.802   2.499  0.00  0.00    +0.035 C 
ATOM     16  C   UNL     1     -33.537  35.343  -1.256  0.00  0.00    +0.003 C 
ATOM     17  C   UNL     1     -30.880  35.620   0.055  0.00  0.00    +0.004 C 
ATOM     18  C   UNL     1     -32.174  41.406   4.873  0.00  0.00    +0.137 C 
ATOM     19  C   UNL     1     -32.493  41.932   3.473  0.00  0.00    +0.137 C 
ATOM     20  C   UNL     1     -30.496  40.396   1.601  0.00  0.00    +0.004 C 
ATOM     21  C   UNL     1     -31.069  39.660   6.299  0.00  0.00    +0.002 C 
ATOM     22  C   UNL     1     -29.649  40.995   4.776  0.00  0.00    +0.002 C 
ENDROOT
BRANCH   8  23
ATOM     23  O   UNL     1     -34.296  38.102  -1.583  0.00  0.00    -0.384 OA
ATOM     24  H   UNL     1     -34.643  37.298  -2.000  0.00  0.00    +0.210 HD
ENDBRANCH   8  23
BRANCH  18  25
ATOM     25  O   UNL     1     -31.836  42.537   5.682  0.00  0.00    -0.382 OA
ATOM     26  H   UNL     1     -31.743  43.322   5.119  0.00  0.00    +0.210 HD
ENDBRANCH  18  25
BRANCH  19  27
ATOM     27  O   UNL     1     -33.649  42.774   3.547  0.00  0.00    -0.382 OA
ATOM     28  H   UNL     1     -33.633  43.407   2.812  0.00  0.00    +0.210 HD
ENDBRANCH  19  27
BRANCH   3  29
ATOM     29  C   UNL     1     -35.946  35.907   0.325  0.00  0.00    +0.000 C 
ATOM     30  C   UNL     1     -36.877  37.120   0.414  0.00  0.00    +0.000 C 
BRANCH  29  31
ATOM     31  C   UNL     1     -36.596  34.701   1.035  0.00  0.00    +0.003 C 
BRANCH  31  32
ATOM     32  C   UNL     1     -37.813  35.083   1.892  0.00  0.00    +0.032 C 
BRANCH  32  33
ATOM     33  C   UNL     1     -39.101  34.410   1.393  0.00  0.00    +0.135 C 
BRANCH  33  34
ATOM     34  C   UNL     1     -40.413  35.096   1.851  0.00  0.00    +0.113 C 
ATOM     35  C   UNL     1     -41.060  35.950   0.757  0.00  0.00    +0.032 C 
ATOM     36  C   UNL     1     -40.222  35.929   3.121  0.00  0.00    +0.032 C 
BRANCH  34  37
ATOM     37  O   UNL     1     -41.356  34.059   2.165  0.00  0.00    -0.384 OA
ATOM     38  H   UNL     1     -40.918  33.374   2.693  0.00  0.00    +0.210 HD
ENDBRANCH  34  37
ENDBRANCH  33  34
BRANCH  33  39
ATOM     39  O   UNL     1     -39.099  33.054   1.851  0.00  0.00    -0.382 OA
ATOM     40  H   UNL     1     -38.249  32.640   1.630  0.00  0.00    +0.210 HD
ENDBRANCH  33  39
ENDBRANCH  32  33
ENDBRANCH  31  32
ENDBRANCH  29  31
ENDBRANCH   3  29
TORSDOF 10
ENDMDL
MODEL 8
REMARK VINA RESULT:      -5.9      3.084      5.939
REMARK  Name = 57352130
REMARK  10 active torsions:
REMARK  status: ('A' for Active; 'I' for Inactive)
REMARK    1  A    between atoms: C_3  and  C_29
REMARK    2  A    between atoms: C_8  and  O_23
REMARK    3  A    between atoms: C_18  and  O_25
REMARK    4  A    between atoms: C_19  and  O_27
REMARK    5  A    between atoms: C_29  and  C_31
REMARK    6  A    between atoms: C_31  and  C_32
REMARK    7  A    between atoms: C_32  and  C_33
REMARK    8  A    between atoms: C_33  and  C_34
REMARK    9  A    between atoms: C_33  and  O_39
REMARK   10  A    between atoms: C_34  and  O_37
REMARK                            x       y       z     vdW  Elec       q    Type
REMARK                         _______ _______ _______ _____ _____    ______ ____
ROOT
ATOM      1  C   UNL     1     -35.912  22.724   0.281  0.00  0.00    +0.028 C 
ATOM      2  C   UNL     1     -36.614  21.688  -0.683  0.00  0.00    +0.017 C 
ATOM      3  C   UNL     1     -36.230  22.124   1.697  0.00  0.00    +0.003 C 
ATOM      4  C   UNL     1     -33.672  18.952  -0.768  0.00  0.00    +0.017 C 
ATOM      5  C   UNL     1     -35.805  20.368  -0.852  0.00  0.00    -0.053 C 
ATOM      6  C   UNL     1     -34.484  20.267  -0.555  0.00  0.00    -0.050 C 
ATOM      7  C   UNL     1     -34.651  17.723  -0.743  0.00  0.00    +0.006 C 
ATOM      8  C   UNL     1     -34.406  22.795  -0.058  0.00  0.00    +0.115 C 
ATOM      9  C   UNL     1     -37.948  21.464   0.066  0.00  0.00    +0.004 C 
ATOM     10  C   UNL     1     -37.586  21.405   1.546  0.00  0.00    +0.000 C 
ATOM     11  C   UNL     1     -33.700  21.443  -0.009  0.00  0.00    +0.051 C 
ATOM     12  C   UNL     1     -34.006  16.286  -0.766  0.00  0.00    +0.027 C 
ATOM     13  C   UNL     1     -36.585  19.178  -1.390  0.00  0.00    +0.021 C 
ATOM     14  C   UNL     1     -35.767  17.946  -1.771  0.00  0.00    +0.005 C 
ATOM     15  C   UNL     1     -32.630  18.729   0.356  0.00  0.00    +0.035 C 
ATOM     16  C   UNL     1     -36.486  24.161   0.160  0.00  0.00    +0.003 C 
ATOM     17  C   UNL     1     -36.891  22.256  -2.090  0.00  0.00    +0.004 C 
ATOM     18  C   UNL     1     -32.890  16.210   0.318  0.00  0.00    +0.137 C 
ATOM     19  C   UNL     1     -31.912  17.384   0.276  0.00  0.00    +0.137 C 
ATOM     20  C   UNL     1     -32.930  19.148  -2.112  0.00  0.00    +0.004 C 
ATOM     21  C   UNL     1     -35.096  15.241  -0.386  0.00  0.00    +0.002 C 
ATOM     22  C   UNL     1     -33.474  15.852  -2.149  0.00  0.00    +0.002 C 
ENDROOT
BRANCH   8  23
ATOM     23  O   UNL     1     -33.714  23.706   0.794  0.00  0.00    -0.384 OA
ATOM     24  H   UNL     1     -33.574  24.544   0.325  0.00  0.00    +0.210 HD
ENDBRANCH   8  23
BRANCH  18  25
ATOM     25  O   UNL     1     -32.119  15.012   0.183  0.00  0.00    -0.382 OA
ATOM     26  H   UNL     1     -31.200  15.189   0.438  0.00  0.00    +0.210 HD
ENDBRANCH  18  25
BRANCH  19  27
ATOM     27  O   UNL     1     -31.039  17.301   1.407  0.00  0.00    -0.382 OA
ATOM     28  H   UNL     1     -30.604  16.434   1.416  0.00  0.00    +0.210 HD
ENDBRANCH  19  27
BRANCH   3  29
ATOM     29  C   UNL     1     -36.252  23.086   2.882  0.00  0.00    +0.000 C 
ATOM     30  C   UNL     1     -35.648  22.407   4.115  0.00  0.00    +0.000 C 
BRANCH  29  31
ATOM     31  C   UNL     1     -37.672  23.591   3.211  0.00  0.00    +0.003 C 
BRANCH  31  32
ATOM     32  C   UNL     1     -37.697  25.030   3.750  0.00  0.00    +0.032 C 
BRANCH  32  33
ATOM     33  C   UNL     1     -36.600  25.900   3.116  0.00  0.00    +0.135 C 
BRANCH  33  34
ATOM     34  C   UNL     1     -35.478  26.344   4.089  0.00  0.00    +0.113 C 
ATOM     35  C   UNL     1     -34.089  25.853   3.670  0.00  0.00    +0.032 C 
ATOM     36  C   UNL     1     -35.764  25.930   5.535  0.00  0.00    +0.032 C 
BRANCH  34  37
ATOM     37  O   UNL     1     -35.426  27.778   4.062  0.00  0.00    -0.384 OA
ATOM     38  H   UNL     1     -36.232  28.138   4.463  0.00  0.00    +0.210 HD
ENDBRANCH  34  37
ENDBRANCH  33  34
BRANCH  33  39
ATOM     39  O   UNL     1     -37.222  27.062   2.560  0.00  0.00    -0.382 OA
ATOM     40  H   UNL     1     -37.383  27.710   3.265  0.00  0.00    +0.210 HD
ENDBRANCH  33  39
ENDBRANCH  32  33
ENDBRANCH  31  32
ENDBRANCH  29  31
ENDBRANCH   3  29
TORSDOF 10
ENDMDL
MODEL 9
REMARK VINA RESULT:      -5.9      1.886      8.740
REMARK  Name = 57352130
REMARK  10 active torsions:
REMARK  status: ('A' for Active; 'I' for Inactive)
REMARK    1  A    between atoms: C_3  and  C_29
REMARK    2  A    between atoms: C_8  and  O_23
REMARK    3  A    between atoms: C_18  and  O_25
REMARK    4  A    between atoms: C_19  and  O_27
REMARK    5  A    between atoms: C_29  and  C_31
REMARK    6  A    between atoms: C_31  and  C_32
REMARK    7  A    between atoms: C_32  and  C_33
REMARK    8  A    between atoms: C_33  and  C_34
REMARK    9  A    between atoms: C_33  and  O_39
REMARK   10  A    between atoms: C_34  and  O_37
REMARK                            x       y       z     vdW  Elec       q    Type
REMARK                         _______ _______ _______ _____ _____    ______ ____
ROOT
ATOM      1  C   UNL     1     -36.360  24.560   2.381  0.00  0.00    +0.028 C 
ATOM      2  C   UNL     1     -35.604  25.252   1.179  0.00  0.00    +0.017 C 
ATOM      3  C   UNL     1     -35.318  23.481   2.847  0.00  0.00    +0.003 C 
ATOM      4  C   UNL     1     -33.372  27.800   3.341  0.00  0.00    +0.017 C 
ATOM      5  C   UNL     1     -34.500  26.247   1.645  0.00  0.00    -0.053 C 
ATOM      6  C   UNL     1     -34.458  26.772   2.897  0.00  0.00    -0.050 C 
ATOM      7  C   UNL     1     -32.096  27.637   2.438  0.00  0.00    +0.006 C 
ATOM      8  C   UNL     1     -36.698  25.623   3.450  0.00  0.00    +0.115 C 
ATOM      9  C   UNL     1     -35.013  24.014   0.466  0.00  0.00    +0.004 C 
ATOM     10  C   UNL     1     -34.537  23.086   1.579  0.00  0.00    +0.000 C 
ATOM     11  C   UNL     1     -35.485  26.403   3.948  0.00  0.00    +0.051 C 
ATOM     12  C   UNL     1     -30.818  28.466   2.838  0.00  0.00    +0.027 C 
ATOM     13  C   UNL     1     -33.458  26.615   0.601  0.00  0.00    +0.021 C 
ATOM     14  C   UNL     1     -32.504  27.751   0.965  0.00  0.00    +0.005 C 
ATOM     15  C   UNL     1     -32.927  27.571   4.807  0.00  0.00    +0.035 C 
ATOM     16  C   UNL     1     -37.691  23.881   1.960  0.00  0.00    +0.003 C 
ATOM     17  C   UNL     1     -36.548  26.009   0.221  0.00  0.00    +0.004 C 
ATOM     18  C   UNL     1     -30.532  28.262   4.356  0.00  0.00    +0.137 C 
ATOM     19  C   UNL     1     -31.761  28.455   5.244  0.00  0.00    +0.137 C 
ATOM     20  C   UNL     1     -34.057  29.184   3.232  0.00  0.00    +0.004 C 
ATOM     21  C   UNL     1     -29.593  27.908   2.055  0.00  0.00    +0.002 C 
ATOM     22  C   UNL     1     -30.898  29.966   2.481  0.00  0.00    +0.002 C 
ENDROOT
BRANCH   8  23
ATOM     23  O   UNL     1     -37.370  25.052   4.572  0.00  0.00    -0.384 OA
ATOM     24  H   UNL     1     -37.776  24.211   4.311  0.00  0.00    +0.210 HD
ENDBRANCH   8  23
BRANCH  18  25
ATOM     25  O   UNL     1     -29.529  29.170   4.820  0.00  0.00    -0.382 OA
ATOM     26  H   UNL     1     -28.803  29.206   4.178  0.00  0.00    +0.210 HD
ENDBRANCH  18  25
BRANCH  19  27
ATOM     27  O   UNL     1     -31.427  28.084   6.585  0.00  0.00    -0.382 OA
ATOM     28  H   UNL     1     -31.535  28.851   7.169  0.00  0.00    +0.210 HD
ENDBRANCH  19  27
BRANCH   3  29
ATOM     29  C   UNL     1     -35.856  22.246   3.565  0.00  0.00    +0.000 C 
ATOM     30  C   UNL     1     -35.367  22.233   5.017  0.00  0.00    +0.000 C 
BRANCH  29  31
ATOM     31  C   UNL     1     -35.447  20.931   2.870  0.00  0.00    +0.003 C 
BRANCH  31  32
ATOM     32  C   UNL     1     -36.609  20.245   2.133  0.00  0.00    +0.032 C 
BRANCH  32  33
ATOM     33  C   UNL     1     -36.214  19.819   0.710  0.00  0.00    +0.135 C 
BRANCH  33  34
ATOM     34  C   UNL     1     -37.399  19.386  -0.191  0.00  0.00    +0.113 C 
ATOM     35  C   UNL     1     -37.533  17.866  -0.318  0.00  0.00    +0.032 C 
ATOM     36  C   UNL     1     -37.338  20.023  -1.581  0.00  0.00    +0.032 C 
BRANCH  34  37
ATOM     37  O   UNL     1     -38.607  19.848   0.433  0.00  0.00    -0.384 OA
ATOM     38  H   UNL     1     -38.455  19.966   1.383  0.00  0.00    +0.210 HD
ENDBRANCH  34  37
ENDBRANCH  33  34
BRANCH  33  39
ATOM     39  O   UNL     1     -35.286  18.735   0.813  0.00  0.00    -0.382 OA
ATOM     40  H   UNL     1     -35.355  18.334   1.694  0.00  0.00    +0.210 HD
ENDBRANCH  33  39
ENDBRANCH  32  33
ENDBRANCH  31  32
ENDBRANCH  29  31
ENDBRANCH   3  29
TORSDOF 10
ENDMDL
