MODEL 1
REMARK VINA RESULT:      -5.8      0.000      0.000
REMARK  Name = 1913406
REMARK  5 active torsions:
REMARK  status: ('A' for Active; 'I' for Inactive)
REMARK    1  A    between atoms: N_3  and  C_15
REMARK    2  A    between atoms: C_14  and  S_23
REMARK    3  A    between atoms: C_20  and  O_21
REMARK    4  A    between atoms: S_23  and  C_24
REMARK    5  A    between atoms: C_24  and  C_26
REMARK                            x       y       z     vdW  Elec       q    Type
REMARK                         _______ _______ _______ _____ _____    ______ ____
ROOT
ATOM      1  S   UNL     1     -40.082  25.384   3.336  0.00  0.00    -0.079 S 
ATOM      2  O   UNL     1     -37.910  22.334   0.162  0.00  0.00    -0.269 OA
ATOM      3  N   UNL     1     -36.705  22.859   2.120  0.00  0.00    -0.204 N 
ATOM      4  N   UNL     1     -37.649  24.367   3.750  0.00  0.00    -0.374 NA
ATOM      5  C   UNL     1     -40.149  24.093   1.109  0.00  0.00    -0.027 C 
ATOM      6  C   UNL     1     -40.669  23.599  -0.210  0.00  0.00    +0.023 C 
ATOM      7  C   UNL     1     -42.175  23.853  -0.372  0.00  0.00    +0.004 C 
ATOM      8  C   UNL     1     -42.567  25.263   0.085  0.00  0.00    +0.002 C 
ATOM      9  C   UNL     1     -42.247  25.482   1.571  0.00  0.00    +0.015 C 
ATOM     10  C   UNL     1     -40.881  24.964   1.895  0.00  0.00    +0.073 C 
ATOM     11  C   UNL     1     -38.884  23.794   1.714  0.00  0.00    +0.083 C 
ATOM     12  C   UNL     1     -38.727  24.428   2.930  0.00  0.00    +0.163 C 
ATOM     13  C   UNL     1     -37.808  22.939   1.227  0.00  0.00    +0.261 C 
ATOM     14  C   UNL     1     -36.681  23.607   3.326  0.00  0.00    +0.222 C 
ENDROOT
BRANCH   3  15
ATOM     15  C   UNL     1     -35.648  21.959   1.751  0.00  0.00    +0.061 C 
ATOM     16  C   UNL     1     -34.698  22.362   0.822  0.00  0.00    +0.018 C 
ATOM     17  C   UNL     1     -35.592  20.697   2.328  0.00  0.00    +0.018 C 
ATOM     18  C   UNL     1     -33.672  21.488   0.465  0.00  0.00    +0.038 C 
ATOM     19  C   UNL     1     -34.566  19.823   1.970  0.00  0.00    +0.038 C 
ATOM     20  C   UNL     1     -33.606  20.217   1.038  0.00  0.00    +0.139 C 
BRANCH  20  21
ATOM     21  O   UNL     1     -32.604  19.366   0.690  0.00  0.00    -0.471 OA
ATOM     22  C   UNL     1     -32.627  18.063   1.273  0.00  0.00    +0.252 C 
ENDBRANCH  20  21
ENDBRANCH   3  15
BRANCH  14  23
ATOM     23  S   UNL     1     -35.220  23.630   4.315  0.00  0.00    -0.050 S 
BRANCH  23  24
ATOM     24  C   UNL     1     -35.653  24.997   5.408  0.00  0.00    +0.171 C 
BRANCH  24  26
ATOM     25  N   UNL     1     -33.610  26.583   5.860  0.00  0.00    -0.195 NA
ATOM     26  C   UNL     1     -34.512  25.879   5.661  0.00  0.00    +0.086 C 
ENDBRANCH  24  26
ENDBRANCH  23  24
ENDBRANCH  14  23
TORSDOF 5
ENDMDL
MODEL 2
REMARK VINA RESULT:      -5.7      5.423      9.106
REMARK  Name = 1913406
REMARK  5 active torsions:
REMARK  status: ('A' for Active; 'I' for Inactive)
REMARK    1  A    between atoms: N_3  and  C_15
REMARK    2  A    between atoms: C_14  and  S_23
REMARK    3  A    between atoms: C_20  and  O_21
REMARK    4  A    between atoms: S_23  and  C_24
REMARK    5  A    between atoms: C_24  and  C_26
REMARK                            x       y       z     vdW  Elec       q    Type
REMARK                         _______ _______ _______ _____ _____    ______ ____
ROOT
ATOM      1  S   UNL     1     -31.586  31.103   2.352  0.00  0.00    -0.079 S 
ATOM      2  O   UNL     1     -32.153  27.391   5.513  0.00  0.00    -0.269 OA
ATOM      3  N   UNL     1     -33.740  27.555   3.776  0.00  0.00    -0.204 N 
ATOM      4  N   UNL     1     -33.591  29.349   2.171  0.00  0.00    -0.374 NA
ATOM      5  C   UNL     1     -30.774  29.828   4.437  0.00  0.00    -0.027 C 
ATOM      6  C   UNL     1     -29.932  29.488   5.632  0.00  0.00    +0.023 C 
ATOM      7  C   UNL     1     -28.582  30.223   5.620  0.00  0.00    +0.004 C 
ATOM      8  C   UNL     1     -28.742  31.699   5.236  0.00  0.00    +0.002 C 
ATOM      9  C   UNL     1     -29.333  31.852   3.827  0.00  0.00    +0.015 C 
ATOM     10  C   UNL     1     -30.490  30.921   3.638  0.00  0.00    +0.073 C 
ATOM     11  C   UNL     1     -31.948  29.147   3.976  0.00  0.00    +0.083 C 
ATOM     12  C   UNL     1     -32.482  29.736   2.848  0.00  0.00    +0.163 C 
ATOM     13  C   UNL     1     -32.603  27.965   4.525  0.00  0.00    +0.261 C 
ATOM     14  C   UNL     1     -34.185  28.296   2.650  0.00  0.00    +0.222 C 
ENDROOT
BRANCH   3  15
ATOM     15  C   UNL     1     -34.381  26.341   4.202  0.00  0.00    +0.061 C 
ATOM     16  C   UNL     1     -33.978  25.129   3.659  0.00  0.00    +0.018 C 
ATOM     17  C   UNL     1     -35.393  26.398   5.150  0.00  0.00    +0.018 C 
ATOM     18  C   UNL     1     -34.599  23.950   4.073  0.00  0.00    +0.038 C 
ATOM     19  C   UNL     1     -36.015  25.220   5.563  0.00  0.00    +0.038 C 
ATOM     20  C   UNL     1     -35.619  23.996   5.025  0.00  0.00    +0.139 C 
BRANCH  20  21
ATOM     21  O   UNL     1     -36.223  22.846   5.429  0.00  0.00    -0.471 OA
ATOM     22  C   UNL     1     -35.525  22.046   6.381  0.00  0.00    +0.252 C 
ENDBRANCH  20  21
ENDBRANCH   3  15
BRANCH  14  23
ATOM     23  S   UNL     1     -35.704  27.867   1.862  0.00  0.00    -0.050 S 
BRANCH  23  24
ATOM     24  C   UNL     1     -35.699  29.115   0.562  0.00  0.00    +0.171 C 
BRANCH  24  26
ATOM     25  N   UNL     1     -37.472  30.999   1.008  0.00  0.00    -0.195 NA
ATOM     26  C   UNL     1     -36.687  30.168   0.808  0.00  0.00    +0.086 C 
ENDBRANCH  24  26
ENDBRANCH  23  24
ENDBRANCH  14  23
TORSDOF 5
ENDMDL
MODEL 3
REMARK VINA RESULT:      -5.7      2.698      5.059
REMARK  Name = 1913406
REMARK  5 active torsions:
REMARK  status: ('A' for Active; 'I' for Inactive)
REMARK    1  A    between atoms: N_3  and  C_15
REMARK    2  A    between atoms: C_14  and  S_23
REMARK    3  A    between atoms: C_20  and  O_21
REMARK    4  A    between atoms: S_23  and  C_24
REMARK    5  A    between atoms: C_24  and  C_26
REMARK                            x       y       z     vdW  Elec       q    Type
REMARK                         _______ _______ _______ _____ _____    ______ ____
ROOT
ATOM      1  S   UNL     1     -40.099  22.478   0.601  0.00  0.00    -0.079 S 
ATOM      2  O   UNL     1     -38.372  26.274   3.188  0.00  0.00    -0.269 OA
ATOM      3  N   UNL     1     -37.031  24.335   3.130  0.00  0.00    -0.204 N 
ATOM      4  N   UNL     1     -37.777  22.389   1.915  0.00  0.00    -0.374 NA
ATOM      5  C   UNL     1     -40.391  24.889   1.456  0.00  0.00    -0.027 C 
ATOM      6  C   UNL     1     -41.028  26.231   1.675  0.00  0.00    +0.023 C 
ATOM      7  C   UNL     1     -42.183  26.493   0.696  0.00  0.00    +0.004 C 
ATOM      8  C   UNL     1     -43.094  25.268   0.550  0.00  0.00    +0.002 C 
ATOM      9  C   UNL     1     -42.324  24.058   0.000  0.00  0.00    +0.015 C 
ATOM     10  C   UNL     1     -41.010  23.909   0.701  0.00  0.00    +0.073 C 
ATOM     11  C   UNL     1     -39.142  24.421   1.981  0.00  0.00    +0.083 C 
ATOM     12  C   UNL     1     -38.864  23.128   1.586  0.00  0.00    +0.163 C 
ATOM     13  C   UNL     1     -38.181  25.115   2.830  0.00  0.00    +0.261 C 
ATOM     14  C   UNL     1     -36.911  22.997   2.673  0.00  0.00    +0.222 C 
ENDROOT
BRANCH   3  15
ATOM     15  C   UNL     1     -35.996  24.988   3.882  0.00  0.00    +0.061 C 
ATOM     16  C   UNL     1     -36.021  24.935   5.270  0.00  0.00    +0.018 C 
ATOM     17  C   UNL     1     -34.985  25.662   3.212  0.00  0.00    +0.018 C 
ATOM     18  C   UNL     1     -35.016  25.569   6.000  0.00  0.00    +0.038 C 
ATOM     19  C   UNL     1     -33.979  26.297   3.943  0.00  0.00    +0.038 C 
ATOM     20  C   UNL     1     -33.995  26.250   5.336  0.00  0.00    +0.139 C 
BRANCH  20  21
ATOM     21  O   UNL     1     -33.013  26.866   6.049  0.00  0.00    -0.471 OA
ATOM     22  C   UNL     1     -32.311  27.927   5.403  0.00  0.00    +0.252 C 
ENDBRANCH  20  21
ENDBRANCH   3  15
BRANCH  14  23
ATOM     23  S   UNL     1     -35.562  22.000   3.221  0.00  0.00    -0.050 S 
BRANCH  23  24
ATOM     24  C   UNL     1     -35.891  20.530   2.232  0.00  0.00    +0.171 C 
BRANCH  24  26
ATOM     25  N   UNL     1     -33.679  19.321   1.500  0.00  0.00    -0.195 NA
ATOM     26  C   UNL     1     -34.656  19.858   1.821  0.00  0.00    +0.086 C 
ENDBRANCH  24  26
ENDBRANCH  23  24
ENDBRANCH  14  23
TORSDOF 5
ENDMDL
MODEL 4
REMARK VINA RESULT:      -5.6      5.649      8.489
REMARK  Name = 1913406
REMARK  5 active torsions:
REMARK  status: ('A' for Active; 'I' for Inactive)
REMARK    1  A    between atoms: N_3  and  C_15
REMARK    2  A    between atoms: C_14  and  S_23
REMARK    3  A    between atoms: C_20  and  O_21
REMARK    4  A    between atoms: S_23  and  C_24
REMARK    5  A    between atoms: C_24  and  C_26
REMARK                            x       y       z     vdW  Elec       q    Type
REMARK                         _______ _______ _______ _____ _____    ______ ____
ROOT
ATOM      1  S   UNL     1     -36.616  25.962   2.365  0.00  0.00    -0.079 S 
ATOM      2  O   UNL     1     -32.581  26.840   5.016  0.00  0.00    -0.269 OA
ATOM      3  N   UNL     1     -33.237  28.522   3.499  0.00  0.00    -0.204 N 
ATOM      4  N   UNL     1     -35.188  28.204   2.116  0.00  0.00    -0.374 NA
ATOM      5  C   UNL     1     -34.930  25.189   4.151  0.00  0.00    -0.027 C 
ATOM      6  C   UNL     1     -34.280  24.303   5.173  0.00  0.00    +0.023 C 
ATOM      7  C   UNL     1     -35.203  23.161   5.625  0.00  0.00    +0.004 C 
ATOM      8  C   UNL     1     -35.915  22.502   4.437  0.00  0.00    +0.002 C 
ATOM      9  C   UNL     1     -36.801  23.507   3.686  0.00  0.00    +0.015 C 
ATOM     10  C   UNL     1     -36.071  24.796   3.474  0.00  0.00    +0.073 C 
ATOM     11  C   UNL     1     -34.491  26.481   3.711  0.00  0.00    +0.083 C 
ATOM     12  C   UNL     1     -35.324  27.012   2.746  0.00  0.00    +0.163 C 
ATOM     13  C   UNL     1     -33.338  27.259   4.145  0.00  0.00    +0.261 C 
ATOM     14  C   UNL     1     -34.161  28.909   2.494  0.00  0.00    +0.222 C 
ENDROOT
BRANCH   3  15
ATOM     15  C   UNL     1     -32.178  29.385   3.945  0.00  0.00    +0.061 C 
ATOM     16  C   UNL     1     -30.930  29.304   3.344  0.00  0.00    +0.018 C 
ATOM     17  C   UNL     1     -32.420  30.287   4.972  0.00  0.00    +0.018 C 
ATOM     18  C   UNL     1     -29.903  30.142   3.778  0.00  0.00    +0.038 C 
ATOM     19  C   UNL     1     -31.392  31.125   5.406  0.00  0.00    +0.038 C 
ATOM     20  C   UNL     1     -30.134  31.053   4.810  0.00  0.00    +0.139 C 
BRANCH  20  21
ATOM     21  O   UNL     1     -29.132  31.871   5.231  0.00  0.00    -0.471 OA
ATOM     22  C   UNL     1     -27.915  31.248   5.643  0.00  0.00    +0.252 C 
ENDBRANCH  20  21
ENDBRANCH   3  15
BRANCH  14  23
ATOM     23  S   UNL     1     -33.896  30.397   1.584  0.00  0.00    -0.050 S 
BRANCH  23  24
ATOM     24  C   UNL     1     -34.998  31.482   2.509  0.00  0.00    +0.171 C 
BRANCH  24  26
ATOM     25  N   UNL     1     -37.421  31.520   1.500  0.00  0.00    -0.195 NA
ATOM     26  C   UNL     1     -36.350  31.500   1.947  0.00  0.00    +0.086 C 
ENDBRANCH  24  26
ENDBRANCH  23  24
ENDBRANCH  14  23
TORSDOF 5
ENDMDL
MODEL 5
REMARK VINA RESULT:      -5.5      3.678      6.952
REMARK  Name = 1913406
REMARK  5 active torsions:
REMARK  status: ('A' for Active; 'I' for Inactive)
REMARK    1  A    between atoms: N_3  and  C_15
REMARK    2  A    between atoms: C_14  and  S_23
REMARK    3  A    between atoms: C_20  and  O_21
REMARK    4  A    between atoms: S_23  and  C_24
REMARK    5  A    between atoms: C_24  and  C_26
REMARK                            x       y       z     vdW  Elec       q    Type
REMARK                         _______ _______ _______ _____ _____    ______ ____
ROOT
ATOM      1  S   UNL     1     -34.291  30.107   2.648  0.00  0.00    -0.079 S 
ATOM      2  O   UNL     1     -33.320  25.603   4.338  0.00  0.00    -0.269 OA
ATOM      3  N   UNL     1     -35.036  25.784   2.731  0.00  0.00    -0.204 N 
ATOM      4  N   UNL     1     -35.631  27.944   1.839  0.00  0.00    -0.374 NA
ATOM      5  C   UNL     1     -32.911  28.571   4.187  0.00  0.00    -0.027 C 
ATOM      6  C   UNL     1     -31.892  28.162   5.210  0.00  0.00    +0.023 C 
ATOM      7  C   UNL     1     -30.860  29.268   5.476  0.00  0.00    +0.004 C 
ATOM      8  C   UNL     1     -31.523  30.644   5.616  0.00  0.00    +0.002 C 
ATOM      9  C   UNL     1     -32.267  31.042   4.333  0.00  0.00    +0.015 C 
ATOM     10  C   UNL     1     -33.074  29.893   3.815  0.00  0.00    +0.073 C 
ATOM     11  C   UNL     1     -33.842  27.725   3.498  0.00  0.00    +0.083 C 
ATOM     12  C   UNL     1     -34.645  28.437   2.629  0.00  0.00    +0.163 C 
ATOM     13  C   UNL     1     -34.025  26.282   3.597  0.00  0.00    +0.261 C 
ATOM     14  C   UNL     1     -35.804  26.657   1.918  0.00  0.00    +0.222 C 
ENDROOT
BRANCH   3  15
ATOM     15  C   UNL     1     -35.206  24.357   2.704  0.00  0.00    +0.061 C 
ATOM     16  C   UNL     1     -34.668  23.624   1.655  0.00  0.00    +0.018 C 
ATOM     17  C   UNL     1     -35.907  23.732   3.727  0.00  0.00    +0.018 C 
ATOM     18  C   UNL     1     -34.833  22.239   1.629  0.00  0.00    +0.038 C 
ATOM     19  C   UNL     1     -36.072  22.347   3.700  0.00  0.00    +0.038 C 
ATOM     20  C   UNL     1     -35.536  21.600   2.651  0.00  0.00    +0.139 C 
BRANCH  20  21
ATOM     21  O   UNL     1     -35.695  20.249   2.626  0.00  0.00    -0.471 OA
ATOM     22  C   UNL     1     -36.259  19.685   1.443  0.00  0.00    +0.252 C 
ENDBRANCH  20  21
ENDBRANCH   3  15
BRANCH  14  23
ATOM     23  S   UNL     1     -37.173  26.026   1.001  0.00  0.00    -0.050 S 
BRANCH  23  24
ATOM     24  C   UNL     1     -38.494  26.473   2.143  0.00  0.00    +0.171 C 
BRANCH  24  26
ATOM     25  N   UNL     1     -39.484  24.377   3.375  0.00  0.00    -0.195 NA
ATOM     26  C   UNL     1     -39.047  25.303   2.828  0.00  0.00    +0.086 C 
ENDBRANCH  24  26
ENDBRANCH  23  24
ENDBRANCH  14  23
TORSDOF 5
ENDMDL
MODEL 6
REMARK VINA RESULT:      -5.4      3.068      5.885
REMARK  Name = 1913406
REMARK  5 active torsions:
REMARK  status: ('A' for Active; 'I' for Inactive)
REMARK    1  A    between atoms: N_3  and  C_15
REMARK    2  A    between atoms: C_14  and  S_23
REMARK    3  A    between atoms: C_20  and  O_21
REMARK    4  A    between atoms: S_23  and  C_24
REMARK    5  A    between atoms: C_24  and  C_26
REMARK                            x       y       z     vdW  Elec       q    Type
REMARK                         _______ _______ _______ _____ _____    ______ ____
ROOT
ATOM      1  S   UNL     1     -39.553  21.374   0.297  0.00  0.00    -0.079 S 
ATOM      2  O   UNL     1     -35.128  22.241   2.233  0.00  0.00    -0.269 OA
ATOM      3  N   UNL     1     -36.804  23.843   2.662  0.00  0.00    -0.204 N 
ATOM      4  N   UNL     1     -39.016  23.550   1.747  0.00  0.00    -0.374 NA
ATOM      5  C   UNL     1     -37.107  20.647   0.640  0.00  0.00    -0.027 C 
ATOM      6  C   UNL     1     -35.863  19.816   0.523  0.00  0.00    +0.023 C 
ATOM      7  C   UNL     1     -36.156  18.399   0.005  0.00  0.00    +0.004 C 
ATOM      8  C   UNL     1     -37.135  18.417  -1.176  0.00  0.00    +0.002 C 
ATOM      9  C   UNL     1     -38.488  19.022  -0.774  0.00  0.00    +0.015 C 
ATOM     10  C   UNL     1     -38.288  20.272   0.025  0.00  0.00    +0.073 C 
ATOM     11  C   UNL     1     -37.260  21.895   1.329  0.00  0.00    +0.083 C 
ATOM     12  C   UNL     1     -38.544  22.392   1.224  0.00  0.00    +0.163 C 
ATOM     13  C   UNL     1     -36.276  22.653   2.092  0.00  0.00    +0.261 C 
ATOM     14  C   UNL     1     -38.147  24.237   2.430  0.00  0.00    +0.222 C 
ENDROOT
BRANCH   3  15
ATOM     15  C   UNL     1     -35.917  24.594   3.508  0.00  0.00    +0.061 C 
ATOM     16  C   UNL     1     -35.093  25.561   2.949  0.00  0.00    +0.018 C 
ATOM     17  C   UNL     1     -35.896  24.340   4.873  0.00  0.00    +0.018 C 
ATOM     18  C   UNL     1     -34.233  26.290   3.770  0.00  0.00    +0.038 C 
ATOM     19  C   UNL     1     -35.034  25.068   5.694  0.00  0.00    +0.038 C 
ATOM     20  C   UNL     1     -34.203  26.043   5.143  0.00  0.00    +0.139 C 
BRANCH  20  21
ATOM     21  O   UNL     1     -33.364  26.754   5.943  0.00  0.00    -0.471 OA
ATOM     22  C   UNL     1     -32.557  27.750   5.316  0.00  0.00    +0.252 C 
ENDBRANCH  20  21
ENDBRANCH   3  15
BRANCH  14  23
ATOM     23  S   UNL     1     -38.711  25.810   2.996  0.00  0.00    -0.050 S 
BRANCH  23  24
ATOM     24  C   UNL     1     -40.486  25.494   2.954  0.00  0.00    +0.171 C 
BRANCH  24  26
ATOM     25  N   UNL     1     -41.876  27.567   3.768  0.00  0.00    -0.195 NA
ATOM     26  C   UNL     1     -41.259  26.650   3.410  0.00  0.00    +0.086 C 
ENDBRANCH  24  26
ENDBRANCH  23  24
ENDBRANCH  14  23
TORSDOF 5
ENDMDL
MODEL 7
REMARK VINA RESULT:      -5.4      4.432      6.248
REMARK  Name = 1913406
REMARK  5 active torsions:
REMARK  status: ('A' for Active; 'I' for Inactive)
REMARK    1  A    between atoms: N_3  and  C_15
REMARK    2  A    between atoms: C_14  and  S_23
REMARK    3  A    between atoms: C_20  and  O_21
REMARK    4  A    between atoms: S_23  and  C_24
REMARK    5  A    between atoms: C_24  and  C_26
REMARK                            x       y       z     vdW  Elec       q    Type
REMARK                         _______ _______ _______ _____ _____    ______ ____
ROOT
ATOM      1  S   UNL     1     -34.483  24.550   1.488  0.00  0.00    -0.079 S 
ATOM      2  O   UNL     1     -35.929  20.029   2.736  0.00  0.00    -0.269 OA
ATOM      3  N   UNL     1     -35.455  20.397   0.455  0.00  0.00    -0.204 N 
ATOM      4  N   UNL     1     -34.759  22.581  -0.295  0.00  0.00    -0.374 NA
ATOM      5  C   UNL     1     -35.237  22.891   3.307  0.00  0.00    -0.027 C 
ATOM      6  C   UNL     1     -35.613  22.378   4.667  0.00  0.00    +0.023 C 
ATOM      7  C   UNL     1     -35.165  23.326   5.790  0.00  0.00    +0.004 C 
ATOM      8  C   UNL     1     -35.469  24.791   5.453  0.00  0.00    +0.002 C 
ATOM      9  C   UNL     1     -34.731  25.241   4.184  0.00  0.00    +0.015 C 
ATOM     10  C   UNL     1     -34.854  24.206   3.110  0.00  0.00    +0.073 C 
ATOM     11  C   UNL     1     -35.245  22.167   2.070  0.00  0.00    +0.083 C 
ATOM     12  C   UNL     1     -34.849  22.953   1.006  0.00  0.00    +0.163 C 
ATOM     13  C   UNL     1     -35.594  20.774   1.819  0.00  0.00    +0.261 C 
ATOM     14  C   UNL     1     -35.069  21.340  -0.533  0.00  0.00    +0.222 C 
ENDROOT
BRANCH   3  15
ATOM     15  C   UNL     1     -35.689  19.013   0.149  0.00  0.00    +0.061 C 
ATOM     16  C   UNL     1     -34.612  18.144   0.043  0.00  0.00    +0.018 C 
ATOM     17  C   UNL     1     -36.989  18.564  -0.036  0.00  0.00    +0.018 C 
ATOM     18  C   UNL     1     -34.839  16.800  -0.254  0.00  0.00    +0.038 C 
ATOM     19  C   UNL     1     -37.217  17.220  -0.334  0.00  0.00    +0.038 C 
ATOM     20  C   UNL     1     -36.143  16.338  -0.443  0.00  0.00    +0.139 C 
BRANCH  20  21
ATOM     21  O   UNL     1     -36.364  15.027  -0.732  0.00  0.00    -0.471 OA
ATOM     22  C   UNL     1     -35.256  14.275  -1.224  0.00  0.00    +0.252 C 
ENDBRANCH  20  21
ENDBRANCH   3  15
BRANCH  14  23
ATOM     23  S   UNL     1     -35.089  20.884  -2.236  0.00  0.00    -0.050 S 
BRANCH  23  24
ATOM     24  C   UNL     1     -33.384  21.300  -2.650  0.00  0.00    +0.171 C 
BRANCH  24  26
ATOM     25  N   UNL     1     -31.678  19.632  -1.555  0.00  0.00    -0.195 NA
ATOM     26  C   UNL     1     -32.430  20.370  -2.041  0.00  0.00    +0.086 C 
ENDBRANCH  24  26
ENDBRANCH  23  24
ENDBRANCH  14  23
TORSDOF 5
ENDMDL
MODEL 8
REMARK VINA RESULT:      -5.4      5.037      8.183
REMARK  Name = 1913406
REMARK  5 active torsions:
REMARK  status: ('A' for Active; 'I' for Inactive)
REMARK    1  A    between atoms: N_3  and  C_15
REMARK    2  A    between atoms: C_14  and  S_23
REMARK    3  A    between atoms: C_20  and  O_21
REMARK    4  A    between atoms: S_23  and  C_24
REMARK    5  A    between atoms: C_24  and  C_26
REMARK                            x       y       z     vdW  Elec       q    Type
REMARK                         _______ _______ _______ _____ _____    ______ ____
ROOT
ATOM      1  S   UNL     1     -35.460  23.039   1.757  0.00  0.00    -0.079 S 
ATOM      2  O   UNL     1     -34.349  26.967   4.482  0.00  0.00    -0.269 OA
ATOM      3  N   UNL     1     -34.505  27.304   2.153  0.00  0.00    -0.204 N 
ATOM      4  N   UNL     1     -35.018  25.450   0.698  0.00  0.00    -0.374 NA
ATOM      5  C   UNL     1     -35.011  24.070   4.074  0.00  0.00    -0.027 C 
ATOM      6  C   UNL     1     -34.836  24.149   5.562  0.00  0.00    +0.023 C 
ATOM      7  C   UNL     1     -35.396  22.911   6.280  0.00  0.00    +0.004 C 
ATOM      8  C   UNL     1     -34.999  21.612   5.566  0.00  0.00    +0.002 C 
ATOM      9  C   UNL     1     -35.547  21.569   4.132  0.00  0.00    +0.015 C 
ATOM     10  C   UNL     1     -35.319  22.878   3.443  0.00  0.00    +0.073 C 
ATOM     11  C   UNL     1     -34.864  25.132   3.122  0.00  0.00    +0.083 C 
ATOM     12  C   UNL     1     -35.088  24.705   1.828  0.00  0.00    +0.163 C 
ATOM     13  C   UNL     1     -34.534  26.534   3.348  0.00  0.00    +0.261 C 
ATOM     14  C   UNL     1     -34.723  26.704   0.886  0.00  0.00    +0.222 C 
ENDROOT
BRANCH   3  15
ATOM     15  C   UNL     1     -34.280  28.715   2.309  0.00  0.00    +0.061 C 
ATOM     16  C   UNL     1     -32.983  29.209   2.275  0.00  0.00    +0.018 C 
ATOM     17  C   UNL     1     -35.363  29.563   2.491  0.00  0.00    +0.018 C 
ATOM     18  C   UNL     1     -32.766  30.579   2.425  0.00  0.00    +0.038 C 
ATOM     19  C   UNL     1     -35.146  30.933   2.642  0.00  0.00    +0.038 C 
ATOM     20  C   UNL     1     -33.847  31.441   2.609  0.00  0.00    +0.139 C 
BRANCH  20  21
ATOM     21  O   UNL     1     -33.634  32.777   2.754  0.00  0.00    -0.471 OA
ATOM     22  C   UNL     1     -33.979  33.613   1.650  0.00  0.00    +0.252 C 
ENDBRANCH  20  21
ENDBRANCH   3  15
BRANCH  14  23
ATOM     23  S   UNL     1     -34.494  27.650  -0.585  0.00  0.00    -0.050 S 
BRANCH  23  24
ATOM     24  C   UNL     1     -36.162  27.521  -1.255  0.00  0.00    +0.171 C 
BRANCH  24  26
ATOM     25  N   UNL     1     -37.988  28.178   0.513  0.00  0.00    -0.195 NA
ATOM     26  C   UNL     1     -37.179  27.885  -0.267  0.00  0.00    +0.086 C 
ENDBRANCH  24  26
ENDBRANCH  23  24
ENDBRANCH  14  23
TORSDOF 5
ENDMDL
MODEL 9
REMARK VINA RESULT:      -5.3      4.068      6.294
REMARK  Name = 1913406
REMARK  5 active torsions:
REMARK  status: ('A' for Active; 'I' for Inactive)
REMARK    1  A    between atoms: N_3  and  C_15
REMARK    2  A    between atoms: C_14  and  S_23
REMARK    3  A    between atoms: C_20  and  O_21
REMARK    4  A    between atoms: S_23  and  C_24
REMARK    5  A    between atoms: C_24  and  C_26
REMARK                            x       y       z     vdW  Elec       q    Type
REMARK                         _______ _______ _______ _____ _____    ______ ____
ROOT
ATOM      1  S   UNL     1     -34.464  24.405   1.485  0.00  0.00    -0.079 S 
ATOM      2  O   UNL     1     -35.985  19.905   2.721  0.00  0.00    -0.269 OA
ATOM      3  N   UNL     1     -35.517  20.275   0.440  0.00  0.00    -0.204 N 
ATOM      4  N   UNL     1     -34.787  22.450  -0.305  0.00  0.00    -0.374 NA
ATOM      5  C   UNL     1     -35.238  22.752   3.301  0.00  0.00    -0.027 C 
ATOM      6  C   UNL     1     -35.615  22.239   4.661  0.00  0.00    +0.023 C 
ATOM      7  C   UNL     1     -35.143  23.173   5.785  0.00  0.00    +0.004 C 
ATOM      8  C   UNL     1     -35.423  24.645   5.457  0.00  0.00    +0.002 C 
ATOM      9  C   UNL     1     -34.684  25.088   4.186  0.00  0.00    +0.015 C 
ATOM     10  C   UNL     1     -34.832  24.060   3.108  0.00  0.00    +0.073 C 
ATOM     11  C   UNL     1     -35.266  22.034   2.061  0.00  0.00    +0.083 C 
ATOM     12  C   UNL     1     -34.863  22.817   0.998  0.00  0.00    +0.163 C 
ATOM     13  C   UNL     1     -35.642  20.648   1.805  0.00  0.00    +0.261 C 
ATOM     14  C   UNL     1     -35.120  21.216  -0.547  0.00  0.00    +0.222 C 
ENDROOT
BRANCH   3  15
ATOM     15  C   UNL     1     -35.778  18.897   0.128  0.00  0.00    +0.061 C 
ATOM     16  C   UNL     1     -34.718  18.006   0.023  0.00  0.00    +0.018 C 
ATOM     17  C   UNL     1     -37.087  18.475  -0.063  0.00  0.00    +0.018 C 
ATOM     18  C   UNL     1     -34.972  16.668  -0.279  0.00  0.00    +0.038 C 
ATOM     19  C   UNL     1     -37.340  17.137  -0.365  0.00  0.00    +0.038 C 
ATOM     20  C   UNL     1     -36.284  16.233  -0.473  0.00  0.00    +0.139 C 
BRANCH  20  21
ATOM     21  O   UNL     1     -36.531  14.928  -0.766  0.00  0.00    -0.471 OA
ATOM     22  C   UNL     1     -35.509  14.215  -1.463  0.00  0.00    +0.252 C 
ENDBRANCH  20  21
ENDBRANCH   3  15
BRANCH  14  23
ATOM     23  S   UNL     1     -35.159  20.768  -2.252  0.00  0.00    -0.050 S 
BRANCH  23  24
ATOM     24  C   UNL     1     -36.484  21.865  -2.792  0.00  0.00    +0.171 C 
BRANCH  24  26
ATOM     25  N   UNL     1     -38.778  21.271  -1.662  0.00  0.00    -0.195 NA
ATOM     26  C   UNL     1     -37.762  21.532  -2.159  0.00  0.00    +0.086 C 
ENDBRANCH  24  26
ENDBRANCH  23  24
ENDBRANCH  14  23
TORSDOF 5
ENDMDL
