MODEL 1
REMARK VINA RESULT:      -5.9      0.000      0.000
REMARK  Name = 5942099
REMARK  8 active torsions:
REMARK  status: ('A' for Active; 'I' for Inactive)
REMARK    1  A    between atoms: N_1  and  O_3
REMARK    2  A    between atoms: C_2  and  C_6
REMARK    3  A    between atoms: C_2  and  C_14
REMARK    4  A    between atoms: C_5  and  C_7
REMARK    5  A    between atoms: C_5  and  C_12
REMARK    6  A    between atoms: C_7  and  N_11
REMARK    7  A    between atoms: C_14  and  N_16
REMARK    8  A    between atoms: C_17  and  C_20
REMARK                            x       y       z     vdW  Elec       q    Type
REMARK                         _______ _______ _______ _____ _____    ______ ____
ROOT
ATOM      1  N   UNL     1     -34.902  22.125   5.745  0.00  0.00    -0.089 NA
ATOM      2  C   UNL     1     -35.193  22.694   4.613  0.00  0.00    +0.116 C 
ENDROOT
BRANCH   1   3
ATOM      3  O   UNL     1     -35.554  20.898   5.883  0.00  0.00    -0.409 OA
ATOM      4  H   UNL     1     -35.996  20.689   6.682  0.00  0.00    +0.328 HD
ENDBRANCH   1   3
BRANCH   2   6
ATOM      5  C   UNL     1     -35.255  25.182   4.329  0.00  0.00    -0.016 C 
ATOM      6  C   UNL     1     -34.587  24.014   4.269  0.00  0.00    +0.013 C 
BRANCH   5   7
ATOM      7  C   UNL     1     -34.595  26.506   3.978  0.00  0.00    +0.185 C 
ATOM      8  C   UNL     1     -33.895  26.640   2.630  0.00  0.00    +0.036 C 
BRANCH   7  11
ATOM      9  O   UNL     1     -33.896  26.625   6.196  0.00  0.00    -0.131 OA
ATOM     10  O   UNL     1     -32.406  26.968   4.610  0.00  0.00    -0.131 OA
ATOM     11  N   UNL     1     -33.552  26.722   5.008  0.00  0.00    +0.036 N 
ENDBRANCH   7  11
ENDBRANCH   5   7
BRANCH   5  12
ATOM     12  C   UNL     1     -36.717  25.283   4.737  0.00  0.00    +0.024 C 
ATOM     13  C   UNL     1     -37.646  25.469   3.544  0.00  0.00    +0.005 C 
ENDBRANCH   5  12
ENDBRANCH   2   6
BRANCH   2  14
ATOM     14  C   UNL     1     -36.106  22.100   3.560  0.00  0.00    +0.139 C 
BRANCH  14  16
ATOM     15  O   UNL     1     -36.765  20.880   1.046  0.00  0.00    -0.270 OA
ATOM     16  N   UNL     1     -35.368  21.070   2.888  0.00  0.00    -0.296 N 
ATOM     17  C   UNL     1     -35.764  20.535   1.666  0.00  0.00    +0.248 C 
ATOM     18  H   UNL     1     -34.547  20.727   3.309  0.00  0.00    +0.150 HD
BRANCH  17  20
ATOM     19  N   UNL     1     -34.622  17.701  -0.486  0.00  0.00    -0.242 NA
ATOM     20  C   UNL     1     -34.905  19.455   1.113  0.00  0.00    +0.072 C 
ATOM     21  C   UNL     1     -33.666  19.219   1.658  0.00  0.00    +0.008 C 
ATOM     22  C   UNL     1     -35.352  18.699   0.063  0.00  0.00    +0.103 C 
ATOM     23  C   UNL     1     -32.885  18.203   1.120  0.00  0.00    +0.021 C 
ATOM     24  C   UNL     1     -33.404  17.480   0.058  0.00  0.00    +0.099 C 
ENDBRANCH  17  20
ENDBRANCH  14  16
ENDBRANCH   2  14
TORSDOF 8
ENDMDL
MODEL 2
REMARK VINA RESULT:      -5.7      3.142      8.020
REMARK  Name = 5942099
REMARK  8 active torsions:
REMARK  status: ('A' for Active; 'I' for Inactive)
REMARK    1  A    between atoms: N_1  and  O_3
REMARK    2  A    between atoms: C_2  and  C_6
REMARK    3  A    between atoms: C_2  and  C_14
REMARK    4  A    between atoms: C_5  and  C_7
REMARK    5  A    between atoms: C_5  and  C_12
REMARK    6  A    between atoms: C_7  and  N_11
REMARK    7  A    between atoms: C_14  and  N_16
REMARK    8  A    between atoms: C_17  and  C_20
REMARK                            x       y       z     vdW  Elec       q    Type
REMARK                         _______ _______ _______ _____ _____    ______ ____
ROOT
ATOM      1  N   UNL     1     -32.702  25.623   3.270  0.00  0.00    -0.089 NA
ATOM      2  C   UNL     1     -33.946  25.569   3.642  0.00  0.00    +0.116 C 
ENDROOT
BRANCH   1   3
ATOM      3  O   UNL     1     -32.073  26.773   3.752  0.00  0.00    -0.409 OA
ATOM      4  H   UNL     1     -32.362  27.164   4.552  0.00  0.00    +0.328 HD
ENDBRANCH   1   3
BRANCH   2   6
ATOM      5  C   UNL     1     -35.225  23.463   4.094  0.00  0.00    -0.016 C 
ATOM      6  C   UNL     1     -34.792  24.409   3.237  0.00  0.00    +0.013 C 
BRANCH   5   7
ATOM      7  C   UNL     1     -36.093  22.301   3.638  0.00  0.00    +0.185 C 
ATOM      8  C   UNL     1     -35.537  21.336   2.597  0.00  0.00    +0.036 C 
BRANCH   7  11
ATOM      9  O   UNL     1     -37.880  23.794   3.683  0.00  0.00    -0.131 OA
ATOM     10  O   UNL     1     -37.634  22.511   1.909  0.00  0.00    -0.131 OA
ATOM     11  N   UNL     1     -37.300  22.912   3.032  0.00  0.00    +0.036 N 
ENDBRANCH   7  11
ENDBRANCH   5   7
BRANCH   5  12
ATOM     12  C   UNL     1     -34.882  23.464   5.575  0.00  0.00    +0.024 C 
ATOM     13  C   UNL     1     -35.226  22.145   6.257  0.00  0.00    +0.005 C 
ENDBRANCH   5  12
ENDBRANCH   2   6
BRANCH   2  14
ATOM     14  C   UNL     1     -34.631  26.607   4.507  0.00  0.00    +0.139 C 
BRANCH  14  16
ATOM     15  O   UNL     1     -33.678  29.186   3.681  0.00  0.00    -0.270 OA
ATOM     16  N   UNL     1     -35.295  27.524   3.627  0.00  0.00    -0.296 N 
ATOM     17  C   UNL     1     -34.757  28.759   3.279  0.00  0.00    +0.248 C 
ATOM     18  H   UNL     1     -36.170  27.269   3.254  0.00  0.00    +0.150 HD
BRANCH  17  20
ATOM     19  N   UNL     1     -37.095  29.734   0.532  0.00  0.00    -0.242 NA
ATOM     20  C   UNL     1     -35.583  29.605   2.379  0.00  0.00    +0.072 C 
ATOM     21  C   UNL     1     -35.602  30.969   2.548  0.00  0.00    +0.008 C 
ATOM     22  C   UNL     1     -36.323  29.023   1.385  0.00  0.00    +0.103 C 
ATOM     23  C   UNL     1     -36.384  31.734   1.691  0.00  0.00    +0.021 C 
ATOM     24  C   UNL     1     -37.105  31.075   0.708  0.00  0.00    +0.099 C 
ENDBRANCH  17  20
ENDBRANCH  14  16
ENDBRANCH   2  14
TORSDOF 8
ENDMDL
MODEL 3
REMARK VINA RESULT:      -5.6      3.350      5.622
REMARK  Name = 5942099
REMARK  8 active torsions:
REMARK  status: ('A' for Active; 'I' for Inactive)
REMARK    1  A    between atoms: N_1  and  O_3
REMARK    2  A    between atoms: C_2  and  C_6
REMARK    3  A    between atoms: C_2  and  C_14
REMARK    4  A    between atoms: C_5  and  C_7
REMARK    5  A    between atoms: C_5  and  C_12
REMARK    6  A    between atoms: C_7  and  N_11
REMARK    7  A    between atoms: C_14  and  N_16
REMARK    8  A    between atoms: C_17  and  C_20
REMARK                            x       y       z     vdW  Elec       q    Type
REMARK                         _______ _______ _______ _____ _____    ______ ____
ROOT
ATOM      1  N   UNL     1     -33.970  28.117   3.753  0.00  0.00    -0.089 NA
ATOM      2  C   UNL     1     -33.200  27.459   4.568  0.00  0.00    +0.116 C 
ENDROOT
BRANCH   1   3
ATOM      3  O   UNL     1     -35.314  27.792   3.945  0.00  0.00    -0.409 OA
ATOM      4  H   UNL     1     -35.960  28.089   3.334  0.00  0.00    +0.328 HD
ENDBRANCH   1   3
BRANCH   2   6
ATOM      5  C   UNL     1     -31.072  28.537   5.334  0.00  0.00    -0.016 C 
ATOM      6  C   UNL     1     -31.724  27.674   4.529  0.00  0.00    +0.013 C 
BRANCH   5   7
ATOM      7  C   UNL     1     -29.564  28.718   5.265  0.00  0.00    +0.185 C 
ATOM      8  C   UNL     1     -28.783  27.957   4.200  0.00  0.00    +0.036 C 
BRANCH   7  11
ATOM      9  O   UNL     1     -28.679  29.117   7.381  0.00  0.00    -0.131 OA
ATOM     10  O   UNL     1     -29.021  27.029   6.769  0.00  0.00    -0.131 OA
ATOM     11  N   UNL     1     -29.042  28.252   6.572  0.00  0.00    +0.036 N 
ENDBRANCH   7  11
ENDBRANCH   5   7
BRANCH   5  12
ATOM     12  C   UNL     1     -31.776  29.407   6.364  0.00  0.00    +0.024 C 
ATOM     13  C   UNL     1     -32.020  30.825   5.864  0.00  0.00    +0.005 C 
ENDBRANCH   5  12
ENDBRANCH   2   6
BRANCH   2  14
ATOM     14  C   UNL     1     -33.691  26.477   5.611  0.00  0.00    +0.139 C 
BRANCH  14  16
ATOM     15  O   UNL     1     -36.225  25.178   5.248  0.00  0.00    -0.270 OA
ATOM     16  N   UNL     1     -33.927  25.229   4.944  0.00  0.00    -0.296 N 
ATOM     17  C   UNL     1     -35.195  24.672   4.814  0.00  0.00    +0.248 C 
ATOM     18  H   UNL     1     -33.158  24.747   4.562  0.00  0.00    +0.150 HD
BRANCH  17  20
ATOM     19  N   UNL     1     -35.390  20.979   4.281  0.00  0.00    -0.242 NA
ATOM     20  C   UNL     1     -35.268  23.360   4.120  0.00  0.00    +0.072 C 
ATOM     21  C   UNL     1     -35.281  23.313   2.747  0.00  0.00    +0.008 C 
ATOM     22  C   UNL     1     -35.323  22.204   4.850  0.00  0.00    +0.103 C 
ATOM     23  C   UNL     1     -35.351  22.072   2.124  0.00  0.00    +0.021 C 
ATOM     24  C   UNL     1     -35.403  20.945   2.929  0.00  0.00    +0.099 C 
ENDBRANCH  17  20
ENDBRANCH  14  16
ENDBRANCH   2  14
TORSDOF 8
ENDMDL
MODEL 4
REMARK VINA RESULT:      -5.6      2.276      2.959
REMARK  Name = 5942099
REMARK  8 active torsions:
REMARK  status: ('A' for Active; 'I' for Inactive)
REMARK    1  A    between atoms: N_1  and  O_3
REMARK    2  A    between atoms: C_2  and  C_6
REMARK    3  A    between atoms: C_2  and  C_14
REMARK    4  A    between atoms: C_5  and  C_7
REMARK    5  A    between atoms: C_5  and  C_12
REMARK    6  A    between atoms: C_7  and  N_11
REMARK    7  A    between atoms: C_14  and  N_16
REMARK    8  A    between atoms: C_17  and  C_20
REMARK                            x       y       z     vdW  Elec       q    Type
REMARK                         _______ _______ _______ _____ _____    ______ ____
ROOT
ATOM      1  N   UNL     1     -38.291  22.541   2.903  0.00  0.00    -0.089 NA
ATOM      2  C   UNL     1     -37.315  23.267   2.442  0.00  0.00    +0.116 C 
ENDROOT
BRANCH   1   3
ATOM      3  O   UNL     1     -38.778  21.662   1.933  0.00  0.00    -0.409 OA
ATOM      4  H   UNL     1     -39.661  21.354   1.982  0.00  0.00    +0.328 HD
ENDBRANCH   1   3
BRANCH   2   6
ATOM      5  C   UNL     1     -35.770  23.938   4.295  0.00  0.00    -0.016 C 
ATOM      6  C   UNL     1     -36.650  24.265   3.328  0.00  0.00    +0.013 C 
BRANCH   5   7
ATOM      7  C   UNL     1     -35.109  24.990   5.171  0.00  0.00    +0.185 C 
ATOM      8  C   UNL     1     -35.993  25.999   5.896  0.00  0.00    +0.036 C 
BRANCH   7  11
ATOM      9  O   UNL     1     -34.519  26.976   4.108  0.00  0.00    -0.131 OA
ATOM     10  O   UNL     1     -33.281  25.189   3.747  0.00  0.00    -0.131 OA
ATOM     11  N   UNL     1     -34.239  25.779   4.267  0.00  0.00    +0.036 N 
ENDBRANCH   7  11
ENDBRANCH   5   7
BRANCH   5  12
ATOM     12  C   UNL     1     -35.370  22.504   4.604  0.00  0.00    +0.024 C 
ATOM     13  C   UNL     1     -35.373  22.204   6.098  0.00  0.00    +0.005 C 
ENDBRANCH   5  12
ENDBRANCH   2   6
BRANCH   2  14
ATOM     14  C   UNL     1     -36.756  23.163   1.037  0.00  0.00    +0.139 C 
BRANCH  14  16
ATOM     15  O   UNL     1     -33.927  23.278   0.561  0.00  0.00    -0.270 OA
ATOM     16  N   UNL     1     -35.845  22.056   1.021  0.00  0.00    -0.296 N 
ATOM     17  C   UNL     1     -34.482  22.205   0.781  0.00  0.00    +0.248 C 
ATOM     18  H   UNL     1     -36.198  21.153   1.188  0.00  0.00    +0.150 HD
BRANCH  17  20
ATOM     19  N   UNL     1     -31.703  19.815   0.053  0.00  0.00    -0.242 NA
ATOM     20  C   UNL     1     -33.677  20.956   0.771  0.00  0.00    +0.072 C 
ATOM     21  C   UNL     1     -34.132  19.843   1.436  0.00  0.00    +0.008 C 
ATOM     22  C   UNL     1     -32.484  20.919   0.101  0.00  0.00    +0.103 C 
ATOM     23  C   UNL     1     -33.358  18.689   1.410  0.00  0.00    +0.021 C 
ATOM     24  C   UNL     1     -32.162  18.727   0.711  0.00  0.00    +0.099 C 
ENDBRANCH  17  20
ENDBRANCH  14  16
ENDBRANCH   2  14
TORSDOF 8
ENDMDL
MODEL 5
REMARK VINA RESULT:      -5.5      2.909      5.643
REMARK  Name = 5942099
REMARK  8 active torsions:
REMARK  status: ('A' for Active; 'I' for Inactive)
REMARK    1  A    between atoms: N_1  and  O_3
REMARK    2  A    between atoms: C_2  and  C_6
REMARK    3  A    between atoms: C_2  and  C_14
REMARK    4  A    between atoms: C_5  and  C_7
REMARK    5  A    between atoms: C_5  and  C_12
REMARK    6  A    between atoms: C_7  and  N_11
REMARK    7  A    between atoms: C_14  and  N_16
REMARK    8  A    between atoms: C_17  and  C_20
REMARK                            x       y       z     vdW  Elec       q    Type
REMARK                         _______ _______ _______ _____ _____    ______ ____
ROOT
ATOM      1  N   UNL     1     -35.766  20.792   3.223  0.00  0.00    -0.089 NA
ATOM      2  C   UNL     1     -35.716  21.891   2.528  0.00  0.00    +0.116 C 
ENDROOT
BRANCH   1   3
ATOM      3  O   UNL     1     -36.604  19.848   2.627  0.00  0.00    -0.409 OA
ATOM      4  H   UNL     1     -36.624  19.761   1.694  0.00  0.00    +0.328 HD
ENDBRANCH   1   3
BRANCH   2   6
ATOM      5  C   UNL     1     -34.975  23.593   4.210  0.00  0.00    -0.016 C 
ATOM      6  C   UNL     1     -34.864  23.024   2.993  0.00  0.00    +0.013 C 
BRANCH   5   7
ATOM      7  C   UNL     1     -34.079  24.741   4.645  0.00  0.00    +0.185 C 
ATOM      8  C   UNL     1     -34.590  25.706   5.710  0.00  0.00    +0.036 C 
BRANCH   7  11
ATOM      9  O   UNL     1     -34.827  26.120   2.925  0.00  0.00    -0.131 OA
ATOM     10  O   UNL     1     -32.682  25.627   3.011  0.00  0.00    -0.131 OA
ATOM     11  N   UNL     1     -33.846  25.555   3.429  0.00  0.00    +0.036 N 
ENDBRANCH   7  11
ENDBRANCH   5   7
BRANCH   5  12
ATOM     12  C   UNL     1     -36.001  23.153   5.243  0.00  0.00    +0.024 C 
ATOM     13  C   UNL     1     -35.399  22.262   6.322  0.00  0.00    +0.005 C 
ENDBRANCH   5  12
ENDBRANCH   2   6
BRANCH   2  14
ATOM     14  C   UNL     1     -36.454  22.119   1.225  0.00  0.00    +0.139 C 
BRANCH  14  16
ATOM     15  O   UNL     1     -39.116  21.828   2.260  0.00  0.00    -0.270 OA
ATOM     16  N   UNL     1     -37.405  23.168   1.451  0.00  0.00    -0.296 N 
ATOM     17  C   UNL     1     -38.679  22.935   1.958  0.00  0.00    +0.248 C 
ATOM     18  H   UNL     1     -37.144  24.093   1.238  0.00  0.00    +0.150 HD
BRANCH  17  20
ATOM     19  N   UNL     1     -39.909  26.277   3.088  0.00  0.00    -0.242 NA
ATOM     20  C   UNL     1     -39.555  24.126   2.108  0.00  0.00    +0.072 C 
ATOM     21  C   UNL     1     -40.756  24.181   1.443  0.00  0.00    +0.008 C 
ATOM     22  C   UNL     1     -39.161  25.165   2.908  0.00  0.00    +0.103 C 
ATOM     23  C   UNL     1     -41.553  25.308   1.602  0.00  0.00    +0.021 C 
ATOM     24  C   UNL     1     -41.089  26.320   2.428  0.00  0.00    +0.099 C 
ENDBRANCH  17  20
ENDBRANCH  14  16
ENDBRANCH   2  14
TORSDOF 8
ENDMDL
MODEL 6
REMARK VINA RESULT:      -5.5      2.709      4.441
REMARK  Name = 5942099
REMARK  8 active torsions:
REMARK  status: ('A' for Active; 'I' for Inactive)
REMARK    1  A    between atoms: N_1  and  O_3
REMARK    2  A    between atoms: C_2  and  C_6
REMARK    3  A    between atoms: C_2  and  C_14
REMARK    4  A    between atoms: C_5  and  C_7
REMARK    5  A    between atoms: C_5  and  C_12
REMARK    6  A    between atoms: C_7  and  N_11
REMARK    7  A    between atoms: C_14  and  N_16
REMARK    8  A    between atoms: C_17  and  C_20
REMARK                            x       y       z     vdW  Elec       q    Type
REMARK                         _______ _______ _______ _____ _____    ______ ____
ROOT
ATOM      1  N   UNL     1     -35.493  27.006   4.759  0.00  0.00    -0.089 NA
ATOM      2  C   UNL     1     -34.415  26.326   4.505  0.00  0.00    +0.116 C 
ENDROOT
BRANCH   1   3
ATOM      3  O   UNL     1     -36.368  26.293   5.581  0.00  0.00    -0.409 OA
ATOM      4  H   UNL     1     -36.641  26.656   6.401  0.00  0.00    +0.328 HD
ENDBRANCH   1   3
BRANCH   2   6
ATOM      5  C   UNL     1     -32.338  27.673   4.126  0.00  0.00    -0.016 C 
ATOM      6  C   UNL     1     -33.347  26.919   3.649  0.00  0.00    +0.013 C 
BRANCH   5   7
ATOM      7  C   UNL     1     -31.266  28.251   3.217  0.00  0.00    +0.185 C 
ATOM      8  C   UNL     1     -31.609  28.512   1.754  0.00  0.00    +0.036 C 
BRANCH   7  11
ATOM      9  O   UNL     1     -29.188  27.490   3.943  0.00  0.00    -0.131 OA
ATOM     10  O   UNL     1     -30.301  26.264   2.490  0.00  0.00    -0.131 OA
ATOM     11  N   UNL     1     -30.163  27.261   3.212  0.00  0.00    +0.036 N 
ENDBRANCH   7  11
ENDBRANCH   5   7
BRANCH   5  12
ATOM     12  C   UNL     1     -32.184  28.021   5.599  0.00  0.00    +0.024 C 
ATOM     13  C   UNL     1     -31.754  29.466   5.817  0.00  0.00    +0.005 C 
ENDBRANCH   5  12
ENDBRANCH   2   6
BRANCH   2  14
ATOM     14  C   UNL     1     -34.125  24.941   5.047  0.00  0.00    +0.139 C 
BRANCH  14  16
ATOM     15  O   UNL     1     -36.270  23.094   5.526  0.00  0.00    -0.270 OA
ATOM     16  N   UNL     1     -34.666  23.996   4.114  0.00  0.00    -0.296 N 
ATOM     17  C   UNL     1     -35.711  23.135   4.434  0.00  0.00    +0.248 C 
ATOM     18  H   UNL     1     -34.281  23.955   3.209  0.00  0.00    +0.150 HD
BRANCH  17  20
ATOM     19  N   UNL     1     -37.726  21.635   1.667  0.00  0.00    -0.242 NA
ATOM     20  C   UNL     1     -36.139  22.196   3.364  0.00  0.00    +0.072 C 
ATOM     21  C   UNL     1     -35.386  21.080   3.092  0.00  0.00    +0.008 C 
ATOM     22  C   UNL     1     -37.281  22.448   2.653  0.00  0.00    +0.103 C 
ATOM     23  C   UNL     1     -35.811  20.220   2.085  0.00  0.00    +0.021 C 
ATOM     24  C   UNL     1     -36.977  20.540   1.409  0.00  0.00    +0.099 C 
ENDBRANCH  17  20
ENDBRANCH  14  16
ENDBRANCH   2  14
TORSDOF 8
ENDMDL
MODEL 7
REMARK VINA RESULT:      -5.5      4.754      8.435
REMARK  Name = 5942099
REMARK  8 active torsions:
REMARK  status: ('A' for Active; 'I' for Inactive)
REMARK    1  A    between atoms: N_1  and  O_3
REMARK    2  A    between atoms: C_2  and  C_6
REMARK    3  A    between atoms: C_2  and  C_14
REMARK    4  A    between atoms: C_5  and  C_7
REMARK    5  A    between atoms: C_5  and  C_12
REMARK    6  A    between atoms: C_7  and  N_11
REMARK    7  A    between atoms: C_14  and  N_16
REMARK    8  A    between atoms: C_17  and  C_20
REMARK                            x       y       z     vdW  Elec       q    Type
REMARK                         _______ _______ _______ _____ _____    ______ ____
ROOT
ATOM      1  N   UNL     1     -37.879  26.659   2.278  0.00  0.00    -0.089 NA
ATOM      2  C   UNL     1     -38.107  25.632   3.042  0.00  0.00    +0.116 C 
ENDROOT
BRANCH   1   3
ATOM      3  O   UNL     1     -38.995  26.977   1.500  0.00  0.00    -0.409 OA
ATOM      4  H   UNL     1     -39.332  27.851   1.500  0.00  0.00    +0.328 HD
ENDBRANCH   1   3
BRANCH   2   6
ATOM      5  C   UNL     1     -36.073  24.276   3.588  0.00  0.00    -0.016 C 
ATOM      6  C   UNL     1     -37.039  25.139   3.959  0.00  0.00    +0.013 C 
BRANCH   5   7
ATOM      7  C   UNL     1     -34.998  23.807   4.555  0.00  0.00    +0.185 C 
ATOM      8  C   UNL     1     -35.426  23.227   5.899  0.00  0.00    +0.036 C 
BRANCH   7  11
ATOM      9  O   UNL     1     -33.352  25.362   4.014  0.00  0.00    -0.131 OA
ATOM     10  O   UNL     1     -34.397  25.574   5.942  0.00  0.00    -0.131 OA
ATOM     11  N   UNL     1     -34.181  25.004   4.864  0.00  0.00    +0.036 N 
ENDBRANCH   7  11
ENDBRANCH   5   7
BRANCH   5  12
ATOM     12  C   UNL     1     -35.974  23.691   2.187  0.00  0.00    +0.024 C 
ATOM     13  C   UNL     1     -36.547  22.282   2.100  0.00  0.00    +0.005 C 
ENDBRANCH   5  12
ENDBRANCH   2   6
BRANCH   2  14
ATOM     14  C   UNL     1     -39.421  24.881   3.103  0.00  0.00    +0.139 C 
BRANCH  14  16
ATOM     15  O   UNL     1     -41.870  25.753   1.885  0.00  0.00    -0.270 OA
ATOM     16  N   UNL     1     -40.393  25.767   3.674  0.00  0.00    -0.296 N 
ATOM     17  C   UNL     1     -41.558  26.138   3.009  0.00  0.00    +0.248 C 
ATOM     18  H   UNL     1     -40.229  26.128   4.574  0.00  0.00    +0.150 HD
BRANCH  17  20
ATOM     19  N   UNL     1     -42.696  29.152   4.900  0.00  0.00    -0.242 NA
ATOM     20  C   UNL     1     -42.450  27.085   3.726  0.00  0.00    +0.072 C 
ATOM     21  C   UNL     1     -43.784  26.792   3.871  0.00  0.00    +0.008 C 
ATOM     22  C   UNL     1     -41.940  28.248   4.237  0.00  0.00    +0.103 C 
ATOM     23  C   UNL     1     -44.595  27.697   4.546  0.00  0.00    +0.021 C 
ATOM     24  C   UNL     1     -44.008  28.853   5.036  0.00  0.00    +0.099 C 
ENDBRANCH  17  20
ENDBRANCH  14  16
ENDBRANCH   2  14
TORSDOF 8
ENDMDL
MODEL 8
REMARK VINA RESULT:      -5.5      3.422      6.479
REMARK  Name = 5942099
REMARK  8 active torsions:
REMARK  status: ('A' for Active; 'I' for Inactive)
REMARK    1  A    between atoms: N_1  and  O_3
REMARK    2  A    between atoms: C_2  and  C_6
REMARK    3  A    between atoms: C_2  and  C_14
REMARK    4  A    between atoms: C_5  and  C_7
REMARK    5  A    between atoms: C_5  and  C_12
REMARK    6  A    between atoms: C_7  and  N_11
REMARK    7  A    between atoms: C_14  and  N_16
REMARK    8  A    between atoms: C_17  and  C_20
REMARK                            x       y       z     vdW  Elec       q    Type
REMARK                         _______ _______ _______ _____ _____    ______ ____
ROOT
ATOM      1  N   UNL     1     -35.322  21.132   4.488  0.00  0.00    -0.089 NA
ATOM      2  C   UNL     1     -35.376  22.430   4.431  0.00  0.00    +0.116 C 
ENDROOT
BRANCH   1   3
ATOM      3  O   UNL     1     -35.410  20.673   5.804  0.00  0.00    -0.409 OA
ATOM      4  H   UNL     1     -34.934  21.106   6.484  0.00  0.00    +0.328 HD
ENDBRANCH   1   3
BRANCH   2   6
ATOM      5  C   UNL     1     -36.393  23.459   2.387  0.00  0.00    -0.016 C 
ATOM      6  C   UNL     1     -35.308  23.118   3.109  0.00  0.00    +0.013 C 
BRANCH   5   7
ATOM      7  C   UNL     1     -36.277  24.168   1.047  0.00  0.00    +0.185 C 
ATOM      8  C   UNL     1     -35.479  23.500  -0.068  0.00  0.00    +0.036 C 
BRANCH   7  11
ATOM      9  O   UNL     1     -34.498  25.647   0.788  0.00  0.00    -0.131 OA
ATOM     10  O   UNL     1     -36.183  26.254   2.069  0.00  0.00    -0.131 OA
ATOM     11  N   UNL     1     -35.597  25.454   1.328  0.00  0.00    +0.036 N 
ENDBRANCH   7  11
ENDBRANCH   5   7
BRANCH   5  12
ATOM     12  C   UNL     1     -37.816  23.162   2.834  0.00  0.00    +0.024 C 
ATOM     13  C   UNL     1     -38.859  23.831   1.948  0.00  0.00    +0.005 C 
ENDBRANCH   5  12
ENDBRANCH   2   6
BRANCH   2  14
ATOM     14  C   UNL     1     -35.535  23.337   5.634  0.00  0.00    +0.139 C 
BRANCH  14  16
ATOM     15  O   UNL     1     -35.983  26.173   5.644  0.00  0.00    -0.270 OA
ATOM     16  N   UNL     1     -34.538  24.362   5.530  0.00  0.00    -0.296 N 
ATOM     17  C   UNL     1     -34.847  25.719   5.544  0.00  0.00    +0.248 C 
ATOM     18  H   UNL     1     -33.594  24.094   5.445  0.00  0.00    +0.150 HD
BRANCH  17  20
ATOM     19  N   UNL     1     -31.891  27.824   6.431  0.00  0.00    -0.242 NA
ATOM     20  C   UNL     1     -33.702  26.655   5.400  0.00  0.00    +0.072 C 
ATOM     21  C   UNL     1     -33.405  27.189   4.169  0.00  0.00    +0.008 C 
ATOM     22  C   UNL     1     -32.945  26.980   6.493  0.00  0.00    +0.103 C 
ATOM     23  C   UNL     1     -32.328  28.061   4.064  0.00  0.00    +0.021 C 
ATOM     24  C   UNL     1     -31.609  28.344   5.215  0.00  0.00    +0.099 C 
ENDBRANCH  17  20
ENDBRANCH  14  16
ENDBRANCH   2  14
TORSDOF 8
ENDMDL
MODEL 9
REMARK VINA RESULT:      -5.5      2.559      3.330
REMARK  Name = 5942099
REMARK  8 active torsions:
REMARK  status: ('A' for Active; 'I' for Inactive)
REMARK    1  A    between atoms: N_1  and  O_3
REMARK    2  A    between atoms: C_2  and  C_6
REMARK    3  A    between atoms: C_2  and  C_14
REMARK    4  A    between atoms: C_5  and  C_7
REMARK    5  A    between atoms: C_5  and  C_12
REMARK    6  A    between atoms: C_7  and  N_11
REMARK    7  A    between atoms: C_14  and  N_16
REMARK    8  A    between atoms: C_17  and  C_20
REMARK                            x       y       z     vdW  Elec       q    Type
REMARK                         _______ _______ _______ _____ _____    ______ ____
ROOT
ATOM      1  N   UNL     1     -37.718  22.166   2.540  0.00  0.00    -0.089 NA
ATOM      2  C   UNL     1     -36.433  21.968   2.512  0.00  0.00    +0.116 C 
ENDROOT
BRANCH   1   3
ATOM      3  O   UNL     1     -38.423  20.989   2.276  0.00  0.00    -0.409 OA
ATOM      4  H   UNL     1     -38.281  20.230   2.807  0.00  0.00    +0.328 HD
ENDBRANCH   1   3
BRANCH   2   6
ATOM      5  C   UNL     1     -35.210  23.556   4.014  0.00  0.00    -0.016 C 
ATOM      6  C   UNL     1     -35.503  23.103   2.779  0.00  0.00    +0.013 C 
BRANCH   5   7
ATOM      7  C   UNL     1     -34.248  24.711   4.241  0.00  0.00    +0.185 C 
ATOM      8  C   UNL     1     -34.243  25.405   5.598  0.00  0.00    +0.036 C 
BRANCH   7  11
ATOM      9  O   UNL     1     -35.710  26.318   3.404  0.00  0.00    -0.131 OA
ATOM     10  O   UNL     1     -33.808  25.982   2.344  0.00  0.00    -0.131 OA
ATOM     11  N   UNL     1     -34.621  25.747   3.249  0.00  0.00    +0.036 N 
ENDBRANCH   7  11
ENDBRANCH   5   7
BRANCH   5  12
ATOM     12  C   UNL     1     -35.814  22.967   5.280  0.00  0.00    +0.024 C 
ATOM     13  C   UNL     1     -34.982  21.826   5.850  0.00  0.00    +0.005 C 
ENDBRANCH   5  12
ENDBRANCH   2   6
BRANCH   2  14
ATOM     14  C   UNL     1     -35.774  20.630   2.248  0.00  0.00    +0.139 C 
BRANCH  14  16
ATOM     15  O   UNL     1     -33.669  18.772   1.650  0.00  0.00    -0.270 OA
ATOM     16  N   UNL     1     -34.622  20.875   1.431  0.00  0.00    -0.296 N 
ATOM     17  C   UNL     1     -33.647  19.912   1.193  0.00  0.00    +0.248 C 
ATOM     18  H   UNL     1     -34.517  21.764   1.020  0.00  0.00    +0.150 HD
BRANCH  17  20
ATOM     19  N   UNL     1     -31.535  21.972  -1.099  0.00  0.00    -0.242 NA
ATOM     20  C   UNL     1     -32.501  20.332   0.346  0.00  0.00    +0.072 C 
ATOM     21  C   UNL     1     -31.402  19.515   0.228  0.00  0.00    +0.008 C 
ATOM     22  C   UNL     1     -32.543  21.531  -0.313  0.00  0.00    +0.103 C 
ATOM     23  C   UNL     1     -30.345  19.935  -0.571  0.00  0.00    +0.021 C 
ATOM     24  C   UNL     1     -30.459  21.161  -1.207  0.00  0.00    +0.099 C 
ENDBRANCH  17  20
ENDBRANCH  14  16
ENDBRANCH   2  14
TORSDOF 8
ENDMDL
