MODEL 1
REMARK VINA RESULT:      -6.2      0.000      0.000
REMARK  Name = 5378945
REMARK  8 active torsions:
REMARK  status: ('A' for Active; 'I' for Inactive)
REMARK    1  A    between atoms: C_3  and  C_24
REMARK    2  A    between atoms: C_5  and  O_20
REMARK    3  A    between atoms: C_7  and  O_22
REMARK    4  A    between atoms: C_9  and  C_12
REMARK    5  A    between atoms: C_17  and  O_18
REMARK    6  A    between atoms: C_24  and  C_25
REMARK    7  A    between atoms: C_26  and  C_28
REMARK    8  A    between atoms: C_28  and  O_29
REMARK                            x       y       z     vdW  Elec       q    Type
REMARK                         _______ _______ _______ _____ _____    ______ ____
ROOT
ATOM      1  O   UNL     1     -41.763  24.107   0.990  0.00  0.00    -0.450 OA
ATOM      2  O   UNL     1     -40.531  26.993   3.599  0.00  0.00    -0.286 OA
ATOM      3  C   UNL     1     -37.853  23.963   2.399  0.00  0.00    +0.050 C 
ATOM      4  C   UNL     1     -40.009  25.047   2.380  0.00  0.00    +0.107 C 
ATOM      5  C   UNL     1     -38.692  24.986   2.843  0.00  0.00    +0.139 C 
ATOM      6  C   UNL     1     -40.481  24.094   1.479  0.00  0.00    +0.154 C 
ATOM      7  C   UNL     1     -38.326  23.009   1.496  0.00  0.00    +0.136 C 
ATOM      8  C   UNL     1     -40.916  26.120   2.832  0.00  0.00    +0.204 C 
ATOM      9  C   UNL     1     -42.302  26.084   2.293  0.00  0.00    +0.077 C 
ATOM     10  C   UNL     1     -39.640  23.073   1.036  0.00  0.00    +0.074 C 
ATOM     11  C   UNL     1     -42.604  25.099   1.434  0.00  0.00    +0.183 C 
ENDROOT
BRANCH   9  12
ATOM     12  C   UNL     1     -43.318  27.072   2.693  0.00  0.00    +0.006 C 
ATOM     13  C   UNL     1     -43.445  28.272   1.989  0.00  0.00    +0.003 C 
ATOM     14  C   UNL     1     -44.157  26.814   3.779  0.00  0.00    +0.003 C 
ATOM     15  C   UNL     1     -44.407  29.207   2.367  0.00  0.00    +0.037 C 
ATOM     16  C   UNL     1     -45.119  27.751   4.158  0.00  0.00    +0.037 C 
ATOM     17  C   UNL     1     -45.244  28.946   3.453  0.00  0.00    +0.134 C 
BRANCH  17  18
ATOM     18  O   UNL     1     -46.182  29.861   3.823  0.00  0.00    -0.506 OA
ATOM     19  H   UNL     1     -46.041  30.398   4.577  0.00  0.00    +0.292 HD
ENDBRANCH  17  18
ENDBRANCH   9  12
BRANCH   5  20
ATOM     20  O   UNL     1     -38.196  25.900   3.724  0.00  0.00    -0.506 OA
ATOM     21  H   UNL     1     -38.679  26.681   3.912  0.00  0.00    +0.292 HD
ENDBRANCH   5  20
BRANCH   7  22
ATOM     22  O   UNL     1     -37.516  22.006   1.054  0.00  0.00    -0.506 OA
ATOM     23  H   UNL     1     -36.853  22.185   0.416  0.00  0.00    +0.292 HD
ENDBRANCH   7  22
BRANCH   3  24
ATOM     24  C   UNL     1     -36.440  23.885   2.887  0.00  0.00    +0.058 C 
BRANCH  24  25
ATOM     25  C   UNL     1     -36.285  22.975   4.080  0.00  0.00    -0.027 C 
ATOM     26  C   UNL     1     -35.608  23.207   5.221  0.00  0.00    -0.019 C 
ATOM     27  C   UNL     1     -34.857  24.471   5.538  0.00  0.00    +0.029 C 
BRANCH  26  28
ATOM     28  C   UNL     1     -35.553  22.147   6.293  0.00  0.00    +0.159 C 
BRANCH  28  29
ATOM     29  O   UNL     1     -35.312  20.879   5.699  0.00  0.00    -0.378 OA
ATOM     30  H   UNL     1     -36.138  20.533   5.326  0.00  0.00    +0.211 HD
ENDBRANCH  28  29
ENDBRANCH  26  28
ENDBRANCH  24  25
ENDBRANCH   3  24
TORSDOF 8
ENDMDL
MODEL 2
REMARK VINA RESULT:      -6.1      1.353      1.513
REMARK  Name = 5378945
REMARK  8 active torsions:
REMARK  status: ('A' for Active; 'I' for Inactive)
REMARK    1  A    between atoms: C_3  and  C_24
REMARK    2  A    between atoms: C_5  and  O_20
REMARK    3  A    between atoms: C_7  and  O_22
REMARK    4  A    between atoms: C_9  and  C_12
REMARK    5  A    between atoms: C_17  and  O_18
REMARK    6  A    between atoms: C_24  and  C_25
REMARK    7  A    between atoms: C_26  and  C_28
REMARK    8  A    between atoms: C_28  and  O_29
REMARK                            x       y       z     vdW  Elec       q    Type
REMARK                         _______ _______ _______ _____ _____    ______ ____
ROOT
ATOM      1  O   UNL     1     -41.411  23.582   1.043  0.00  0.00    -0.450 OA
ATOM      2  O   UNL     1     -39.166  26.683   2.456  0.00  0.00    -0.286 OA
ATOM      3  C   UNL     1     -37.445  22.852   2.056  0.00  0.00    +0.050 C 
ATOM      4  C   UNL     1     -39.288  24.401   1.887  0.00  0.00    +0.107 C 
ATOM      5  C   UNL     1     -37.957  24.140   2.222  0.00  0.00    +0.139 C 
ATOM      6  C   UNL     1     -40.099  23.382   1.389  0.00  0.00    +0.154 C 
ATOM      7  C   UNL     1     -38.257  21.832   1.558  0.00  0.00    +0.136 C 
ATOM      8  C   UNL     1     -39.853  25.754   2.050  0.00  0.00    +0.204 C 
ATOM      9  C   UNL     1     -41.285  25.922   1.682  0.00  0.00    +0.077 C 
ATOM     10  C   UNL     1     -39.584  22.096   1.224  0.00  0.00    +0.074 C 
ATOM     11  C   UNL     1     -41.932  24.841   1.218  0.00  0.00    +0.183 C 
ENDROOT
BRANCH   9  12
ATOM     12  C   UNL     1     -41.982  27.209   1.833  0.00  0.00    +0.006 C 
ATOM     13  C   UNL     1     -42.058  28.096   0.756  0.00  0.00    +0.003 C 
ATOM     14  C   UNL     1     -42.568  27.550   3.054  0.00  0.00    +0.003 C 
ATOM     15  C   UNL     1     -42.719  29.316   0.900  0.00  0.00    +0.037 C 
ATOM     16  C   UNL     1     -43.227  28.771   3.198  0.00  0.00    +0.037 C 
ATOM     17  C   UNL     1     -43.302  29.653   2.121  0.00  0.00    +0.134 C 
BRANCH  17  18
ATOM     18  O   UNL     1     -43.946  30.845   2.261  0.00  0.00    -0.506 OA
ATOM     19  H   UNL     1     -44.379  31.232   1.526  0.00  0.00    +0.292 HD
ENDBRANCH  17  18
ENDBRANCH   9  12
BRANCH   5  20
ATOM     20  O   UNL     1     -37.134  25.111   2.712  0.00  0.00    -0.506 OA
ATOM     21  H   UNL     1     -36.295  24.882   3.060  0.00  0.00    +0.292 HD
ENDBRANCH   5  20
BRANCH   7  22
ATOM     22  O   UNL     1     -37.768  20.571   1.391  0.00  0.00    -0.506 OA
ATOM     23  H   UNL     1     -37.097  20.409   0.756  0.00  0.00    +0.292 HD
ENDBRANCH   7  22
BRANCH   3  24
ATOM     24  C   UNL     1     -36.021  22.559   2.412  0.00  0.00    +0.058 C 
BRANCH  24  25
ATOM     25  C   UNL     1     -35.863  22.062   3.827  0.00  0.00    -0.027 C 
ATOM     26  C   UNL     1     -35.248  22.670   4.859  0.00  0.00    -0.019 C 
ATOM     27  C   UNL     1     -34.583  24.018   4.795  0.00  0.00    +0.029 C 
BRANCH  26  28
ATOM     28  C   UNL     1     -35.177  21.988   6.203  0.00  0.00    +0.159 C 
BRANCH  28  29
ATOM     29  O   UNL     1     -35.340  20.586   6.036  0.00  0.00    -0.378 OA
ATOM     30  H   UNL     1     -35.136  20.343   5.119  0.00  0.00    +0.211 HD
ENDBRANCH  28  29
ENDBRANCH  26  28
ENDBRANCH  24  25
ENDBRANCH   3  24
TORSDOF 8
ENDMDL
MODEL 3
REMARK VINA RESULT:      -6.1      6.346      7.737
REMARK  Name = 5378945
REMARK  8 active torsions:
REMARK  status: ('A' for Active; 'I' for Inactive)
REMARK    1  A    between atoms: C_3  and  C_24
REMARK    2  A    between atoms: C_5  and  O_20
REMARK    3  A    between atoms: C_7  and  O_22
REMARK    4  A    between atoms: C_9  and  C_12
REMARK    5  A    between atoms: C_17  and  O_18
REMARK    6  A    between atoms: C_24  and  C_25
REMARK    7  A    between atoms: C_26  and  C_28
REMARK    8  A    between atoms: C_28  and  O_29
REMARK                            x       y       z     vdW  Elec       q    Type
REMARK                         _______ _______ _______ _____ _____    ______ ____
ROOT
ATOM      1  O   UNL     1     -34.474  25.272   5.713  0.00  0.00    -0.450 OA
ATOM      2  O   UNL     1     -34.845  25.644   1.666  0.00  0.00    -0.286 OA
ATOM      3  C   UNL     1     -35.354  21.872   3.486  0.00  0.00    +0.050 C 
ATOM      4  C   UNL     1     -34.890  24.239   3.556  0.00  0.00    +0.107 C 
ATOM      5  C   UNL     1     -35.188  23.088   2.822  0.00  0.00    +0.139 C 
ATOM      6  C   UNL     1     -34.763  24.174   4.943  0.00  0.00    +0.154 C 
ATOM      7  C   UNL     1     -35.227  21.806   4.874  0.00  0.00    +0.136 C 
ATOM      8  C   UNL     1     -34.712  25.538   2.879  0.00  0.00    +0.204 C 
ATOM      9  C   UNL     1     -34.380  26.698   3.750  0.00  0.00    +0.077 C 
ATOM     10  C   UNL     1     -34.931  22.957   5.604  0.00  0.00    +0.074 C 
ATOM     11  C   UNL     1     -34.290  26.471   5.069  0.00  0.00    +0.183 C 
ENDROOT
BRANCH   9  12
ATOM     12  C   UNL     1     -34.138  28.041   3.198  0.00  0.00    +0.006 C 
ATOM     13  C   UNL     1     -35.187  28.763   2.626  0.00  0.00    +0.003 C 
ATOM     14  C   UNL     1     -32.858  28.597   3.244  0.00  0.00    +0.003 C 
ATOM     15  C   UNL     1     -34.958  30.036   2.103  0.00  0.00    +0.037 C 
ATOM     16  C   UNL     1     -32.628  29.870   2.720  0.00  0.00    +0.037 C 
ATOM     17  C   UNL     1     -33.678  30.588   2.150  0.00  0.00    +0.134 C 
BRANCH  17  18
ATOM     18  O   UNL     1     -33.454  31.830   1.639  0.00  0.00    -0.506 OA
ATOM     19  H   UNL     1     -33.107  32.507   2.187  0.00  0.00    +0.292 HD
ENDBRANCH  17  18
ENDBRANCH   9  12
BRANCH   5  20
ATOM     20  O   UNL     1     -35.320  23.114   1.465  0.00  0.00    -0.506 OA
ATOM     21  H   UNL     1     -35.894  23.735   1.062  0.00  0.00    +0.292 HD
ENDBRANCH   5  20
BRANCH   7  22
ATOM     22  O   UNL     1     -35.388  20.625   5.534  0.00  0.00    -0.506 OA
ATOM     23  H   UNL     1     -36.123  20.502   6.103  0.00  0.00    +0.292 HD
ENDBRANCH   7  22
BRANCH   3  24
ATOM     24  C   UNL     1     -35.672  20.631   2.712  0.00  0.00    +0.058 C 
BRANCH  24  25
ATOM     25  C   UNL     1     -34.438  19.892   2.263  0.00  0.00    -0.027 C 
ATOM     26  C   UNL     1     -34.021  19.654   1.004  0.00  0.00    -0.019 C 
ATOM     27  C   UNL     1     -34.733  20.108  -0.241  0.00  0.00    +0.029 C 
BRANCH  26  28
ATOM     28  C   UNL     1     -32.758  18.865   0.764  0.00  0.00    +0.159 C 
BRANCH  28  29
ATOM     29  O   UNL     1     -32.518  18.000   1.866  0.00  0.00    -0.378 OA
ATOM     30  H   UNL     1     -33.145  17.260   1.839  0.00  0.00    +0.211 HD
ENDBRANCH  28  29
ENDBRANCH  26  28
ENDBRANCH  24  25
ENDBRANCH   3  24
TORSDOF 8
ENDMDL
MODEL 4
REMARK VINA RESULT:      -6.1      5.763      9.837
REMARK  Name = 5378945
REMARK  8 active torsions:
REMARK  status: ('A' for Active; 'I' for Inactive)
REMARK    1  A    between atoms: C_3  and  C_24
REMARK    2  A    between atoms: C_5  and  O_20
REMARK    3  A    between atoms: C_7  and  O_22
REMARK    4  A    between atoms: C_9  and  C_12
REMARK    5  A    between atoms: C_17  and  O_18
REMARK    6  A    between atoms: C_24  and  C_25
REMARK    7  A    between atoms: C_26  and  C_28
REMARK    8  A    between atoms: C_28  and  O_29
REMARK                            x       y       z     vdW  Elec       q    Type
REMARK                         _______ _______ _______ _____ _____    ______ ____
ROOT
ATOM      1  O   UNL     1     -33.289  26.843   6.807  0.00  0.00    -0.450 OA
ATOM      2  O   UNL     1     -32.334  28.151   3.062  0.00  0.00    -0.286 OA
ATOM      3  C   UNL     1     -35.222  25.116   3.556  0.00  0.00    +0.050 C 
ATOM      4  C   UNL     1     -33.609  26.698   4.406  0.00  0.00    +0.107 C 
ATOM      5  C   UNL     1     -34.269  26.109   3.324  0.00  0.00    +0.139 C 
ATOM      6  C   UNL     1     -33.903  26.298   5.709  0.00  0.00    +0.154 C 
ATOM      7  C   UNL     1     -35.517  24.716   4.860  0.00  0.00    +0.136 C 
ATOM      8  C   UNL     1     -32.599  27.750   4.188  0.00  0.00    +0.204 C 
ATOM      9  C   UNL     1     -31.943  28.300   5.406  0.00  0.00    +0.077 C 
ATOM     10  C   UNL     1     -34.858  25.307   5.938  0.00  0.00    +0.074 C 
ATOM     11  C   UNL     1     -32.335  27.808   6.591  0.00  0.00    +0.183 C 
ENDROOT
BRANCH   9  12
ATOM     12  C   UNL     1     -30.891  29.326   5.327  0.00  0.00    +0.006 C 
ATOM     13  C   UNL     1     -31.199  30.613   4.880  0.00  0.00    +0.003 C 
ATOM     14  C   UNL     1     -29.581  29.016   5.697  0.00  0.00    +0.003 C 
ATOM     15  C   UNL     1     -30.202  31.586   4.806  0.00  0.00    +0.037 C 
ATOM     16  C   UNL     1     -28.583  29.989   5.621  0.00  0.00    +0.037 C 
ATOM     17  C   UNL     1     -28.894  31.273   5.176  0.00  0.00    +0.134 C 
BRANCH  17  18
ATOM     18  O   UNL     1     -27.921  32.222   5.102  0.00  0.00    -0.506 OA
ATOM     19  H   UNL     1     -27.532  32.431   4.275  0.00  0.00    +0.292 HD
ENDBRANCH  17  18
ENDBRANCH   9  12
BRANCH   5  20
ATOM     20  O   UNL     1     -34.007  26.474   2.036  0.00  0.00    -0.506 OA
ATOM     21  H   UNL     1     -34.323  25.949   1.327  0.00  0.00    +0.292 HD
ENDBRANCH   5  20
BRANCH   7  22
ATOM     22  O   UNL     1     -36.446  23.749   5.100  0.00  0.00    -0.506 OA
ATOM     23  H   UNL     1     -36.918  23.743   5.910  0.00  0.00    +0.292 HD
ENDBRANCH   7  22
BRANCH   3  24
ATOM     24  C   UNL     1     -35.935  24.476   2.406  0.00  0.00    +0.058 C 
BRANCH  24  25
ATOM     25  C   UNL     1     -35.579  23.021   2.236  0.00  0.00    -0.027 C 
ATOM     26  C   UNL     1     -36.411  21.966   2.144  0.00  0.00    -0.019 C 
ATOM     27  C   UNL     1     -37.912  22.044   2.186  0.00  0.00    +0.029 C 
BRANCH  26  28
ATOM     28  C   UNL     1     -35.849  20.573   2.001  0.00  0.00    +0.159 C 
BRANCH  28  29
ATOM     29  O   UNL     1     -36.773  19.629   2.526  0.00  0.00    -0.378 OA
ATOM     30  H   UNL     1     -36.421  18.733   2.410  0.00  0.00    +0.211 HD
ENDBRANCH  28  29
ENDBRANCH  26  28
ENDBRANCH  24  25
ENDBRANCH   3  24
TORSDOF 8
ENDMDL
MODEL 5
REMARK VINA RESULT:      -6.1      5.586      9.703
REMARK  Name = 5378945
REMARK  8 active torsions:
REMARK  status: ('A' for Active; 'I' for Inactive)
REMARK    1  A    between atoms: C_3  and  C_24
REMARK    2  A    between atoms: C_5  and  O_20
REMARK    3  A    between atoms: C_7  and  O_22
REMARK    4  A    between atoms: C_9  and  C_12
REMARK    5  A    between atoms: C_17  and  O_18
REMARK    6  A    between atoms: C_24  and  C_25
REMARK    7  A    between atoms: C_26  and  C_28
REMARK    8  A    between atoms: C_28  and  O_29
REMARK                            x       y       z     vdW  Elec       q    Type
REMARK                         _______ _______ _______ _____ _____    ______ ____
ROOT
ATOM      1  O   UNL     1     -33.228  28.313   4.149  0.00  0.00    -0.450 OA
ATOM      2  O   UNL     1     -36.449  26.617   2.306  0.00  0.00    -0.286 OA
ATOM      3  C   UNL     1     -35.553  30.687   1.649  0.00  0.00    +0.050 C 
ATOM      4  C   UNL     1     -35.139  28.539   2.670  0.00  0.00    +0.107 C 
ATOM      5  C   UNL     1     -35.910  29.349   1.832  0.00  0.00    +0.139 C 
ATOM      6  C   UNL     1     -34.020  29.063   3.318  0.00  0.00    +0.154 C 
ATOM      7  C   UNL     1     -34.434  31.210   2.297  0.00  0.00    +0.136 C 
ATOM      8  C   UNL     1     -35.492  27.123   2.879  0.00  0.00    +0.204 C 
ATOM      9  C   UNL     1     -34.618  26.352   3.804  0.00  0.00    +0.077 C 
ATOM     10  C   UNL     1     -33.667  30.399   3.132  0.00  0.00    +0.074 C 
ATOM     11  C   UNL     1     -33.579  27.001   4.352  0.00  0.00    +0.183 C 
ENDROOT
BRANCH   9  12
ATOM     12  C   UNL     1     -34.881  24.941   4.130  0.00  0.00    +0.006 C 
ATOM     13  C   UNL     1     -34.969  23.990   3.110  0.00  0.00    +0.003 C 
ATOM     14  C   UNL     1     -35.047  24.548   5.460  0.00  0.00    +0.003 C 
ATOM     15  C   UNL     1     -35.218  22.653   3.419  0.00  0.00    +0.037 C 
ATOM     16  C   UNL     1     -35.298  23.211   5.768  0.00  0.00    +0.037 C 
ATOM     17  C   UNL     1     -35.383  22.264   4.748  0.00  0.00    +0.134 C 
BRANCH  17  18
ATOM     18  O   UNL     1     -35.628  20.959   5.050  0.00  0.00    -0.506 OA
ATOM     19  H   UNL     1     -36.249  20.741   5.716  0.00  0.00    +0.292 HD
ENDBRANCH  17  18
ENDBRANCH   9  12
BRANCH   5  20
ATOM     20  O   UNL     1     -37.010  28.873   1.182  0.00  0.00    -0.506 OA
ATOM     21  H   UNL     1     -36.910  28.369   0.398  0.00  0.00    +0.292 HD
ENDBRANCH   5  20
BRANCH   7  22
ATOM     22  O   UNL     1     -34.075  32.514   2.125  0.00  0.00    -0.506 OA
ATOM     23  H   UNL     1     -34.542  33.191   2.573  0.00  0.00    +0.292 HD
ENDBRANCH   7  22
BRANCH   3  24
ATOM     24  C   UNL     1     -36.370  31.565   0.754  0.00  0.00    +0.058 C 
BRANCH  24  25
ATOM     25  C   UNL     1     -37.397  32.371   1.508  0.00  0.00    -0.027 C 
ATOM     26  C   UNL     1     -37.617  33.699   1.454  0.00  0.00    -0.019 C 
ATOM     27  C   UNL     1     -36.856  34.665   0.589  0.00  0.00    +0.029 C 
BRANCH  26  28
ATOM     28  C   UNL     1     -38.687  34.322   2.316  0.00  0.00    +0.159 C 
BRANCH  28  29
ATOM     29  O   UNL     1     -39.962  33.835   1.921  0.00  0.00    -0.378 OA
ATOM     30  H   UNL     1     -40.608  34.012   2.622  0.00  0.00    +0.211 HD
ENDBRANCH  28  29
ENDBRANCH  26  28
ENDBRANCH  24  25
ENDBRANCH   3  24
TORSDOF 8
ENDMDL
MODEL 6
REMARK VINA RESULT:      -6.0      5.074      9.581
REMARK  Name = 5378945
REMARK  8 active torsions:
REMARK  status: ('A' for Active; 'I' for Inactive)
REMARK    1  A    between atoms: C_3  and  C_24
REMARK    2  A    between atoms: C_5  and  O_20
REMARK    3  A    between atoms: C_7  and  O_22
REMARK    4  A    between atoms: C_9  and  C_12
REMARK    5  A    between atoms: C_17  and  O_18
REMARK    6  A    between atoms: C_24  and  C_25
REMARK    7  A    between atoms: C_26  and  C_28
REMARK    8  A    between atoms: C_28  and  O_29
REMARK                            x       y       z     vdW  Elec       q    Type
REMARK                         _______ _______ _______ _____ _____    ______ ____
ROOT
ATOM      1  O   UNL     1     -35.619  22.241  -0.508  0.00  0.00    -0.450 OA
ATOM      2  O   UNL     1     -35.030  20.248   3.004  0.00  0.00    -0.286 OA
ATOM      3  C   UNL     1     -36.769  24.091   3.035  0.00  0.00    +0.050 C 
ATOM      4  C   UNL     1     -35.796  22.188   1.913  0.00  0.00    +0.107 C 
ATOM      5  C   UNL     1     -36.189  22.822   3.094  0.00  0.00    +0.139 C 
ATOM      6  C   UNL     1     -35.984  22.818   0.682  0.00  0.00    +0.154 C 
ATOM      7  C   UNL     1     -36.956  24.721   1.804  0.00  0.00    +0.136 C 
ATOM      8  C   UNL     1     -35.184  20.847   1.947  0.00  0.00    +0.204 C 
ATOM      9  C   UNL     1     -34.785  20.268   0.636  0.00  0.00    +0.077 C 
ATOM     10  C   UNL     1     -36.564  24.085   0.627  0.00  0.00    +0.074 C 
ATOM     11  C   UNL     1     -35.031  21.001  -0.461  0.00  0.00    +0.183 C 
ENDROOT
BRANCH   9  12
ATOM     12  C   UNL     1     -34.129  18.954   0.532  0.00  0.00    +0.006 C 
ATOM     13  C   UNL     1     -34.812  17.871  -0.025  0.00  0.00    +0.003 C 
ATOM     14  C   UNL     1     -32.821  18.786   0.993  0.00  0.00    +0.003 C 
ATOM     15  C   UNL     1     -34.190  16.627  -0.124  0.00  0.00    +0.037 C 
ATOM     16  C   UNL     1     -32.200  17.541   0.896  0.00  0.00    +0.037 C 
ATOM     17  C   UNL     1     -32.884  16.462   0.338  0.00  0.00    +0.134 C 
BRANCH  17  18
ATOM     18  O   UNL     1     -32.277  15.247   0.243  0.00  0.00    -0.506 OA
ATOM     19  H   UNL     1     -32.476  14.575   0.865  0.00  0.00    +0.292 HD
ENDBRANCH  17  18
ENDBRANCH   9  12
BRANCH   5  20
ATOM     20  O   UNL     1     -36.022  22.238   4.315  0.00  0.00    -0.506 OA
ATOM     21  H   UNL     1     -35.621  21.393   4.379  0.00  0.00    +0.292 HD
ENDBRANCH   5  20
BRANCH   7  22
ATOM     22  O   UNL     1     -37.522  25.958   1.733  0.00  0.00    -0.506 OA
ATOM     23  H   UNL     1     -36.993  26.705   1.528  0.00  0.00    +0.292 HD
ENDBRANCH   7  22
BRANCH   3  24
ATOM     24  C   UNL     1     -37.194  24.781   4.293  0.00  0.00    +0.058 C 
BRANCH  24  25
ATOM     25  C   UNL     1     -36.033  25.110   5.198  0.00  0.00    -0.027 C 
ATOM     26  C   UNL     1     -35.081  26.046   5.024  0.00  0.00    -0.019 C 
ATOM     27  C   UNL     1     -34.997  26.985   3.853  0.00  0.00    +0.029 C 
BRANCH  26  28
ATOM     28  C   UNL     1     -33.980  26.200   6.044  0.00  0.00    +0.159 C 
BRANCH  28  29
ATOM     29  O   UNL     1     -33.198  27.345   5.733  0.00  0.00    -0.378 OA
ATOM     30  H   UNL     1     -32.329  27.065   5.404  0.00  0.00    +0.211 HD
ENDBRANCH  28  29
ENDBRANCH  26  28
ENDBRANCH  24  25
ENDBRANCH   3  24
TORSDOF 8
ENDMDL
MODEL 7
REMARK VINA RESULT:      -6.0      5.733      9.351
REMARK  Name = 5378945
REMARK  8 active torsions:
REMARK  status: ('A' for Active; 'I' for Inactive)
REMARK    1  A    between atoms: C_3  and  C_24
REMARK    2  A    between atoms: C_5  and  O_20
REMARK    3  A    between atoms: C_7  and  O_22
REMARK    4  A    between atoms: C_9  and  C_12
REMARK    5  A    between atoms: C_17  and  O_18
REMARK    6  A    between atoms: C_24  and  C_25
REMARK    7  A    between atoms: C_26  and  C_28
REMARK    8  A    between atoms: C_28  and  O_29
REMARK                            x       y       z     vdW  Elec       q    Type
REMARK                         _______ _______ _______ _____ _____    ______ ____
ROOT
ATOM      1  O   UNL     1     -35.808  22.107   4.404  0.00  0.00    -0.450 OA
ATOM      2  O   UNL     1     -34.750  22.754   0.516  0.00  0.00    -0.286 OA
ATOM      3  C   UNL     1     -35.752  26.018   2.993  0.00  0.00    +0.050 C 
ATOM      4  C   UNL     1     -35.435  23.662   2.578  0.00  0.00    +0.107 C 
ATOM      5  C   UNL     1     -35.419  24.982   2.119  0.00  0.00    +0.139 C 
ATOM      6  C   UNL     1     -35.778  23.382   3.900  0.00  0.00    +0.154 C 
ATOM      7  C   UNL     1     -36.095  25.739   4.317  0.00  0.00    +0.136 C 
ATOM      8  C   UNL     1     -35.086  22.549   1.675  0.00  0.00    +0.204 C 
ATOM      9  C   UNL     1     -35.151  21.180   2.257  0.00  0.00    +0.077 C 
ATOM     10  C   UNL     1     -36.109  24.421   4.771  0.00  0.00    +0.074 C 
ATOM     11  C   UNL     1     -35.501  21.077   3.548  0.00  0.00    +0.183 C 
ENDROOT
BRANCH   9  12
ATOM     12  C   UNL     1     -34.865  19.979   1.455  0.00  0.00    +0.006 C 
ATOM     13  C   UNL     1     -35.824  19.482   0.570  0.00  0.00    +0.003 C 
ATOM     14  C   UNL     1     -33.634  19.331   1.579  0.00  0.00    +0.003 C 
ATOM     15  C   UNL     1     -35.553  18.345  -0.189  0.00  0.00    +0.037 C 
ATOM     16  C   UNL     1     -33.363  18.192   0.821  0.00  0.00    +0.037 C 
ATOM     17  C   UNL     1     -34.322  17.699  -0.063  0.00  0.00    +0.134 C 
BRANCH  17  18
ATOM     18  O   UNL     1     -34.058  16.588  -0.804  0.00  0.00    -0.506 OA
ATOM     19  H   UNL     1     -33.171  16.345  -0.983  0.00  0.00    +0.292 HD
ENDBRANCH  17  18
ENDBRANCH   9  12
BRANCH   5  20
ATOM     20  O   UNL     1     -35.089  25.293   0.833  0.00  0.00    -0.506 OA
ATOM     21  H   UNL     1     -34.624  26.086   0.648  0.00  0.00    +0.292 HD
ENDBRANCH   5  20
BRANCH   7  22
ATOM     22  O   UNL     1     -36.420  26.742   5.180  0.00  0.00    -0.506 OA
ATOM     23  H   UNL     1     -35.867  27.496   5.252  0.00  0.00    +0.292 HD
ENDBRANCH   7  22
BRANCH   3  24
ATOM     24  C   UNL     1     -35.739  27.437   2.514  0.00  0.00    +0.058 C 
BRANCH  24  25
ATOM     25  C   UNL     1     -34.484  28.174   2.908  0.00  0.00    -0.027 C 
ATOM     26  C   UNL     1     -34.299  29.504   3.015  0.00  0.00    -0.019 C 
ATOM     27  C   UNL     1     -35.354  30.546   2.763  0.00  0.00    +0.029 C 
BRANCH  26  28
ATOM     28  C   UNL     1     -32.946  30.048   3.402  0.00  0.00    +0.159 C 
BRANCH  28  29
ATOM     29  O   UNL     1     -32.921  30.318   4.797  0.00  0.00    -0.378 OA
ATOM     30  H   UNL     1     -33.822  30.497   5.108  0.00  0.00    +0.211 HD
ENDBRANCH  28  29
ENDBRANCH  26  28
ENDBRANCH  24  25
ENDBRANCH   3  24
TORSDOF 8
ENDMDL
MODEL 8
REMARK VINA RESULT:      -5.9      4.912      9.351
REMARK  Name = 5378945
REMARK  8 active torsions:
REMARK  status: ('A' for Active; 'I' for Inactive)
REMARK    1  A    between atoms: C_3  and  C_24
REMARK    2  A    between atoms: C_5  and  O_20
REMARK    3  A    between atoms: C_7  and  O_22
REMARK    4  A    between atoms: C_9  and  C_12
REMARK    5  A    between atoms: C_17  and  O_18
REMARK    6  A    between atoms: C_24  and  C_25
REMARK    7  A    between atoms: C_26  and  C_28
REMARK    8  A    between atoms: C_28  and  O_29
REMARK                            x       y       z     vdW  Elec       q    Type
REMARK                         _______ _______ _______ _____ _____    ______ ____
ROOT
ATOM      1  O   UNL     1     -34.076  28.768   2.597  0.00  0.00    -0.450 OA
ATOM      2  O   UNL     1     -33.048  26.354   5.722  0.00  0.00    -0.286 OA
ATOM      3  C   UNL     1     -36.532  25.533   3.489  0.00  0.00    +0.050 C 
ATOM      4  C   UNL     1     -34.565  26.839   3.987  0.00  0.00    +0.107 C 
ATOM      5  C   UNL     1     -35.399  25.755   4.274  0.00  0.00    +0.139 C 
ATOM      6  C   UNL     1     -34.861  27.691   2.924  0.00  0.00    +0.154 C 
ATOM      7  C   UNL     1     -36.829  26.386   2.425  0.00  0.00    +0.136 C 
ATOM      8  C   UNL     1     -33.360  27.095   4.799  0.00  0.00    +0.204 C 
ATOM      9  C   UNL     1     -32.549  28.285   4.422  0.00  0.00    +0.077 C 
ATOM     10  C   UNL     1     -35.994  27.465   2.141  0.00  0.00    +0.074 C 
ATOM     11  C   UNL     1     -32.968  29.008   3.372  0.00  0.00    +0.183 C 
ENDROOT
BRANCH   9  12
ATOM     12  C   UNL     1     -31.344  28.675   5.173  0.00  0.00    +0.006 C 
ATOM     13  C   UNL     1     -31.464  29.255   6.438  0.00  0.00    +0.003 C 
ATOM     14  C   UNL     1     -30.078  28.469   4.622  0.00  0.00    +0.003 C 
ATOM     15  C   UNL     1     -30.323  29.625   7.149  0.00  0.00    +0.037 C 
ATOM     16  C   UNL     1     -28.937  28.840   5.333  0.00  0.00    +0.037 C 
ATOM     17  C   UNL     1     -29.059  29.418   6.596  0.00  0.00    +0.134 C 
BRANCH  17  18
ATOM     18  O   UNL     1     -27.946  29.780   7.290  0.00  0.00    -0.506 OA
ATOM     19  H   UNL     1     -27.817  30.676   7.534  0.00  0.00    +0.292 HD
ENDBRANCH  17  18
ENDBRANCH   9  12
BRANCH   5  20
ATOM     20  O   UNL     1     -35.142  24.902   5.305  0.00  0.00    -0.506 OA
ATOM     21  H   UNL     1     -35.850  24.492   5.762  0.00  0.00    +0.292 HD
ENDBRANCH   5  20
BRANCH   7  22
ATOM     22  O   UNL     1     -37.931  26.178   1.652  0.00  0.00    -0.506 OA
ATOM     23  H   UNL     1     -38.144  25.313   1.361  0.00  0.00    +0.292 HD
ENDBRANCH   7  22
BRANCH   3  24
ATOM     24  C   UNL     1     -37.435  24.376   3.786  0.00  0.00    +0.058 C 
BRANCH  24  25
ATOM     25  C   UNL     1     -37.170  23.187   2.898  0.00  0.00    -0.027 C 
ATOM     26  C   UNL     1     -36.368  22.132   3.137  0.00  0.00    -0.019 C 
ATOM     27  C   UNL     1     -35.562  21.926   4.391  0.00  0.00    +0.029 C 
BRANCH  26  28
ATOM     28  C   UNL     1     -36.218  21.048   2.099  0.00  0.00    +0.159 C 
BRANCH  28  29
ATOM     29  O   UNL     1     -36.688  19.814   2.625  0.00  0.00    -0.378 OA
ATOM     30  H   UNL     1     -36.132  19.090   2.297  0.00  0.00    +0.211 HD
ENDBRANCH  28  29
ENDBRANCH  26  28
ENDBRANCH  24  25
ENDBRANCH   3  24
TORSDOF 8
ENDMDL
MODEL 9
REMARK VINA RESULT:      -5.9      5.400     10.851
REMARK  Name = 5378945
REMARK  8 active torsions:
REMARK  status: ('A' for Active; 'I' for Inactive)
REMARK    1  A    between atoms: C_3  and  C_24
REMARK    2  A    between atoms: C_5  and  O_20
REMARK    3  A    between atoms: C_7  and  O_22
REMARK    4  A    between atoms: C_9  and  C_12
REMARK    5  A    between atoms: C_17  and  O_18
REMARK    6  A    between atoms: C_24  and  C_25
REMARK    7  A    between atoms: C_26  and  C_28
REMARK    8  A    between atoms: C_28  and  O_29
REMARK                            x       y       z     vdW  Elec       q    Type
REMARK                         _______ _______ _______ _____ _____    ______ ____
ROOT
ATOM      1  O   UNL     1     -33.680  21.667  -0.970  0.00  0.00    -0.450 OA
ATOM      2  O   UNL     1     -33.971  19.171   2.245  0.00  0.00    -0.286 OA
ATOM      3  C   UNL     1     -36.268  22.707   2.114  0.00  0.00    +0.050 C 
ATOM      4  C   UNL     1     -34.654  21.165   1.196  0.00  0.00    +0.107 C 
ATOM      5  C   UNL     1     -35.529  21.528   2.224  0.00  0.00    +0.139 C 
ATOM      6  C   UNL     1     -34.522  21.975   0.068  0.00  0.00    +0.154 C 
ATOM      7  C   UNL     1     -36.137  23.516   0.985  0.00  0.00    +0.136 C 
ATOM      8  C   UNL     1     -33.862  19.924   1.286  0.00  0.00    +0.204 C 
ATOM      9  C   UNL     1     -32.947  19.639   0.147  0.00  0.00    +0.077 C 
ATOM     10  C   UNL     1     -35.264  23.151  -0.038  0.00  0.00    +0.074 C 
ATOM     11  C   UNL     1     -32.933  20.519  -0.866  0.00  0.00    +0.183 C 
ENDROOT
BRANCH   9  12
ATOM     12  C   UNL     1     -32.073  18.454   0.128  0.00  0.00    +0.006 C 
ATOM     13  C   UNL     1     -32.589  17.208  -0.235  0.00  0.00    +0.003 C 
ATOM     14  C   UNL     1     -30.726  18.572   0.476  0.00  0.00    +0.003 C 
ATOM     15  C   UNL     1     -31.761  16.086  -0.253  0.00  0.00    +0.037 C 
ATOM     16  C   UNL     1     -29.898  17.450   0.460  0.00  0.00    +0.037 C 
ATOM     17  C   UNL     1     -30.415  16.208   0.095  0.00  0.00    +0.134 C 
BRANCH  17  18
ATOM     18  O   UNL     1     -29.607  15.112   0.079  0.00  0.00    -0.506 OA
ATOM     19  H   UNL     1     -28.967  14.992   0.752  0.00  0.00    +0.292 HD
ENDBRANCH  17  18
ENDBRANCH   9  12
BRANCH   5  20
ATOM     20  O   UNL     1     -35.683  20.762   3.341  0.00  0.00    -0.506 OA
ATOM     21  H   UNL     1     -36.543  20.543   3.644  0.00  0.00    +0.292 HD
ENDBRANCH   5  20
BRANCH   7  22
ATOM     22  O   UNL     1     -36.854  24.669   0.866  0.00  0.00    -0.506 OA
ATOM     23  H   UNL     1     -37.186  24.930   0.030  0.00  0.00    +0.292 HD
ENDBRANCH   7  22
BRANCH   3  24
ATOM     24  C   UNL     1     -37.209  23.107   3.208  0.00  0.00    +0.058 C 
BRANCH  24  25
ATOM     25  C   UNL     1     -36.732  24.315   3.974  0.00  0.00    -0.027 C 
ATOM     26  C   UNL     1     -35.956  24.349   5.074  0.00  0.00    -0.019 C 
ATOM     27  C   UNL     1     -35.387  23.142   5.768  0.00  0.00    +0.029 C 
BRANCH  26  28
ATOM     28  C   UNL     1     -35.608  25.672   5.711  0.00  0.00    +0.159 C 
BRANCH  28  29
ATOM     29  O   UNL     1     -36.570  26.649   5.338  0.00  0.00    -0.378 OA
ATOM     30  H   UNL     1     -36.186  27.534   5.430  0.00  0.00    +0.211 HD
ENDBRANCH  28  29
ENDBRANCH  26  28
ENDBRANCH  24  25
ENDBRANCH   3  24
TORSDOF 8
ENDMDL
