MODEL 1
REMARK VINA RESULT:      -6.0      0.000      0.000
REMARK  Name = 5562578
REMARK  5 active torsions:
REMARK  status: ('A' for Active; 'I' for Inactive)
REMARK    1  A    between atoms: N_1  and  C_2
REMARK    2  A    between atoms: N_1  and  N_5
REMARK    3  A    between atoms: C_11  and  C_12
REMARK    4  A    between atoms: C_11  and  C_14
REMARK    5  A    between atoms: C_16  and  N_20
REMARK                            x       y       z     vdW  Elec       q    Type
REMARK                         _______ _______ _______ _____ _____    ______ ____
ROOT
ATOM      1  C   UNL     1     -35.591  22.256   3.255  0.00  0.00    +0.100 C 
ATOM      2  C   UNL     1     -35.509  20.810   2.950  0.00  0.00    +0.001 C 
ENDROOT
BRANCH   1   3
ATOM      3  N   UNL     1     -35.805  22.685   4.455  0.00  0.00    -0.142 NA
BRANCH   3   6
ATOM      4  O   UNL     1     -34.121  27.045   5.130  0.00  0.00    -0.273 OA
ATOM      5  O   UNL     1     -37.899  24.630   4.149  0.00  0.00    -0.251 OA
ATOM      6  N   UNL     1     -35.673  24.015   4.579  0.00  0.00    -0.165 N 
ATOM      7  N   UNL     1     -36.210  26.160   4.620  0.00  0.00    -0.237 N 
ATOM      8  C   UNL     1     -34.425  24.648   4.891  0.00  0.00    +0.203 C 
ATOM      9  C   UNL     1     -34.865  26.100   4.903  0.00  0.00    +0.252 C 
ATOM     10  C   UNL     1     -36.736  24.899   4.418  0.00  0.00    +0.327 C 
ATOM     11  H   UNL     1     -36.730  26.994   4.571  0.00  0.00    +0.159 HD
ENDBRANCH   3   6
ENDBRANCH   1   3
BRANCH   2  12
ATOM     12  C   UNL     1     -35.285  20.437   1.683  0.00  0.00    +0.092 C 
BRANCH  12  14
ATOM     13  O   UNL     1     -33.486  18.824   1.455  0.00  0.00    -0.437 OA
ATOM     14  C   UNL     1     -33.999  20.041   1.186  0.00  0.00    +0.129 C 
ATOM     15  C   UNL     1     -33.159  20.790   0.417  0.00  0.00    +0.038 C 
ATOM     16  C   UNL     1     -32.276  18.786   0.840  0.00  0.00    +0.289 C 
ATOM     17  C   UNL     1     -32.027  19.971   0.188  0.00  0.00    +0.066 C 
BRANCH  16  20
ATOM     18  O   UNL     1     -30.413  17.612   1.525  0.00  0.00    -0.123 OA
ATOM     19  O   UNL     1     -32.063  16.502   0.597  0.00  0.00    -0.123 OA
ATOM     20  N   UNL     1     -31.561  17.595   0.992  0.00  0.00    +0.093 N 
ENDBRANCH  16  20
ENDBRANCH  12  14
ENDBRANCH   2  12
TORSDOF 5
ENDMDL
MODEL 2
REMARK VINA RESULT:      -6.0      1.250      2.082
REMARK  Name = 5562578
REMARK  5 active torsions:
REMARK  status: ('A' for Active; 'I' for Inactive)
REMARK    1  A    between atoms: N_1  and  C_2
REMARK    2  A    between atoms: N_1  and  N_5
REMARK    3  A    between atoms: C_11  and  C_12
REMARK    4  A    between atoms: C_11  and  C_14
REMARK    5  A    between atoms: C_16  and  N_20
REMARK                            x       y       z     vdW  Elec       q    Type
REMARK                         _______ _______ _______ _____ _____    ______ ____
ROOT
ATOM      1  C   UNL     1     -36.423  22.133   3.063  0.00  0.00    +0.100 C 
ATOM      2  C   UNL     1     -35.426  21.041   3.022  0.00  0.00    +0.001 C 
ENDROOT
BRANCH   1   3
ATOM      3  N   UNL     1     -36.595  22.857   4.120  0.00  0.00    -0.142 NA
BRANCH   3   6
ATOM      4  O   UNL     1     -38.733  26.621   2.233  0.00  0.00    -0.273 OA
ATOM      5  O   UNL     1     -35.918  25.236   5.583  0.00  0.00    -0.251 OA
ATOM      6  N   UNL     1     -37.029  24.098   3.854  0.00  0.00    -0.165 N 
ATOM      7  N   UNL     1     -37.298  26.286   4.031  0.00  0.00    -0.237 N 
ATOM      8  C   UNL     1     -37.915  24.399   2.767  0.00  0.00    +0.203 C 
ATOM      9  C   UNL     1     -38.053  25.898   2.949  0.00  0.00    +0.252 C 
ATOM     10  C   UNL     1     -36.657  25.208   4.608  0.00  0.00    +0.327 C 
ATOM     11  H   UNL     1     -37.224  27.214   4.352  0.00  0.00    +0.159 HD
ENDBRANCH   3   6
ENDBRANCH   1   3
BRANCH   2  12
ATOM     12  C   UNL     1     -35.304  20.330   1.893  0.00  0.00    +0.092 C 
BRANCH  12  14
ATOM     13  O   UNL     1     -33.486  18.757   1.559  0.00  0.00    -0.437 OA
ATOM     14  C   UNL     1     -34.042  19.962   1.319  0.00  0.00    +0.129 C 
ATOM     15  C   UNL     1     -33.267  20.726   0.498  0.00  0.00    +0.038 C 
ATOM     16  C   UNL     1     -32.315  18.744   0.871  0.00  0.00    +0.289 C 
ATOM     17  C   UNL     1     -32.134  19.932   0.203  0.00  0.00    +0.066 C 
BRANCH  16  20
ATOM     18  O   UNL     1     -32.034  16.479   0.543  0.00  0.00    -0.123 OA
ATOM     19  O   UNL     1     -30.419  17.601   1.518  0.00  0.00    -0.123 OA
ATOM     20  N   UNL     1     -31.565  17.570   0.981  0.00  0.00    +0.093 N 
ENDBRANCH  16  20
ENDBRANCH  12  14
ENDBRANCH   2  12
TORSDOF 5
ENDMDL
MODEL 3
REMARK VINA RESULT:      -5.9      4.176      8.296
REMARK  Name = 5562578
REMARK  5 active torsions:
REMARK  status: ('A' for Active; 'I' for Inactive)
REMARK    1  A    between atoms: N_1  and  C_2
REMARK    2  A    between atoms: N_1  and  N_5
REMARK    3  A    between atoms: C_11  and  C_12
REMARK    4  A    between atoms: C_11  and  C_14
REMARK    5  A    between atoms: C_16  and  N_20
REMARK                            x       y       z     vdW  Elec       q    Type
REMARK                         _______ _______ _______ _____ _____    ______ ____
ROOT
ATOM      1  C   UNL     1     -35.090  26.230   4.990  0.00  0.00    +0.100 C 
ATOM      2  C   UNL     1     -33.747  26.571   5.510  0.00  0.00    +0.001 C 
ENDROOT
BRANCH   1   3
ATOM      3  N   UNL     1     -35.905  25.480   5.656  0.00  0.00    -0.142 NA
BRANCH   3   6
ATOM      4  O   UNL     1     -35.028  20.891   4.973  0.00  0.00    -0.273 OA
ATOM      5  O   UNL     1     -37.724  24.388   3.718  0.00  0.00    -0.251 OA
ATOM      6  N   UNL     1     -35.934  24.209   5.229  0.00  0.00    -0.165 N 
ATOM      7  N   UNL     1     -36.563  22.409   4.108  0.00  0.00    -0.237 N 
ATOM      8  C   UNL     1     -35.028  23.205   5.706  0.00  0.00    +0.203 C 
ATOM      9  C   UNL     1     -35.513  22.012   4.903  0.00  0.00    +0.252 C 
ATOM     10  C   UNL     1     -36.847  23.749   4.283  0.00  0.00    +0.327 C 
ATOM     11  H   UNL     1     -37.049  21.813   3.493  0.00  0.00    +0.159 HD
ENDBRANCH   3   6
ENDBRANCH   1   3
BRANCH   2  12
ATOM     12  C   UNL     1     -32.954  27.351   4.765  0.00  0.00    +0.092 C 
BRANCH  12  14
ATOM     13  O   UNL     1     -30.885  27.772   5.962  0.00  0.00    -0.437 OA
ATOM     14  C   UNL     1     -31.970  28.240   5.313  0.00  0.00    +0.129 C 
ATOM     15  C   UNL     1     -31.986  29.602   5.263  0.00  0.00    +0.038 C 
ATOM     16  C   UNL     1     -30.178  28.867   6.343  0.00  0.00    +0.289 C 
ATOM     17  C   UNL     1     -30.813  30.018   5.937  0.00  0.00    +0.066 C 
BRANCH  16  20
ATOM     18  O   UNL     1     -28.458  27.465   6.969  0.00  0.00    -0.123 OA
ATOM     19  O   UNL     1     -28.467  29.518   7.746  0.00  0.00    -0.123 OA
ATOM     20  N   UNL     1     -28.997  28.608   7.042  0.00  0.00    +0.093 N 
ENDBRANCH  16  20
ENDBRANCH  12  14
ENDBRANCH   2  12
TORSDOF 5
ENDMDL
MODEL 4
REMARK VINA RESULT:      -5.9      3.653      5.864
REMARK  Name = 5562578
REMARK  5 active torsions:
REMARK  status: ('A' for Active; 'I' for Inactive)
REMARK    1  A    between atoms: N_1  and  C_2
REMARK    2  A    between atoms: N_1  and  N_5
REMARK    3  A    between atoms: C_11  and  C_12
REMARK    4  A    between atoms: C_11  and  C_14
REMARK    5  A    between atoms: C_16  and  N_20
REMARK                            x       y       z     vdW  Elec       q    Type
REMARK                         _______ _______ _______ _____ _____    ______ ____
ROOT
ATOM      1  C   UNL     1     -33.672  26.457   5.401  0.00  0.00    +0.100 C 
ATOM      2  C   UNL     1     -34.858  25.813   6.007  0.00  0.00    +0.001 C 
ENDROOT
BRANCH   1   3
ATOM      3  N   UNL     1     -32.863  27.184   6.100  0.00  0.00    -0.142 NA
BRANCH   3   6
ATOM      4  O   UNL     1     -31.052  29.809   2.616  0.00  0.00    -0.273 OA
ATOM      5  O   UNL     1     -31.674  29.577   7.158  0.00  0.00    -0.251 OA
ATOM      6  N   UNL     1     -32.260  28.149   5.388  0.00  0.00    -0.165 N 
ATOM      7  N   UNL     1     -31.186  30.027   4.927  0.00  0.00    -0.237 N 
ATOM      8  C   UNL     1     -32.131  28.099   3.960  0.00  0.00    +0.203 C 
ATOM      9  C   UNL     1     -31.394  29.403   3.719  0.00  0.00    +0.252 C 
ATOM     10  C   UNL     1     -31.703  29.284   5.970  0.00  0.00    +0.327 C 
ATOM     11  H   UNL     1     -30.726  30.891   5.034  0.00  0.00    +0.159 HD
ENDBRANCH   3   6
ENDBRANCH   1   3
BRANCH   2  12
ATOM     12  C   UNL     1     -35.654  25.075   5.223  0.00  0.00    +0.092 C 
BRANCH  12  14
ATOM     13  O   UNL     1     -35.722  23.050   3.887  0.00  0.00    -0.437 OA
ATOM     14  C   UNL     1     -35.529  23.654   5.077  0.00  0.00    +0.129 C 
ATOM     15  C   UNL     1     -35.219  22.759   6.058  0.00  0.00    +0.038 C 
ATOM     16  C   UNL     1     -35.529  21.723   4.107  0.00  0.00    +0.289 C 
ATOM     17  C   UNL     1     -35.218  21.492   5.426  0.00  0.00    +0.066 C 
BRANCH  16  20
ATOM     18  O   UNL     1     -34.793  20.043   2.710  0.00  0.00    -0.123 OA
ATOM     19  O   UNL     1     -36.710  21.010   2.258  0.00  0.00    -0.123 OA
ATOM     20  N   UNL     1     -35.682  20.899   2.989  0.00  0.00    +0.093 N 
ENDBRANCH  16  20
ENDBRANCH  12  14
ENDBRANCH   2  12
TORSDOF 5
ENDMDL
MODEL 5
REMARK VINA RESULT:      -5.9      5.355      9.942
REMARK  Name = 5562578
REMARK  5 active torsions:
REMARK  status: ('A' for Active; 'I' for Inactive)
REMARK    1  A    between atoms: N_1  and  C_2
REMARK    2  A    between atoms: N_1  and  N_5
REMARK    3  A    between atoms: C_11  and  C_12
REMARK    4  A    between atoms: C_11  and  C_14
REMARK    5  A    between atoms: C_16  and  N_20
REMARK                            x       y       z     vdW  Elec       q    Type
REMARK                         _______ _______ _______ _____ _____    ______ ____
ROOT
ATOM      1  C   UNL     1     -38.312  25.101   3.253  0.00  0.00    +0.100 C 
ATOM      2  C   UNL     1     -39.791  25.135   3.256  0.00  0.00    +0.001 C 
ENDROOT
BRANCH   1   3
ATOM      3  N   UNL     1     -37.653  24.192   3.895  0.00  0.00    -0.142 NA
BRANCH   3   6
ATOM      4  O   UNL     1     -34.101  26.906   5.417  0.00  0.00    -0.273 OA
ATOM      5  O   UNL     1     -35.997  22.739   5.739  0.00  0.00    -0.251 OA
ATOM      6  N   UNL     1     -36.560  24.663   4.515  0.00  0.00    -0.165 N 
ATOM      7  N   UNL     1     -34.778  24.719   5.824  0.00  0.00    -0.237 N 
ATOM      8  C   UNL     1     -36.069  25.997   4.326  0.00  0.00    +0.203 C 
ATOM      9  C   UNL     1     -34.861  25.963   5.242  0.00  0.00    +0.252 C 
ATOM     10  C   UNL     1     -35.804  23.898   5.399  0.00  0.00    +0.327 C 
ATOM     11  H   UNL     1     -34.077  24.449   6.460  0.00  0.00    +0.159 HD
ENDBRANCH   3   6
ENDBRANCH   1   3
BRANCH   2  12
ATOM     12  C   UNL     1     -40.408  26.107   2.569  0.00  0.00    +0.092 C 
BRANCH  12  14
ATOM     13  O   UNL     1     -41.755  27.671   3.846  0.00  0.00    -0.437 OA
ATOM     14  C   UNL     1     -41.672  26.668   2.948  0.00  0.00    +0.129 C 
ATOM     15  C   UNL     1     -42.899  26.295   2.486  0.00  0.00    +0.038 C 
ATOM     16  C   UNL     1     -43.077  27.954   3.968  0.00  0.00    +0.289 C 
ATOM     17  C   UNL     1     -43.824  27.135   3.153  0.00  0.00    +0.066 C 
BRANCH  16  20
ATOM     18  O   UNL     1     -44.606  29.243   5.116  0.00  0.00    -0.123 OA
ATOM     19  O   UNL     1     -42.468  29.640   5.418  0.00  0.00    -0.123 OA
ATOM     20  N   UNL     1     -43.394  28.979   4.862  0.00  0.00    +0.093 N 
ENDBRANCH  16  20
ENDBRANCH  12  14
ENDBRANCH   2  12
TORSDOF 5
ENDMDL
MODEL 6
REMARK VINA RESULT:      -5.9      2.707      7.370
REMARK  Name = 5562578
REMARK  5 active torsions:
REMARK  status: ('A' for Active; 'I' for Inactive)
REMARK    1  A    between atoms: N_1  and  C_2
REMARK    2  A    between atoms: N_1  and  N_5
REMARK    3  A    between atoms: C_11  and  C_12
REMARK    4  A    between atoms: C_11  and  C_14
REMARK    5  A    between atoms: C_16  and  N_20
REMARK                            x       y       z     vdW  Elec       q    Type
REMARK                         _______ _______ _______ _____ _____    ______ ____
ROOT
ATOM      1  C   UNL     1     -35.374  21.496   4.004  0.00  0.00    +0.100 C 
ATOM      2  C   UNL     1     -35.110  21.558   5.458  0.00  0.00    +0.001 C 
ENDROOT
BRANCH   1   3
ATOM      3  N   UNL     1     -35.244  20.397   3.337  0.00  0.00    -0.142 NA
BRANCH   3   6
ATOM      4  O   UNL     1     -38.399  21.132  -0.099  0.00  0.00    -0.273 OA
ATOM      5  O   UNL     1     -34.444  19.044   0.931  0.00  0.00    -0.251 OA
ATOM      6  N   UNL     1     -35.910  20.396   2.172  0.00  0.00    -0.165 N 
ATOM      7  N   UNL     1     -36.403  19.950   0.062  0.00  0.00    -0.237 N 
ATOM      8  C   UNL     1     -37.146  21.096   1.980  0.00  0.00    +0.203 C 
ATOM      9  C   UNL     1     -37.421  20.749   0.529  0.00  0.00    +0.252 C 
ATOM     10  C   UNL     1     -35.461  19.714   1.044  0.00  0.00    +0.327 C 
ATOM     11  H   UNL     1     -36.353  19.593  -0.854  0.00  0.00    +0.159 HD
ENDBRANCH   3   6
ENDBRANCH   1   3
BRANCH   2  12
ATOM     12  C   UNL     1     -35.264  22.733   6.085  0.00  0.00    +0.092 C 
BRANCH  12  14
ATOM     13  O   UNL     1     -36.889  23.931   4.738  0.00  0.00    -0.437 OA
ATOM     14  C   UNL     1     -35.738  23.922   5.439  0.00  0.00    +0.129 C 
ATOM     15  C   UNL     1     -35.132  25.143   5.439  0.00  0.00    +0.038 C 
ATOM     16  C   UNL     1     -37.031  25.198   4.270  0.00  0.00    +0.289 C 
ATOM     17  C   UNL     1     -35.976  25.983   4.673  0.00  0.00    +0.066 C 
BRANCH  16  20
ATOM     18  O   UNL     1     -38.226  26.436   2.735  0.00  0.00    -0.123 OA
ATOM     19  O   UNL     1     -39.159  24.639   3.580  0.00  0.00    -0.123 OA
ATOM     20  N   UNL     1     -38.176  25.432   3.504  0.00  0.00    +0.093 N 
ENDBRANCH  16  20
ENDBRANCH  12  14
ENDBRANCH   2  12
TORSDOF 5
ENDMDL
MODEL 7
REMARK VINA RESULT:      -5.8      1.576      1.844
REMARK  Name = 5562578
REMARK  5 active torsions:
REMARK  status: ('A' for Active; 'I' for Inactive)
REMARK    1  A    between atoms: N_1  and  C_2
REMARK    2  A    between atoms: N_1  and  N_5
REMARK    3  A    between atoms: C_11  and  C_12
REMARK    4  A    between atoms: C_11  and  C_14
REMARK    5  A    between atoms: C_16  and  N_20
REMARK                            x       y       z     vdW  Elec       q    Type
REMARK                         _______ _______ _______ _____ _____    ______ ____
ROOT
ATOM      1  C   UNL     1     -35.618  22.227   3.174  0.00  0.00    +0.100 C 
ATOM      2  C   UNL     1     -35.594  20.818   2.723  0.00  0.00    +0.001 C 
ENDROOT
BRANCH   1   3
ATOM      3  N   UNL     1     -36.004  22.552   4.364  0.00  0.00    -0.142 NA
BRANCH   3   6
ATOM      4  O   UNL     1     -34.387  26.809   5.615  0.00  0.00    -0.273 OA
ATOM      5  O   UNL     1     -38.052  24.541   4.035  0.00  0.00    -0.251 OA
ATOM      6  N   UNL     1     -35.882  23.862   4.626  0.00  0.00    -0.165 N 
ATOM      7  N   UNL     1     -36.415  26.000   4.816  0.00  0.00    -0.237 N 
ATOM      8  C   UNL     1     -34.671  24.449   5.120  0.00  0.00    +0.203 C 
ATOM      9  C   UNL     1     -35.106  25.899   5.226  0.00  0.00    +0.252 C 
ATOM     10  C   UNL     1     -36.921  24.771   4.443  0.00  0.00    +0.327 C 
ATOM     11  H   UNL     1     -36.926  26.842   4.794  0.00  0.00    +0.159 HD
ENDBRANCH   3   6
ENDBRANCH   1   3
BRANCH   2  12
ATOM     12  C   UNL     1     -35.183  20.554   1.475  0.00  0.00    +0.092 C 
BRANCH  12  14
ATOM     13  O   UNL     1     -32.976  20.709   0.477  0.00  0.00    -0.437 OA
ATOM     14  C   UNL     1     -33.898  20.001   1.161  0.00  0.00    +0.129 C 
ATOM     15  C   UNL     1     -33.446  18.757   1.487  0.00  0.00    +0.038 C 
ATOM     16  C   UNL     1     -31.895  19.896   0.357  0.00  0.00    +0.289 C 
ATOM     17  C   UNL     1     -32.133  18.684   0.961  0.00  0.00    +0.066 C 
BRANCH  16  20
ATOM     18  O   UNL     1     -29.800  19.716  -0.588  0.00  0.00    -0.123 OA
ATOM     19  O   UNL     1     -30.829  21.652  -0.691  0.00  0.00    -0.123 OA
ATOM     20  N   UNL     1     -30.806  20.439  -0.329  0.00  0.00    +0.093 N 
ENDBRANCH  16  20
ENDBRANCH  12  14
ENDBRANCH   2  12
TORSDOF 5
ENDMDL
MODEL 8
REMARK VINA RESULT:      -5.8      3.746      7.033
REMARK  Name = 5562578
REMARK  5 active torsions:
REMARK  status: ('A' for Active; 'I' for Inactive)
REMARK    1  A    between atoms: N_1  and  C_2
REMARK    2  A    between atoms: N_1  and  N_5
REMARK    3  A    between atoms: C_11  and  C_12
REMARK    4  A    between atoms: C_11  and  C_14
REMARK    5  A    between atoms: C_16  and  N_20
REMARK                            x       y       z     vdW  Elec       q    Type
REMARK                         _______ _______ _______ _____ _____    ______ ____
ROOT
ATOM      1  C   UNL     1     -35.464  22.267   3.362  0.00  0.00    +0.100 C 
ATOM      2  C   UNL     1     -35.286  21.828   4.763  0.00  0.00    +0.001 C 
ENDROOT
BRANCH   1   3
ATOM      3  N   UNL     1     -35.716  21.424   2.414  0.00  0.00    -0.142 NA
BRANCH   3   6
ATOM      4  O   UNL     1     -40.301  22.407   1.854  0.00  0.00    -0.273 OA
ATOM      5  O   UNL     1     -36.938  19.533   0.628  0.00  0.00    -0.251 OA
ATOM      6  N   UNL     1     -37.004  21.412   2.037  0.00  0.00    -0.165 N 
ATOM      7  N   UNL     1     -38.865  20.777   1.024  0.00  0.00    -0.237 N 
ATOM      8  C   UNL     1     -37.960  22.376   2.496  0.00  0.00    +0.203 C 
ATOM      9  C   UNL     1     -39.198  21.884   1.771  0.00  0.00    +0.252 C 
ATOM     10  C   UNL     1     -37.528  20.461   1.166  0.00  0.00    +0.327 C 
ATOM     11  H   UNL     1     -39.499  20.275   0.463  0.00  0.00    +0.159 HD
ENDBRANCH   3   6
ENDBRANCH   1   3
BRANCH   2  12
ATOM     12  C   UNL     1     -35.026  22.756   5.694  0.00  0.00    +0.092 C 
BRANCH  12  14
ATOM     13  O   UNL     1     -33.868  24.810   5.119  0.00  0.00    -0.437 OA
ATOM     14  C   UNL     1     -35.011  24.165   5.429  0.00  0.00    +0.129 C 
ATOM     15  C   UNL     1     -36.082  25.008   5.452  0.00  0.00    +0.038 C 
ATOM     16  C   UNL     1     -34.213  26.111   4.935  0.00  0.00    +0.289 C 
ATOM     17  C   UNL     1     -35.563  26.285   5.129  0.00  0.00    +0.066 C 
BRANCH  16  20
ATOM     18  O   UNL     1     -32.992  28.041   5.252  0.00  0.00    -0.123 OA
ATOM     19  O   UNL     1     -32.385  26.674   3.646  0.00  0.00    -0.123 OA
ATOM     20  N   UNL     1     -33.163  26.970   4.600  0.00  0.00    +0.093 N 
ENDBRANCH  16  20
ENDBRANCH  12  14
ENDBRANCH   2  12
TORSDOF 5
ENDMDL
MODEL 9
REMARK VINA RESULT:      -5.7      1.830      2.050
REMARK  Name = 5562578
REMARK  5 active torsions:
REMARK  status: ('A' for Active; 'I' for Inactive)
REMARK    1  A    between atoms: N_1  and  C_2
REMARK    2  A    between atoms: N_1  and  N_5
REMARK    3  A    between atoms: C_11  and  C_12
REMARK    4  A    between atoms: C_11  and  C_14
REMARK    5  A    between atoms: C_16  and  N_20
REMARK                            x       y       z     vdW  Elec       q    Type
REMARK                         _______ _______ _______ _____ _____    ______ ____
ROOT
ATOM      1  C   UNL     1     -35.746  22.298   2.974  0.00  0.00    +0.100 C 
ATOM      2  C   UNL     1     -35.399  20.903   2.624  0.00  0.00    +0.001 C 
ENDROOT
BRANCH   1   3
ATOM      3  N   UNL     1     -36.337  22.593   4.086  0.00  0.00    -0.142 NA
BRANCH   3   6
ATOM      4  O   UNL     1     -34.458  26.570   5.805  0.00  0.00    -0.273 OA
ATOM      5  O   UNL     1     -38.223  24.753   3.910  0.00  0.00    -0.251 OA
ATOM      6  N   UNL     1     -36.129  23.857   4.483  0.00  0.00    -0.165 N 
ATOM      7  N   UNL     1     -36.513  26.000   4.877  0.00  0.00    -0.237 N 
ATOM      8  C   UNL     1     -34.895  24.299   5.065  0.00  0.00    +0.203 C 
ATOM      9  C   UNL     1     -35.228  25.759   5.307  0.00  0.00    +0.252 C 
ATOM     10  C   UNL     1     -37.093  24.855   4.367  0.00  0.00    +0.327 C 
ATOM     11  H   UNL     1     -36.960  26.875   4.927  0.00  0.00    +0.159 HD
ENDBRANCH   3   6
ENDBRANCH   1   3
BRANCH   2  12
ATOM     12  C   UNL     1     -34.789  20.672   1.454  0.00  0.00    +0.092 C 
BRANCH  12  14
ATOM     13  O   UNL     1     -34.958  18.513   0.358  0.00  0.00    -0.437 OA
ATOM     14  C   UNL     1     -34.243  19.400   1.080  0.00  0.00    +0.129 C 
ATOM     15  C   UNL     1     -33.000  18.928   1.380  0.00  0.00    +0.038 C 
ATOM     16  C   UNL     1     -34.151  17.435   0.187  0.00  0.00    +0.289 C 
ATOM     17  C   UNL     1     -32.935  17.639   0.797  0.00  0.00    +0.066 C 
BRANCH  16  20
ATOM     18  O   UNL     1     -34.592  16.363  -1.806  0.00  0.00    -0.123 OA
ATOM     19  O   UNL     1     -35.307  15.444   0.054  0.00  0.00    -0.123 OA
ATOM     20  N   UNL     1     -34.702  16.380  -0.545  0.00  0.00    +0.093 N 
ENDBRANCH  16  20
ENDBRANCH  12  14
ENDBRANCH   2  12
TORSDOF 5
ENDMDL
