MODEL 1
REMARK VINA RESULT:      -6.4      0.000      0.000
REMARK  Name = 52508
REMARK  4 active torsions:
REMARK  status: ('A' for Active; 'I' for Inactive)
REMARK    1  A    between atoms: N_2  and  N_5
REMARK    2  A    between atoms: C_3  and  C_16
REMARK    3  A    between atoms: C_19  and  S_22
REMARK    4  A    between atoms: S_22  and  N_25
REMARK                            x       y       z     vdW  Elec       q    Type
REMARK                         _______ _______ _______ _____ _____    ______ ____
ROOT
ATOM      1  O   UNL     1     -33.369  28.060   3.044  0.00  0.00    -0.269 OA
ATOM      2  N   UNL     1     -35.644  27.745   3.374  0.00  0.00    -0.243 N 
ATOM      3  C   UNL     1     -34.525  28.473   3.006  0.00  0.00    +0.259 C 
ATOM      4  H   UNL     1     -36.542  28.144   3.317  0.00  0.00    +0.170 HD
ENDROOT
BRANCH   2   5
ATOM      5  N   UNL     1     -35.478  26.454   3.821  0.00  0.00    -0.206 NA
ATOM      6  C   UNL     1     -36.261  24.742   5.260  0.00  0.00    +0.019 C 
ATOM      7  C   UNL     1     -36.300  24.231   3.801  0.00  0.00    +0.019 C 
ATOM      8  C   UNL     1     -35.065  23.960   5.860  0.00  0.00    +0.001 C 
ATOM      9  C   UNL     1     -35.122  23.226   3.763  0.00  0.00    +0.001 C 
ATOM     10  C   UNL     1     -34.079  23.840   4.698  0.00  0.00    +0.000 C 
ATOM     11  C   UNL     1     -35.498  22.489   6.024  0.00  0.00    +0.000 C 
ATOM     12  C   UNL     1     -35.538  21.980   4.572  0.00  0.00    +0.000 C 
ATOM     13  C   UNL     1     -36.074  26.255   5.143  0.00  0.00    +0.092 C 
ATOM     14  C   UNL     1     -36.133  25.485   2.941  0.00  0.00    +0.092 C 
ENDBRANCH   2   5
BRANCH   3  16
ATOM     15 CL   UNL     1     -35.512  34.083   1.215  0.00  0.00    -0.081 Cl
ATOM     16  C   UNL     1     -34.783  29.866   2.554  0.00  0.00    +0.056 C 
ATOM     17  C   UNL     1     -35.976  30.151   1.923  0.00  0.00    +0.025 C 
ATOM     18  C   UNL     1     -33.821  30.827   2.781  0.00  0.00    +0.005 C 
ATOM     19  C   UNL     1     -36.218  31.458   1.500  0.00  0.00    +0.132 C 
ATOM     20  C   UNL     1     -34.063  32.134   2.357  0.00  0.00    +0.013 C 
ATOM     21  C   UNL     1     -35.261  32.450   1.718  0.00  0.00    +0.076 C 
BRANCH  19  22
ATOM     22  S   UNL     1     -37.741  31.796   0.702  0.00  0.00    +0.058 S 
ATOM     23  O   UNL     1     -38.660  32.338   1.690  0.00  0.00    -0.153 OA
ATOM     24  O   UNL     1     -37.463  32.536  -0.518  0.00  0.00    -0.153 OA
BRANCH  22  25
ATOM     25  N   UNL     1     -38.242  30.216   0.288  0.00  0.00    -0.203 NA
ATOM     26  H   UNL     1     -39.228  30.100   0.519  0.00  0.00    +0.144 HD
ATOM     27  H   UNL     1     -37.687  29.536   0.808  0.00  0.00    +0.144 HD
ENDBRANCH  22  25
ENDBRANCH  19  22
ENDBRANCH   3  16
TORSDOF 4
ENDMDL
MODEL 2
REMARK VINA RESULT:      -6.3      7.672     10.542
REMARK  Name = 52508
REMARK  4 active torsions:
REMARK  status: ('A' for Active; 'I' for Inactive)
REMARK    1  A    between atoms: N_2  and  N_5
REMARK    2  A    between atoms: C_3  and  C_16
REMARK    3  A    between atoms: C_19  and  S_22
REMARK    4  A    between atoms: S_22  and  N_25
REMARK                            x       y       z     vdW  Elec       q    Type
REMARK                         _______ _______ _______ _____ _____    ______ ____
ROOT
ATOM      1  O   UNL     1     -34.014  21.349   0.731  0.00  0.00    -0.269 OA
ATOM      2  N   UNL     1     -35.337  20.689   2.519  0.00  0.00    -0.243 N 
ATOM      3  C   UNL     1     -34.650  20.488   1.334  0.00  0.00    +0.259 C 
ATOM      4  H   UNL     1     -35.827  19.948   2.945  0.00  0.00    +0.170 HD
ENDROOT
BRANCH   2   5
ATOM      5  N   UNL     1     -35.325  21.941   3.090  0.00  0.00    -0.206 NA
ATOM      6  C   UNL     1     -36.608  23.778   3.858  0.00  0.00    +0.019 C 
ATOM      7  C   UNL     1     -35.754  23.237   5.027  0.00  0.00    +0.019 C 
ATOM      8  C   UNL     1     -35.898  25.110   3.508  0.00  0.00    +0.001 C 
ATOM      9  C   UNL     1     -34.669  24.331   5.188  0.00  0.00    +0.001 C 
ATOM     10  C   UNL     1     -34.419  24.819   3.761  0.00  0.00    +0.000 C 
ATOM     11  C   UNL     1     -36.193  26.114   4.641  0.00  0.00    +0.000 C 
ATOM     12  C   UNL     1     -35.342  25.575   5.805  0.00  0.00    +0.000 C 
ATOM     13  C   UNL     1     -36.546  22.690   2.786  0.00  0.00    +0.092 C 
ATOM     14  C   UNL     1     -35.255  21.872   4.550  0.00  0.00    +0.092 C 
ENDBRANCH   2   5
BRANCH   3  16
ATOM     15 CL   UNL     1     -34.906  14.972  -0.935  0.00  0.00    -0.081 Cl
ATOM     16  C   UNL     1     -34.727  19.116   0.768  0.00  0.00    +0.056 C 
ATOM     17  C   UNL     1     -35.943  18.654   0.308  0.00  0.00    +0.025 C 
ATOM     18  C   UNL     1     -33.582  18.351   0.719  0.00  0.00    +0.005 C 
ATOM     19  C   UNL     1     -36.016  17.366  -0.223  0.00  0.00    +0.132 C 
ATOM     20  C   UNL     1     -33.654  17.064   0.187  0.00  0.00    +0.013 C 
ATOM     21  C   UNL     1     -34.870  16.571  -0.285  0.00  0.00    +0.076 C 
BRANCH  19  22
ATOM     22  S   UNL     1     -37.571  16.801  -0.801  0.00  0.00    +0.058 S 
ATOM     23  O   UNL     1     -37.482  16.625  -2.242  0.00  0.00    -0.153 OA
ATOM     24  O   UNL     1     -37.998  15.696   0.042  0.00  0.00    -0.153 OA
BRANCH  22  25
ATOM     25  N   UNL     1     -38.548  18.161  -0.468  0.00  0.00    -0.203 NA
ATOM     26  H   UNL     1     -39.318  17.886   0.141  0.00  0.00    +0.144 HD
ATOM     27  H   UNL     1     -38.920  18.535  -1.340  0.00  0.00    +0.144 HD
ENDBRANCH  22  25
ENDBRANCH  19  22
ENDBRANCH   3  16
TORSDOF 4
ENDMDL
MODEL 3
REMARK VINA RESULT:      -6.2      8.563     10.434
REMARK  Name = 52508
REMARK  4 active torsions:
REMARK  status: ('A' for Active; 'I' for Inactive)
REMARK    1  A    between atoms: N_2  and  N_5
REMARK    2  A    between atoms: C_3  and  C_16
REMARK    3  A    between atoms: C_19  and  S_22
REMARK    4  A    between atoms: S_22  and  N_25
REMARK                            x       y       z     vdW  Elec       q    Type
REMARK                         _______ _______ _______ _____ _____    ______ ____
ROOT
ATOM      1  O   UNL     1     -41.976  28.814   4.514  0.00  0.00    -0.269 OA
ATOM      2  N   UNL     1     -44.106  27.894   4.465  0.00  0.00    -0.243 N 
ATOM      3  C   UNL     1     -42.764  27.954   4.128  0.00  0.00    +0.259 C 
ATOM      4  H   UNL     1     -44.679  27.174   4.116  0.00  0.00    +0.170 HD
ENDROOT
BRANCH   2   5
ATOM      5  N   UNL     1     -44.625  28.860   5.298  0.00  0.00    -0.206 NA
ATOM      6  C   UNL     1     -46.322  30.478   5.635  0.00  0.00    +0.019 C 
ATOM      7  C   UNL     1     -46.362  29.457   6.795  0.00  0.00    +0.019 C 
ATOM      8  C   UNL     1     -45.730  31.739   6.316  0.00  0.00    +0.001 C 
ATOM      9  C   UNL     1     -45.789  30.269   7.983  0.00  0.00    +0.001 C 
ATOM     10  C   UNL     1     -44.742  31.179   7.339  0.00  0.00    +0.000 C 
ATOM     11  C   UNL     1     -46.811  32.322   7.248  0.00  0.00    +0.000 C 
ATOM     12  C   UNL     1     -46.852  31.305   8.403  0.00  0.00    +0.000 C 
ATOM     13  C   UNL     1     -45.444  29.827   4.566  0.00  0.00    +0.092 C 
ATOM     14  C   UNL     1     -45.505  28.284   6.316  0.00  0.00    +0.092 C 
ENDBRANCH   2   5
BRANCH   3  16
ATOM     15 CL   UNL     1     -40.881  23.675   0.415  0.00  0.00    -0.081 Cl
ATOM     16  C   UNL     1     -42.283  26.891   3.208  0.00  0.00    +0.056 C 
ATOM     17  C   UNL     1     -40.966  26.486   3.291  0.00  0.00    +0.025 C 
ATOM     18  C   UNL     1     -43.167  26.342   2.304  0.00  0.00    +0.005 C 
ATOM     19  C   UNL     1     -40.514  25.487   2.428  0.00  0.00    +0.132 C 
ATOM     20  C   UNL     1     -42.715  25.344   1.442  0.00  0.00    +0.013 C 
ATOM     21  C   UNL     1     -41.389  24.915   1.504  0.00  0.00    +0.076 C 
BRANCH  19  22
ATOM     22  S   UNL     1     -38.838  24.989   2.552  0.00  0.00    +0.058 S 
ATOM     23  O   UNL     1     -38.805  23.650   3.118  0.00  0.00    -0.153 OA
ATOM     24  O   UNL     1     -38.187  25.259   1.281  0.00  0.00    -0.153 OA
BRANCH  22  25
ATOM     25  N   UNL     1     -38.262  26.098   3.716  0.00  0.00    -0.203 NA
ATOM     26  H   UNL     1     -39.049  26.502   4.220  0.00  0.00    +0.144 HD
ATOM     27  H   UNL     1     -37.739  26.839   3.249  0.00  0.00    +0.144 HD
ENDBRANCH  22  25
ENDBRANCH  19  22
ENDBRANCH   3  16
TORSDOF 4
ENDMDL
MODEL 4
REMARK VINA RESULT:      -6.1      4.450      7.362
REMARK  Name = 52508
REMARK  4 active torsions:
REMARK  status: ('A' for Active; 'I' for Inactive)
REMARK    1  A    between atoms: N_2  and  N_5
REMARK    2  A    between atoms: C_3  and  C_16
REMARK    3  A    between atoms: C_19  and  S_22
REMARK    4  A    between atoms: S_22  and  N_25
REMARK                            x       y       z     vdW  Elec       q    Type
REMARK                         _______ _______ _______ _____ _____    ______ ____
ROOT
ATOM      1  O   UNL     1     -34.317  26.367   5.932  0.00  0.00    -0.269 OA
ATOM      2  N   UNL     1     -33.878  27.088   3.771  0.00  0.00    -0.243 N 
ATOM      3  C   UNL     1     -34.470  26.269   4.717  0.00  0.00    +0.259 C 
ATOM      4  H   UNL     1     -34.048  26.948   2.811  0.00  0.00    +0.170 HD
ENDROOT
BRANCH   2   5
ATOM      5  N   UNL     1     -33.048  28.101   4.195  0.00  0.00    -0.206 NA
ATOM      6  C   UNL     1     -30.893  29.077   4.067  0.00  0.00    +0.019 C 
ATOM      7  C   UNL     1     -31.947  30.123   3.635  0.00  0.00    +0.019 C 
ATOM      8  C   UNL     1     -30.457  29.594   5.462  0.00  0.00    +0.001 C 
ATOM      9  C   UNL     1     -31.972  31.096   4.840  0.00  0.00    +0.001 C 
ATOM     10  C   UNL     1     -31.733  30.194   6.051  0.00  0.00    +0.000 C 
ATOM     11  C   UNL     1     -29.611  30.865   5.250  0.00  0.00    +0.000 C 
ATOM     12  C   UNL     1     -30.660  31.906   4.820  0.00  0.00    +0.000 C 
ATOM     13  C   UNL     1     -31.636  27.741   4.056  0.00  0.00    +0.092 C 
ATOM     14  C   UNL     1     -33.227  29.318   3.403  0.00  0.00    +0.092 C 
ENDBRANCH   2   5
BRANCH   3  16
ATOM     15 CL   UNL     1     -37.904  21.883   2.569  0.00  0.00    -0.081 Cl
ATOM     16  C   UNL     1     -35.336  25.186   4.182  0.00  0.00    +0.056 C 
ATOM     17  C   UNL     1     -36.617  25.498   3.774  0.00  0.00    +0.025 C 
ATOM     18  C   UNL     1     -34.831  23.905   4.109  0.00  0.00    +0.005 C 
ATOM     19  C   UNL     1     -37.428  24.481   3.271  0.00  0.00    +0.132 C 
ATOM     20  C   UNL     1     -35.642  22.889   3.605  0.00  0.00    +0.013 C 
ATOM     21  C   UNL     1     -36.941  23.176   3.186  0.00  0.00    +0.076 C 
BRANCH  19  22
ATOM     22  S   UNL     1     -39.051  24.902   2.758  0.00  0.00    +0.058 S 
ATOM     23  O   UNL     1     -39.158  24.638   1.332  0.00  0.00    -0.153 OA
ATOM     24  O   UNL     1     -39.994  24.295   3.684  0.00  0.00    -0.153 OA
BRANCH  22  25
ATOM     25  N   UNL     1     -39.037  26.590   3.010  0.00  0.00    -0.203 NA
ATOM     26  H   UNL     1     -38.133  26.871   3.388  0.00  0.00    +0.144 HD
ATOM     27  H   UNL     1     -39.774  26.842   3.669  0.00  0.00    +0.144 HD
ENDBRANCH  22  25
ENDBRANCH  19  22
ENDBRANCH   3  16
TORSDOF 4
ENDMDL
MODEL 5
REMARK VINA RESULT:      -6.1      7.277      9.875
REMARK  Name = 52508
REMARK  4 active torsions:
REMARK  status: ('A' for Active; 'I' for Inactive)
REMARK    1  A    between atoms: N_2  and  N_5
REMARK    2  A    between atoms: C_3  and  C_16
REMARK    3  A    between atoms: C_19  and  S_22
REMARK    4  A    between atoms: S_22  and  N_25
REMARK                            x       y       z     vdW  Elec       q    Type
REMARK                         _______ _______ _______ _____ _____    ______ ____
ROOT
ATOM      1  O   UNL     1     -34.803  20.005   2.843  0.00  0.00    -0.269 OA
ATOM      2  N   UNL     1     -35.810  21.705   1.626  0.00  0.00    -0.243 N 
ATOM      3  C   UNL     1     -35.393  20.402   1.841  0.00  0.00    +0.259 C 
ATOM      4  H   UNL     1     -36.279  21.951   0.796  0.00  0.00    +0.170 HD
ENDROOT
BRANCH   2   5
ATOM      5  N   UNL     1     -35.556  22.652   2.593  0.00  0.00    -0.206 NA
ATOM      6  C   UNL     1     -34.994  24.906   3.055  0.00  0.00    +0.019 C 
ATOM      7  C   UNL     1     -36.342  24.573   3.736  0.00  0.00    +0.019 C 
ATOM      8  C   UNL     1     -34.017  24.978   4.256  0.00  0.00    +0.001 C 
ATOM      9  C   UNL     1     -35.955  24.499   5.234  0.00  0.00    +0.001 C 
ATOM     10  C   UNL     1     -34.541  23.917   5.224  0.00  0.00    +0.000 C 
ATOM     11  C   UNL     1     -34.331  26.266   5.043  0.00  0.00    +0.000 C 
ATOM     12  C   UNL     1     -35.673  25.935   5.720  0.00  0.00    +0.000 C 
ATOM     13  C   UNL     1     -34.755  23.760   2.072  0.00  0.00    +0.092 C 
ATOM     14  C   UNL     1     -36.789  23.256   3.098  0.00  0.00    +0.092 C 
ENDBRANCH   2   5
BRANCH   3  16
ATOM     15 CL   UNL     1     -36.508  16.536  -2.569  0.00  0.00    -0.081 Cl
ATOM     16  C   UNL     1     -35.684  19.443   0.744  0.00  0.00    +0.056 C 
ATOM     17  C   UNL     1     -36.970  19.368   0.250  0.00  0.00    +0.025 C 
ATOM     18  C   UNL     1     -34.660  18.661   0.256  0.00  0.00    +0.005 C 
ATOM     19  C   UNL     1     -37.243  18.467  -0.781  0.00  0.00    +0.132 C 
ATOM     20  C   UNL     1     -34.932  17.760  -0.775  0.00  0.00    +0.013 C 
ATOM     21  C   UNL     1     -36.223  17.664  -1.293  0.00  0.00    +0.076 C 
BRANCH  19  22
ATOM     22  S   UNL     1     -38.883  18.390  -1.394  0.00  0.00    +0.058 S 
ATOM     23  O   UNL     1     -38.854  18.724  -2.808  0.00  0.00    -0.153 OA
ATOM     24  O   UNL     1     -39.477  17.139  -0.953  0.00  0.00    -0.153 OA
BRANCH  22  25
ATOM     25  N   UNL     1     -39.605  19.677  -0.534  0.00  0.00    -0.203 NA
ATOM     26  H   UNL     1     -38.881  20.316  -0.206  0.00  0.00    +0.144 HD
ATOM     27  H   UNL     1     -40.120  19.307   0.264  0.00  0.00    +0.144 HD
ENDBRANCH  22  25
ENDBRANCH  19  22
ENDBRANCH   3  16
TORSDOF 4
ENDMDL
MODEL 6
REMARK VINA RESULT:      -6.1      5.835      8.171
REMARK  Name = 52508
REMARK  4 active torsions:
REMARK  status: ('A' for Active; 'I' for Inactive)
REMARK    1  A    between atoms: N_2  and  N_5
REMARK    2  A    between atoms: C_3  and  C_16
REMARK    3  A    between atoms: C_19  and  S_22
REMARK    4  A    between atoms: S_22  and  N_25
REMARK                            x       y       z     vdW  Elec       q    Type
REMARK                         _______ _______ _______ _____ _____    ______ ____
ROOT
ATOM      1  O   UNL     1     -36.720  20.216   2.196  0.00  0.00    -0.269 OA
ATOM      2  N   UNL     1     -34.462  20.602   1.828  0.00  0.00    -0.243 N 
ATOM      3  C   UNL     1     -35.705  20.886   2.368  0.00  0.00    +0.259 C 
ATOM      4  H   UNL     1     -33.691  21.187   2.010  0.00  0.00    +0.170 HD
ENDROOT
BRANCH   2   5
ATOM      5  N   UNL     1     -34.322  19.487   1.033  0.00  0.00    -0.206 NA
ATOM      6  C   UNL     1     -33.410  18.576  -0.955  0.00  0.00    +0.019 C 
ATOM      7  C   UNL     1     -32.877  17.778   0.256  0.00  0.00    +0.019 C 
ATOM      8  C   UNL     1     -34.413  17.586  -1.598  0.00  0.00    +0.001 C 
ATOM      9  C   UNL     1     -33.647  16.438   0.144  0.00  0.00    +0.001 C 
ATOM     10  C   UNL     1     -35.015  16.841  -0.407  0.00  0.00    +0.000 C 
ATOM     11  C   UNL     1     -33.600  16.457  -2.264  0.00  0.00    +0.000 C 
ATOM     12  C   UNL     1     -33.069  15.662  -1.058  0.00  0.00    +0.000 C 
ATOM     13  C   UNL     1     -34.020  19.844  -0.355  0.00  0.00    +0.092 C 
ATOM     14  C   UNL     1     -33.216  18.638   1.475  0.00  0.00    +0.092 C 
ENDBRANCH   2   5
BRANCH   3  16
ATOM     15 CL   UNL     1     -35.998  25.800   5.747  0.00  0.00    -0.081 Cl
ATOM     16  C   UNL     1     -35.781  22.117   3.198  0.00  0.00    +0.056 C 
ATOM     17  C   UNL     1     -36.183  23.296   2.604  0.00  0.00    +0.025 C 
ATOM     18  C   UNL     1     -35.448  22.040   4.533  0.00  0.00    +0.005 C 
ATOM     19  C   UNL     1     -36.255  24.450   3.384  0.00  0.00    +0.132 C 
ATOM     20  C   UNL     1     -35.520  23.195   5.313  0.00  0.00    +0.013 C 
ATOM     21  C   UNL     1     -35.924  24.400   4.739  0.00  0.00    +0.076 C 
BRANCH  19  22
ATOM     22  S   UNL     1     -36.769  25.936   2.608  0.00  0.00    +0.058 S 
ATOM     23  O   UNL     1     -35.800  26.972   2.925  0.00  0.00    -0.153 OA
ATOM     24  O   UNL     1     -37.091  25.639   1.222  0.00  0.00    -0.153 OA
BRANCH  22  25
ATOM     25  N   UNL     1     -38.217  26.253   3.456  0.00  0.00    -0.203 NA
ATOM     26  H   UNL     1     -38.781  26.920   2.930  0.00  0.00    +0.144 HD
ATOM     27  H   UNL     1     -37.997  26.641   4.373  0.00  0.00    +0.144 HD
ENDBRANCH  22  25
ENDBRANCH  19  22
ENDBRANCH   3  16
TORSDOF 4
ENDMDL
MODEL 7
REMARK VINA RESULT:      -6.1      4.558      6.861
REMARK  Name = 52508
REMARK  4 active torsions:
REMARK  status: ('A' for Active; 'I' for Inactive)
REMARK    1  A    between atoms: N_2  and  N_5
REMARK    2  A    between atoms: C_3  and  C_16
REMARK    3  A    between atoms: C_19  and  S_22
REMARK    4  A    between atoms: S_22  and  N_25
REMARK                            x       y       z     vdW  Elec       q    Type
REMARK                         _______ _______ _______ _____ _____    ______ ____
ROOT
ATOM      1  O   UNL     1     -32.513  25.707   3.245  0.00  0.00    -0.269 OA
ATOM      2  N   UNL     1     -33.503  27.147   4.771  0.00  0.00    -0.243 N 
ATOM      3  C   UNL     1     -33.501  26.111   3.853  0.00  0.00    +0.259 C 
ATOM      4  H   UNL     1     -34.337  27.417   5.221  0.00  0.00    +0.170 HD
ENDROOT
BRANCH   2   5
ATOM      5  N   UNL     1     -32.320  27.795   5.045  0.00  0.00    -0.206 NA
ATOM      6  C   UNL     1     -31.204  29.875   5.255  0.00  0.00    +0.019 C 
ATOM      7  C   UNL     1     -31.091  29.105   6.591  0.00  0.00    +0.019 C 
ATOM      8  C   UNL     1     -29.768  29.771   4.683  0.00  0.00    +0.001 C 
ATOM      9  C   UNL     1     -29.606  28.664   6.604  0.00  0.00    +0.001 C 
ATOM     10  C   UNL     1     -29.288  28.392   5.133  0.00  0.00    +0.000 C 
ATOM     11  C   UNL     1     -28.857  30.684   5.528  0.00  0.00    +0.000 C 
ATOM     12  C   UNL     1     -28.744  29.918   6.858  0.00  0.00    +0.000 C 
ATOM     13  C   UNL     1     -32.289  29.139   4.467  0.00  0.00    +0.092 C 
ATOM     14  C   UNL     1     -32.119  27.976   6.483  0.00  0.00    +0.092 C 
ENDBRANCH   2   5
BRANCH   3  16
ATOM     15 CL   UNL     1     -38.780  23.512   2.842  0.00  0.00    -0.081 Cl
ATOM     16  C   UNL     1     -34.820  25.475   3.595  0.00  0.00    +0.056 C 
ATOM     17  C   UNL     1     -35.755  26.163   2.850  0.00  0.00    +0.025 C 
ATOM     18  C   UNL     1     -35.065  24.220   4.108  0.00  0.00    +0.005 C 
ATOM     19  C   UNL     1     -36.992  25.566   2.607  0.00  0.00    +0.132 C 
ATOM     20  C   UNL     1     -36.302  23.623   3.866  0.00  0.00    +0.013 C 
ATOM     21  C   UNL     1     -37.265  24.296   3.115  0.00  0.00    +0.076 C 
BRANCH  19  22
ATOM     22  S   UNL     1     -38.164  26.459   1.657  0.00  0.00    +0.058 S 
ATOM     23  O   UNL     1     -38.273  25.819   0.356  0.00  0.00    -0.153 OA
ATOM     24  O   UNL     1     -39.351  26.663   2.470  0.00  0.00    -0.153 OA
BRANCH  22  25
ATOM     25  N   UNL     1     -37.356  27.952   1.474  0.00  0.00    -0.203 NA
ATOM     26  H   UNL     1     -37.883  28.549   0.839  0.00  0.00    +0.144 HD
ATOM     27  H   UNL     1     -36.423  27.790   1.094  0.00  0.00    +0.144 HD
ENDBRANCH  22  25
ENDBRANCH  19  22
ENDBRANCH   3  16
TORSDOF 4
ENDMDL
MODEL 8
REMARK VINA RESULT:      -6.0      7.701     10.424
REMARK  Name = 52508
REMARK  4 active torsions:
REMARK  status: ('A' for Active; 'I' for Inactive)
REMARK    1  A    between atoms: N_2  and  N_5
REMARK    2  A    between atoms: C_3  and  C_16
REMARK    3  A    between atoms: C_19  and  S_22
REMARK    4  A    between atoms: S_22  and  N_25
REMARK                            x       y       z     vdW  Elec       q    Type
REMARK                         _______ _______ _______ _____ _____    ______ ____
ROOT
ATOM      1  O   UNL     1     -35.561  20.102   2.413  0.00  0.00    -0.269 OA
ATOM      2  N   UNL     1     -36.939  21.869   1.812  0.00  0.00    -0.243 N 
ATOM      3  C   UNL     1     -36.456  20.575   1.717  0.00  0.00    +0.259 C 
ATOM      4  H   UNL     1     -37.661  22.179   1.217  0.00  0.00    +0.170 HD
ENDROOT
BRANCH   2   5
ATOM      5  N   UNL     1     -36.394  22.715   2.750  0.00  0.00    -0.206 NA
ATOM      6  C   UNL     1     -35.062  24.633   3.150  0.00  0.00    +0.019 C 
ATOM      7  C   UNL     1     -36.463  24.855   3.764  0.00  0.00    +0.019 C 
ATOM      8  C   UNL     1     -34.174  24.416   4.401  0.00  0.00    +0.001 C 
ATOM      9  C   UNL     1     -36.189  24.736   5.285  0.00  0.00    +0.001 C 
ATOM     10  C   UNL     1     -35.087  23.680   5.381  0.00  0.00    +0.000 C 
ATOM     11  C   UNL     1     -34.024  25.776   5.113  0.00  0.00    +0.000 C 
ATOM     12  C   UNL     1     -35.418  25.997   5.725  0.00  0.00    +0.000 C 
ATOM     13  C   UNL     1     -35.222  23.422   2.231  0.00  0.00    +0.092 C 
ATOM     14  C   UNL     1     -37.338  23.756   3.158  0.00  0.00    +0.092 C 
ENDBRANCH   2   5
BRANCH   3  16
ATOM     15 CL   UNL     1     -39.002  17.214  -2.510  0.00  0.00    -0.081 Cl
ATOM     16  C   UNL     1     -37.080  19.729   0.666  0.00  0.00    +0.056 C 
ATOM     17  C   UNL     1     -36.528  18.494   0.391  0.00  0.00    +0.025 C 
ATOM     18  C   UNL     1     -38.189  20.205   0.001  0.00  0.00    +0.005 C 
ATOM     19  C   UNL     1     -37.114  17.701  -0.595  0.00  0.00    +0.132 C 
ATOM     20  C   UNL     1     -38.775  19.411  -0.985  0.00  0.00    +0.013 C 
ATOM     21  C   UNL     1     -38.238  18.159  -1.283  0.00  0.00    +0.076 C 
BRANCH  19  22
ATOM     22  S   UNL     1     -36.396  16.136  -0.925  0.00  0.00    +0.058 S 
ATOM     23  O   UNL     1     -37.357  15.109  -0.555  0.00  0.00    -0.153 OA
ATOM     24  O   UNL     1     -35.841  16.163  -2.269  0.00  0.00    -0.153 OA
BRANCH  22  25
ATOM     25  N   UNL     1     -35.113  16.129   0.202  0.00  0.00    -0.203 NA
ATOM     26  H   UNL     1     -34.793  15.172   0.347  0.00  0.00    +0.144 HD
ATOM     27  H   UNL     1     -35.437  16.518   1.088  0.00  0.00    +0.144 HD
ENDBRANCH  22  25
ENDBRANCH  19  22
ENDBRANCH   3  16
TORSDOF 4
ENDMDL
MODEL 9
REMARK VINA RESULT:      -6.0      6.368      8.855
REMARK  Name = 52508
REMARK  4 active torsions:
REMARK  status: ('A' for Active; 'I' for Inactive)
REMARK    1  A    between atoms: N_2  and  N_5
REMARK    2  A    between atoms: C_3  and  C_16
REMARK    3  A    between atoms: C_19  and  S_22
REMARK    4  A    between atoms: S_22  and  N_25
REMARK                            x       y       z     vdW  Elec       q    Type
REMARK                         _______ _______ _______ _____ _____    ______ ____
ROOT
ATOM      1  O   UNL     1     -38.243  26.659   2.039  0.00  0.00    -0.269 OA
ATOM      2  N   UNL     1     -39.874  25.745   3.413  0.00  0.00    -0.243 N 
ATOM      3  C   UNL     1     -38.582  25.895   2.939  0.00  0.00    +0.259 C 
ATOM      4  H   UNL     1     -40.071  25.109   4.139  0.00  0.00    +0.170 HD
ENDROOT
BRANCH   2   5
ATOM      5  N   UNL     1     -40.879  26.499   2.851  0.00  0.00    -0.206 NA
ATOM      6  C   UNL     1     -42.976  26.494   1.749  0.00  0.00    +0.019 C 
ATOM      7  C   UNL     1     -43.096  27.309   3.057  0.00  0.00    +0.019 C 
ATOM      8  C   UNL     1     -43.009  27.596   0.659  0.00  0.00    +0.001 C 
ATOM      9  C   UNL     1     -43.182  28.768   2.540  0.00  0.00    +0.001 C 
ATOM     10  C   UNL     1     -42.284  28.777   1.303  0.00  0.00    +0.000 C 
ATOM     11  C   UNL     1     -44.448  28.146   0.589  0.00  0.00    +0.000 C 
ATOM     12  C   UNL     1     -44.568  28.957   1.891  0.00  0.00    +0.000 C 
ATOM     13  C   UNL     1     -41.659  25.729   1.880  0.00  0.00    +0.092 C 
ATOM     14  C   UNL     1     -41.839  26.960   3.855  0.00  0.00    +0.092 C 
ENDBRANCH   2   5
BRANCH   3  16
ATOM     15 CL   UNL     1     -34.450  22.467   5.551  0.00  0.00    -0.081 Cl
ATOM     16  C   UNL     1     -37.555  25.031   3.580  0.00  0.00    +0.056 C 
ATOM     17  C   UNL     1     -37.242  23.823   2.993  0.00  0.00    +0.025 C 
ATOM     18  C   UNL     1     -36.950  25.467   4.739  0.00  0.00    +0.005 C 
ATOM     19  C   UNL     1     -36.278  23.013   3.594  0.00  0.00    +0.132 C 
ATOM     20  C   UNL     1     -35.987  24.657   5.341  0.00  0.00    +0.013 C 
ATOM     21  C   UNL     1     -35.650  23.431   4.769  0.00  0.00    +0.076 C 
BRANCH  19  22
ATOM     22  S   UNL     1     -35.895  21.483   2.829  0.00  0.00    +0.058 S 
ATOM     23  O   UNL     1     -35.130  21.759   1.623  0.00  0.00    -0.153 OA
ATOM     24  O   UNL     1     -35.360  20.588   3.842  0.00  0.00    -0.153 OA
BRANCH  22  25
ATOM     25  N   UNL     1     -37.455  20.949   2.387  0.00  0.00    -0.203 NA
ATOM     26  H   UNL     1     -37.388  20.034   1.942  0.00  0.00    +0.144 HD
ATOM     27  H   UNL     1     -37.872  21.615   1.737  0.00  0.00    +0.144 HD
ENDBRANCH  22  25
ENDBRANCH  19  22
ENDBRANCH   3  16
TORSDOF 4
ENDMDL
