MODEL 1
REMARK VINA RESULT:      -6.4      0.000      0.000
REMARK  Name = 56940692
REMARK  10 active torsions:
REMARK  status: ('A' for Active; 'I' for Inactive)
REMARK    1  A    between atoms: C_3  and  O_21
REMARK    2  A    between atoms: C_4  and  C_27
REMARK    3  A    between atoms: C_19  and  O_23
REMARK    4  A    between atoms: C_20  and  O_25
REMARK    5  A    between atoms: C_27  and  C_29
REMARK    6  A    between atoms: C_29  and  O_30
REMARK    7  A    between atoms: C_29  and  C_32
REMARK    8  A    between atoms: C_32  and  C_33
REMARK    9  A    between atoms: C_33  and  C_34
REMARK   10  A    between atoms: C_34  and  O_37
REMARK                            x       y       z     vdW  Elec       q    Type
REMARK                         _______ _______ _______ _____ _____    ______ ____
ROOT
ATOM      1  O   UNL     1     -36.464  18.882  -3.567  0.00  0.00    -0.291 OA
ATOM      2  C   UNL     1     -35.521  21.188   1.820  0.00  0.00    +0.026 C 
ATOM      3  C   UNL     1     -36.553  20.319   1.053  0.00  0.00    +0.103 C 
ATOM      4  C   UNL     1     -36.421  21.791   2.930  0.00  0.00    +0.005 C 
ATOM      5  C   UNL     1     -34.667  18.800   0.205  0.00  0.00    +0.021 C 
ATOM      6  C   UNL     1     -33.911  18.265  -1.074  0.00  0.00    +0.013 C 
ATOM      7  C   UNL     1     -35.923  19.619  -0.132  0.00  0.00    -0.018 C 
ATOM      8  C   UNL     1     -34.406  20.271   2.351  0.00  0.00    +0.003 C 
ATOM      9  C   UNL     1     -37.735  21.287   0.891  0.00  0.00    +0.031 C 
ATOM     10  C   UNL     1     -33.710  19.526   1.201  0.00  0.00    +0.004 C 
ATOM     11  C   UNL     1     -37.745  22.109   2.198  0.00  0.00    +0.003 C 
ATOM     12  C   UNL     1     -34.935  17.732  -2.114  0.00  0.00    +0.065 C 
ATOM     13  C   UNL     1     -34.901  22.309   0.941  0.00  0.00    +0.003 C 
ATOM     14  C   UNL     1     -32.926  17.114  -0.718  0.00  0.00    +0.032 C 
ATOM     15  C   UNL     1     -36.486  19.643  -1.349  0.00  0.00    +0.031 C 
ATOM     16  C   UNL     1     -35.632  16.430  -1.680  0.00  0.00    +0.039 C 
ATOM     17  C   UNL     1     -33.073  19.383  -1.752  0.00  0.00    +0.001 C 
ATOM     18  C   UNL     1     -35.981  18.782  -2.441  0.00  0.00    +0.172 C 
ATOM     19  C   UNL     1     -33.623  15.820  -0.288  0.00  0.00    +0.137 C 
ATOM     20  C   UNL     1     -34.622  15.335  -1.340  0.00  0.00    +0.138 C 
ENDROOT
BRANCH   3  21
ATOM     21  O   UNL     1     -37.030  19.265   1.920  0.00  0.00    -0.383 OA
ATOM     22  H   UNL     1     -37.445  19.655   2.704  0.00  0.00    +0.211 HD
ENDBRANCH   3  21
BRANCH  19  23
ATOM     23  O   UNL     1     -32.649  14.801  -0.069  0.00  0.00    -0.382 OA
ATOM     24  H   UNL     1     -32.865  14.025  -0.609  0.00  0.00    +0.210 HD
ENDBRANCH  19  23
BRANCH  20  25
ATOM     25  O   UNL     1     -33.915  14.965  -2.525  0.00  0.00    -0.382 OA
ATOM     26  H   UNL     1     -33.238  14.306  -2.305  0.00  0.00    +0.210 HD
ENDBRANCH  20  25
BRANCH   4  27
ATOM     27  C   UNL     1     -35.859  22.991   3.683  0.00  0.00    +0.027 C 
ATOM     28  C   UNL     1     -35.694  22.633   5.167  0.00  0.00    +0.002 C 
BRANCH  27  29
ATOM     29  C   UNL     1     -36.732  24.254   3.469  0.00  0.00    +0.111 C 
BRANCH  29  30
ATOM     30  O   UNL     1     -37.157  24.781   4.729  0.00  0.00    -0.384 OA
ATOM     31  H   UNL     1     -37.751  25.534   4.580  0.00  0.00    +0.210 HD
ENDBRANCH  29  30
BRANCH  29  32
ATOM     32  C   UNL     1     -36.053  25.411   2.716  0.00  0.00    +0.032 C 
BRANCH  32  33
ATOM     33  C   UNL     1     -34.577  25.599   3.078  0.00  0.00    +0.029 C 
BRANCH  33  34
ATOM     34  C   UNL     1     -34.292  26.636   4.184  0.00  0.00    +0.089 C 
ATOM     35  C   UNL     1     -33.164  27.595   3.800  0.00  0.00    +0.029 C 
ATOM     36  C   UNL     1     -34.002  25.978   5.536  0.00  0.00    +0.029 C 
BRANCH  34  37
ATOM     37  O   UNL     1     -35.492  27.408   4.328  0.00  0.00    -0.387 OA
ATOM     38  H   UNL     1     -35.613  27.964   3.543  0.00  0.00    +0.210 HD
ENDBRANCH  34  37
ENDBRANCH  33  34
ENDBRANCH  32  33
ENDBRANCH  29  32
ENDBRANCH  27  29
ENDBRANCH   4  27
TORSDOF 10
ENDMDL
MODEL 2
REMARK VINA RESULT:      -6.2      1.455      1.733
REMARK  Name = 56940692
REMARK  10 active torsions:
REMARK  status: ('A' for Active; 'I' for Inactive)
REMARK    1  A    between atoms: C_3  and  O_21
REMARK    2  A    between atoms: C_4  and  C_27
REMARK    3  A    between atoms: C_19  and  O_23
REMARK    4  A    between atoms: C_20  and  O_25
REMARK    5  A    between atoms: C_27  and  C_29
REMARK    6  A    between atoms: C_29  and  O_30
REMARK    7  A    between atoms: C_29  and  C_32
REMARK    8  A    between atoms: C_32  and  C_33
REMARK    9  A    between atoms: C_33  and  C_34
REMARK   10  A    between atoms: C_34  and  O_37
REMARK                            x       y       z     vdW  Elec       q    Type
REMARK                         _______ _______ _______ _____ _____    ______ ____
ROOT
ATOM      1  O   UNL     1     -37.438  20.242  -3.230  0.00  0.00    -0.291 OA
ATOM      2  C   UNL     1     -36.072  22.027   2.264  0.00  0.00    +0.026 C 
ATOM      3  C   UNL     1     -37.289  21.552   1.427  0.00  0.00    +0.103 C 
ATOM      4  C   UNL     1     -36.783  22.870   3.354  0.00  0.00    +0.005 C 
ATOM      5  C   UNL     1     -35.954  19.519   0.610  0.00  0.00    +0.021 C 
ATOM      6  C   UNL     1     -35.348  18.790  -0.653  0.00  0.00    +0.013 C 
ATOM      7  C   UNL     1     -36.860  20.706   0.248  0.00  0.00    -0.018 C 
ATOM      8  C   UNL     1     -35.340  20.790   2.811  0.00  0.00    +0.003 C 
ATOM      9  C   UNL     1     -38.087  22.853   1.246  0.00  0.00    +0.031 C 
ATOM     10  C   UNL     1     -34.865  19.879   1.667  0.00  0.00    +0.004 C 
ATOM     11  C   UNL     1     -37.896  23.611   2.578  0.00  0.00    +0.003 C 
ATOM     12  C   UNL     1     -36.436  18.634  -1.751  0.00  0.00    +0.065 C 
ATOM     13  C   UNL     1     -35.081  22.902   1.448  0.00  0.00    +0.003 C 
ATOM     14  C   UNL     1     -34.805  17.376  -0.293  0.00  0.00    +0.032 C 
ATOM     15  C   UNL     1     -37.324  20.931  -0.991  0.00  0.00    +0.031 C 
ATOM     16  C   UNL     1     -37.536  17.620  -1.389  0.00  0.00    +0.039 C 
ATOM     17  C   UNL     1     -34.161  19.588  -1.259  0.00  0.00    +0.001 C 
ATOM     18  C   UNL     1     -37.070  19.972  -2.088  0.00  0.00    +0.172 C 
ATOM     19  C   UNL     1     -35.903  16.370   0.065  0.00  0.00    +0.137 C 
ATOM     20  C   UNL     1     -36.951  16.252  -1.042  0.00  0.00    +0.138 C 
ENDROOT
BRANCH   3  21
ATOM     21  O   UNL     1     -38.124  20.694   2.238  0.00  0.00    -0.383 OA
ATOM     22  H   UNL     1     -38.409  19.931   1.713  0.00  0.00    +0.211 HD
ENDBRANCH   3  21
BRANCH  19  23
ATOM     23  O   UNL     1     -35.321  15.088   0.292  0.00  0.00    -0.382 OA
ATOM     24  H   UNL     1     -34.858  15.089   1.145  0.00  0.00    +0.210 HD
ENDBRANCH  19  23
BRANCH  20  25
ATOM     25  O   UNL     1     -36.342  15.694  -2.208  0.00  0.00    -0.382 OA
ATOM     26  H   UNL     1     -35.733  16.341  -2.597  0.00  0.00    +0.210 HD
ENDBRANCH  20  25
BRANCH   4  27
ATOM     27  C   UNL     1     -35.904  23.811   4.168  0.00  0.00    +0.027 C 
ATOM     28  C   UNL     1     -35.692  23.228   5.572  0.00  0.00    +0.002 C 
BRANCH  27  29
ATOM     29  C   UNL     1     -36.487  25.247   4.201  0.00  0.00    +0.111 C 
BRANCH  29  30
ATOM     30  O   UNL     1     -36.349  25.807   5.510  0.00  0.00    -0.384 OA
ATOM     31  H   UNL     1     -35.937  25.155   6.098  0.00  0.00    +0.210 HD
ENDBRANCH  29  30
BRANCH  29  32
ATOM     32  C   UNL     1     -35.844  26.248   3.225  0.00  0.00    +0.032 C 
BRANCH  32  33
ATOM     33  C   UNL     1     -34.864  27.216   3.894  0.00  0.00    +0.029 C 
BRANCH  33  34
ATOM     34  C   UNL     1     -33.399  26.738   3.959  0.00  0.00    +0.089 C 
ATOM     35  C   UNL     1     -32.415  27.905   4.055  0.00  0.00    +0.029 C 
ATOM     36  C   UNL     1     -33.035  25.820   2.790  0.00  0.00    +0.029 C 
BRANCH  34  37
ATOM     37  O   UNL     1     -33.282  25.969   5.164  0.00  0.00    -0.387 OA
ATOM     38  H   UNL     1     -32.389  25.596   5.224  0.00  0.00    +0.210 HD
ENDBRANCH  34  37
ENDBRANCH  33  34
ENDBRANCH  32  33
ENDBRANCH  29  32
ENDBRANCH  27  29
ENDBRANCH   4  27
TORSDOF 10
ENDMDL
MODEL 3
REMARK VINA RESULT:      -6.0      1.679      2.581
REMARK  Name = 56940692
REMARK  10 active torsions:
REMARK  status: ('A' for Active; 'I' for Inactive)
REMARK    1  A    between atoms: C_3  and  O_21
REMARK    2  A    between atoms: C_4  and  C_27
REMARK    3  A    between atoms: C_19  and  O_23
REMARK    4  A    between atoms: C_20  and  O_25
REMARK    5  A    between atoms: C_27  and  C_29
REMARK    6  A    between atoms: C_29  and  O_30
REMARK    7  A    between atoms: C_29  and  C_32
REMARK    8  A    between atoms: C_32  and  C_33
REMARK    9  A    between atoms: C_33  and  C_34
REMARK   10  A    between atoms: C_34  and  O_37
REMARK                            x       y       z     vdW  Elec       q    Type
REMARK                         _______ _______ _______ _____ _____    ______ ____
ROOT
ATOM      1  O   UNL     1     -37.619  18.140  -2.751  0.00  0.00    -0.291 OA
ATOM      2  C   UNL     1     -35.861  21.597   1.742  0.00  0.00    +0.026 C 
ATOM      3  C   UNL     1     -36.874  20.465   1.427  0.00  0.00    +0.103 C 
ATOM      4  C   UNL     1     -36.567  22.293   2.934  0.00  0.00    +0.005 C 
ATOM      5  C   UNL     1     -35.002  19.060   0.375  0.00  0.00    +0.021 C 
ATOM      6  C   UNL     1     -34.485  18.377  -0.952  0.00  0.00    +0.013 C 
ATOM      7  C   UNL     1     -36.426  19.625   0.250  0.00  0.00    -0.018 C 
ATOM      8  C   UNL     1     -34.509  20.959   2.104  0.00  0.00    +0.003 C 
ATOM      9  C   UNL     1     -38.212  21.219   1.425  0.00  0.00    +0.031 C 
ATOM     10  C   UNL     1     -33.981  20.091   0.950  0.00  0.00    +0.004 C 
ATOM     11  C   UNL     1     -38.060  22.282   2.535  0.00  0.00    +0.003 C 
ATOM     12  C   UNL     1     -35.614  17.516  -1.583  0.00  0.00    +0.065 C 
ATOM     13  C   UNL     1     -35.671  22.586   0.558  0.00  0.00    +0.003 C 
ATOM     14  C   UNL     1     -33.257  17.460  -0.683  0.00  0.00    +0.032 C 
ATOM     15  C   UNL     1     -37.254  19.328  -0.762  0.00  0.00    +0.031 C 
ATOM     16  C   UNL     1     -35.949  16.251  -0.773  0.00  0.00    +0.039 C 
ATOM     17  C   UNL     1     -34.039  19.432  -2.001  0.00  0.00    +0.001 C 
ATOM     18  C   UNL     1     -36.875  18.334  -1.791  0.00  0.00    +0.172 C 
ATOM     19  C   UNL     1     -33.595  16.201   0.122  0.00  0.00    +0.137 C 
ATOM     20  C   UNL     1     -34.711  15.388  -0.535  0.00  0.00    +0.138 C 
ENDROOT
BRANCH   3  21
ATOM     21  O   UNL     1     -36.942  19.557   2.550  0.00  0.00    -0.383 OA
ATOM     22  H   UNL     1     -36.841  18.645   2.235  0.00  0.00    +0.211 HD
ENDBRANCH   3  21
BRANCH  19  23
ATOM     23  O   UNL     1     -32.433  15.383   0.242  0.00  0.00    -0.382 OA
ATOM     24  H   UNL     1     -32.442  14.933   1.100  0.00  0.00    +0.210 HD
ENDBRANCH  19  23
BRANCH  20  25
ATOM     25  O   UNL     1     -34.248  14.879  -1.787  0.00  0.00    -0.382 OA
ATOM     26  H   UNL     1     -34.207  15.600  -2.434  0.00  0.00    +0.210 HD
ENDBRANCH  20  25
BRANCH   4  27
ATOM     27  C   UNL     1     -36.065  23.683   3.305  0.00  0.00    +0.027 C 
ATOM     28  C   UNL     1     -35.194  23.594   4.566  0.00  0.00    +0.002 C 
BRANCH  27  29
ATOM     29  C   UNL     1     -37.236  24.687   3.458  0.00  0.00    +0.111 C 
BRANCH  29  30
ATOM     30  O   UNL     1     -37.253  25.228   4.783  0.00  0.00    -0.384 OA
ATOM     31  H   UNL     1     -36.708  24.675   5.364  0.00  0.00    +0.210 HD
ENDBRANCH  29  30
BRANCH  29  32
ATOM     32  C   UNL     1     -37.215  25.886   2.495  0.00  0.00    +0.032 C 
BRANCH  32  33
ATOM     33  C   UNL     1     -38.279  25.810   1.396  0.00  0.00    +0.029 C 
BRANCH  33  34
ATOM     34  C   UNL     1     -39.729  26.060   1.858  0.00  0.00    +0.089 C 
ATOM     35  C   UNL     1     -40.531  24.763   1.972  0.00  0.00    +0.029 C 
ATOM     36  C   UNL     1     -40.458  27.068   0.966  0.00  0.00    +0.029 C 
BRANCH  34  37
ATOM     37  O   UNL     1     -39.637  26.633   3.170  0.00  0.00    -0.387 OA
ATOM     38  H   UNL     1     -38.918  26.205   3.660  0.00  0.00    +0.210 HD
ENDBRANCH  34  37
ENDBRANCH  33  34
ENDBRANCH  32  33
ENDBRANCH  29  32
ENDBRANCH  27  29
ENDBRANCH   4  27
TORSDOF 10
ENDMDL
MODEL 4
REMARK VINA RESULT:      -5.9      1.973      3.069
REMARK  Name = 56940692
REMARK  10 active torsions:
REMARK  status: ('A' for Active; 'I' for Inactive)
REMARK    1  A    between atoms: C_3  and  O_21
REMARK    2  A    between atoms: C_4  and  C_27
REMARK    3  A    between atoms: C_19  and  O_23
REMARK    4  A    between atoms: C_20  and  O_25
REMARK    5  A    between atoms: C_27  and  C_29
REMARK    6  A    between atoms: C_29  and  O_30
REMARK    7  A    between atoms: C_29  and  C_32
REMARK    8  A    between atoms: C_32  and  C_33
REMARK    9  A    between atoms: C_33  and  C_34
REMARK   10  A    between atoms: C_34  and  O_37
REMARK                            x       y       z     vdW  Elec       q    Type
REMARK                         _______ _______ _______ _____ _____    ______ ____
ROOT
ATOM      1  O   UNL     1     -30.665  20.634  -0.514  0.00  0.00    -0.291 OA
ATOM      2  C   UNL     1     -35.958  22.192   1.672  0.00  0.00    +0.026 C 
ATOM      3  C   UNL     1     -35.043  22.457   0.448  0.00  0.00    +0.103 C 
ATOM      4  C   UNL     1     -36.799  23.495   1.693  0.00  0.00    +0.005 C 
ATOM      5  C   UNL     1     -34.738  19.933   0.107  0.00  0.00    +0.021 C 
ATOM      6  C   UNL     1     -33.697  18.745   0.084  0.00  0.00    +0.013 C 
ATOM      7  C   UNL     1     -34.077  21.316   0.214  0.00  0.00    -0.018 C 
ATOM      8  C   UNL     1     -36.784  20.923   1.401  0.00  0.00    +0.003 C 
ATOM      9  C   UNL     1     -34.558  23.891   0.711  0.00  0.00    +0.031 C 
ATOM     10  C   UNL     1     -35.869  19.711   1.159  0.00  0.00    +0.004 C 
ATOM     11  C   UNL     1     -35.772  24.600   1.351  0.00  0.00    +0.003 C 
ATOM     12  C   UNL     1     -32.495  19.109  -0.831  0.00  0.00    +0.065 C 
ATOM     13  C   UNL     1     -35.165  22.025   2.998  0.00  0.00    +0.003 C 
ATOM     14  C   UNL     1     -34.340  17.431  -0.445  0.00  0.00    +0.032 C 
ATOM     15  C   UNL     1     -32.767  21.527   0.020  0.00  0.00    +0.031 C 
ATOM     16  C   UNL     1     -32.851  19.150  -2.328  0.00  0.00    +0.039 C 
ATOM     17  C   UNL     1     -33.147  18.440   1.504  0.00  0.00    +0.001 C 
ATOM     18  C   UNL     1     -31.875  20.432  -0.420  0.00  0.00    +0.172 C 
ATOM     19  C   UNL     1     -34.691  17.475  -1.935  0.00  0.00    +0.137 C 
ATOM     20  C   UNL     1     -33.480  17.839  -2.795  0.00  0.00    +0.138 C 
ENDROOT
BRANCH   3  21
ATOM     21  O   UNL     1     -35.852  22.534  -0.748  0.00  0.00    -0.383 OA
ATOM     22  H   UNL     1     -35.450  21.992  -1.444  0.00  0.00    +0.211 HD
ENDBRANCH   3  21
BRANCH  19  23
ATOM     23  O   UNL     1     -35.189  16.204  -2.348  0.00  0.00    -0.382 OA
ATOM     24  H   UNL     1     -36.152  16.182  -2.237  0.00  0.00    +0.210 HD
ENDBRANCH  19  23
BRANCH  20  25
ATOM     25  O   UNL     1     -32.508  16.795  -2.704  0.00  0.00    -0.382 OA
ATOM     26  H   UNL     1     -32.312  16.457  -3.592  0.00  0.00    +0.210 HD
ENDBRANCH  20  25
BRANCH   4  27
ATOM     27  C   UNL     1     -37.574  23.785   2.972  0.00  0.00    +0.027 C 
ATOM     28  C   UNL     1     -39.070  23.905   2.648  0.00  0.00    +0.002 C 
BRANCH  27  29
ATOM     29  C   UNL     1     -37.020  25.036   3.701  0.00  0.00    +0.111 C 
BRANCH  29  30
ATOM     30  O   UNL     1     -38.080  25.955   3.981  0.00  0.00    -0.384 OA
ATOM     31  H   UNL     1     -37.704  26.807   4.254  0.00  0.00    +0.210 HD
ENDBRANCH  29  30
BRANCH  29  32
ATOM     32  C   UNL     1     -36.308  24.766   5.037  0.00  0.00    +0.032 C 
BRANCH  32  33
ATOM     33  C   UNL     1     -35.600  25.993   5.615  0.00  0.00    +0.029 C 
BRANCH  33  34
ATOM     34  C   UNL     1     -34.135  26.185   5.172  0.00  0.00    +0.089 C 
ATOM     35  C   UNL     1     -33.254  26.721   6.303  0.00  0.00    +0.029 C 
ATOM     36  C   UNL     1     -34.014  27.070   3.930  0.00  0.00    +0.029 C 
BRANCH  34  37
ATOM     37  O   UNL     1     -33.649  24.881   4.822  0.00  0.00    -0.387 OA
ATOM     38  H   UNL     1     -33.150  24.934   3.993  0.00  0.00    +0.210 HD
ENDBRANCH  34  37
ENDBRANCH  33  34
ENDBRANCH  32  33
ENDBRANCH  29  32
ENDBRANCH  27  29
ENDBRANCH   4  27
TORSDOF 10
ENDMDL
MODEL 5
REMARK VINA RESULT:      -5.9      2.028      2.726
REMARK  Name = 56940692
REMARK  10 active torsions:
REMARK  status: ('A' for Active; 'I' for Inactive)
REMARK    1  A    between atoms: C_3  and  O_21
REMARK    2  A    between atoms: C_4  and  C_27
REMARK    3  A    between atoms: C_19  and  O_23
REMARK    4  A    between atoms: C_20  and  O_25
REMARK    5  A    between atoms: C_27  and  C_29
REMARK    6  A    between atoms: C_29  and  O_30
REMARK    7  A    between atoms: C_29  and  C_32
REMARK    8  A    between atoms: C_32  and  C_33
REMARK    9  A    between atoms: C_33  and  C_34
REMARK   10  A    between atoms: C_34  and  O_37
REMARK                            x       y       z     vdW  Elec       q    Type
REMARK                         _______ _______ _______ _____ _____    ______ ____
ROOT
ATOM      1  O   UNL     1     -36.261  17.766  -2.455  0.00  0.00    -0.291 OA
ATOM      2  C   UNL     1     -36.572  22.126   1.560  0.00  0.00    +0.026 C 
ATOM      3  C   UNL     1     -37.035  20.661   1.345  0.00  0.00    +0.103 C 
ATOM      4  C   UNL     1     -37.648  22.625   2.559  0.00  0.00    +0.005 C 
ATOM      5  C   UNL     1     -34.646  19.984   0.699  0.00  0.00    +0.021 C 
ATOM      6  C   UNL     1     -33.729  19.408  -0.452  0.00  0.00    +0.013 C 
ATOM      7  C   UNL     1     -36.145  19.932   0.362  0.00  0.00    -0.018 C 
ATOM      8  C   UNL     1     -35.146  22.110   2.137  0.00  0.00    +0.003 C 
ATOM      9  C   UNL     1     -38.543  20.830   1.105  0.00  0.00    +0.031 C 
ATOM     10  C   UNL     1     -34.175  21.389   1.187  0.00  0.00    +0.004 C 
ATOM     11  C   UNL     1     -38.957  21.988   2.039  0.00  0.00    +0.003 C 
ATOM     12  C   UNL     1     -34.355  18.110  -1.032  0.00  0.00    +0.065 C 
ATOM     13  C   UNL     1     -36.598  22.968   0.254  0.00  0.00    +0.003 C 
ATOM     14  C   UNL     1     -32.300  19.078   0.067  0.00  0.00    +0.032 C 
ATOM     15  C   UNL     1     -36.650  19.223  -0.659  0.00  0.00    +0.031 C 
ATOM     16  C   UNL     1     -34.307  16.916  -0.062  0.00  0.00    +0.039 C 
ATOM     17  C   UNL     1     -33.565  20.425  -1.614  0.00  0.00    +0.001 C 
ATOM     18  C   UNL     1     -35.787  18.343  -1.478  0.00  0.00    +0.172 C 
ATOM     19  C   UNL     1     -32.256  17.888   1.031  0.00  0.00    +0.137 C 
ATOM     20  C   UNL     1     -32.884  16.635   0.419  0.00  0.00    +0.138 C 
ENDROOT
BRANCH   3  21
ATOM     21  O   UNL     1     -36.919  19.934   2.589  0.00  0.00    -0.383 OA
ATOM     22  H   UNL     1     -37.341  20.440   3.300  0.00  0.00    +0.211 HD
ENDBRANCH   3  21
BRANCH  19  23
ATOM     23  O   UNL     1     -30.902  17.606   1.381  0.00  0.00    -0.382 OA
ATOM     24  H   UNL     1     -30.363  18.403   1.257  0.00  0.00    +0.210 HD
ENDBRANCH  19  23
BRANCH  20  25
ATOM     25  O   UNL     1     -32.091  16.206  -0.690  0.00  0.00    -0.382 OA
ATOM     26  H   UNL     1     -31.785  15.299  -0.537  0.00  0.00    +0.210 HD
ENDBRANCH  20  25
BRANCH   4  27
ATOM     27  C   UNL     1     -37.758  24.134   2.744  0.00  0.00    +0.027 C 
ATOM     28  C   UNL     1     -37.049  24.544   4.043  0.00  0.00    +0.002 C 
BRANCH  27  29
ATOM     29  C   UNL     1     -39.233  24.605   2.696  0.00  0.00    +0.111 C 
BRANCH  29  30
ATOM     30  O   UNL     1     -39.719  24.847   4.020  0.00  0.00    -0.384 OA
ATOM     31  H   UNL     1     -39.039  24.593   4.665  0.00  0.00    +0.210 HD
ENDBRANCH  29  30
BRANCH  29  32
ATOM     32  C   UNL     1     -39.495  25.890   1.891  0.00  0.00    +0.032 C 
BRANCH  32  33
ATOM     33  C   UNL     1     -38.634  26.012   0.632  0.00  0.00    +0.029 C 
BRANCH  33  34
ATOM     34  C   UNL     1     -37.575  27.133   0.658  0.00  0.00    +0.089 C 
ATOM     35  C   UNL     1     -38.019  28.365  -0.133  0.00  0.00    +0.029 C 
ATOM     36  C   UNL     1     -36.204  26.650   0.178  0.00  0.00    +0.029 C 
BRANCH  34  37
ATOM     37  O   UNL     1     -37.439  27.523   2.031  0.00  0.00    -0.387 OA
ATOM     38  H   UNL     1     -38.258  27.949   2.329  0.00  0.00    +0.210 HD
ENDBRANCH  34  37
ENDBRANCH  33  34
ENDBRANCH  32  33
ENDBRANCH  29  32
ENDBRANCH  27  29
ENDBRANCH   4  27
TORSDOF 10
ENDMDL
MODEL 6
REMARK VINA RESULT:      -5.8      3.402      7.120
REMARK  Name = 56940692
REMARK  10 active torsions:
REMARK  status: ('A' for Active; 'I' for Inactive)
REMARK    1  A    between atoms: C_3  and  O_21
REMARK    2  A    between atoms: C_4  and  C_27
REMARK    3  A    between atoms: C_19  and  O_23
REMARK    4  A    between atoms: C_20  and  O_25
REMARK    5  A    between atoms: C_27  and  C_29
REMARK    6  A    between atoms: C_29  and  O_30
REMARK    7  A    between atoms: C_29  and  C_32
REMARK    8  A    between atoms: C_32  and  C_33
REMARK    9  A    between atoms: C_33  and  C_34
REMARK   10  A    between atoms: C_34  and  O_37
REMARK                            x       y       z     vdW  Elec       q    Type
REMARK                         _______ _______ _______ _____ _____    ______ ____
ROOT
ATOM      1  O   UNL     1     -35.952  22.867   5.965  0.00  0.00    -0.291 OA
ATOM      2  C   UNL     1     -34.681  26.976   1.875  0.00  0.00    +0.026 C 
ATOM      3  C   UNL     1     -33.985  25.897   2.745  0.00  0.00    +0.103 C 
ATOM      4  C   UNL     1     -33.502  27.953   1.627  0.00  0.00    +0.005 C 
ATOM      5  C   UNL     1     -35.713  24.154   1.996  0.00  0.00    +0.021 C 
ATOM      6  C   UNL     1     -36.861  23.181   2.473  0.00  0.00    +0.013 C 
ATOM      7  C   UNL     1     -34.948  24.806   3.159  0.00  0.00    -0.018 C 
ATOM      8  C   UNL     1     -35.215  26.307   0.597  0.00  0.00    +0.003 C 
ATOM      9  C   UNL     1     -33.230  26.750   3.776  0.00  0.00    +0.031 C 
ATOM     10  C   UNL     1     -36.210  25.185   0.936  0.00  0.00    +0.004 C 
ATOM     11  C   UNL     1     -32.767  27.993   2.987  0.00  0.00    +0.003 C 
ATOM     12  C   UNL     1     -36.364  22.314   3.663  0.00  0.00    +0.065 C 
ATOM     13  C   UNL     1     -35.846  27.692   2.614  0.00  0.00    +0.003 C 
ATOM     14  C   UNL     1     -37.319  22.231   1.329  0.00  0.00    +0.032 C 
ATOM     15  C   UNL     1     -35.039  24.388   4.430  0.00  0.00    +0.031 C 
ATOM     16  C   UNL     1     -35.308  21.268   3.264  0.00  0.00    +0.039 C 
ATOM     17  C   UNL     1     -38.118  23.965   2.940  0.00  0.00    +0.001 C 
ATOM     18  C   UNL     1     -35.820  23.182   4.783  0.00  0.00    +0.172 C 
ATOM     19  C   UNL     1     -36.266  21.191   0.936  0.00  0.00    +0.137 C 
ATOM     20  C   UNL     1     -35.805  20.364   2.137  0.00  0.00    +0.138 C 
ENDROOT
BRANCH   3  21
ATOM     21  O   UNL     1     -32.962  25.238   1.963  0.00  0.00    -0.383 OA
ATOM     22  H   UNL     1     -33.256  24.343   1.736  0.00  0.00    +0.211 HD
ENDBRANCH   3  21
BRANCH  19  23
ATOM     23  O   UNL     1     -36.805  20.314  -0.052  0.00  0.00    -0.382 OA
ATOM     24  H   UNL     1     -37.345  20.823  -0.677  0.00  0.00    +0.210 HD
ENDBRANCH  19  23
BRANCH  20  25
ATOM     25  O   UNL     1     -36.900  19.579   2.615  0.00  0.00    -0.382 OA
ATOM     26  H   UNL     1     -37.163  18.942   1.932  0.00  0.00    +0.210 HD
ENDBRANCH  20  25
BRANCH   4  27
ATOM     27  C   UNL     1     -33.865  29.340   1.110  0.00  0.00    +0.027 C 
ATOM     28  C   UNL     1     -33.376  29.491  -0.337  0.00  0.00    +0.002 C 
BRANCH  27  29
ATOM     29  C   UNL     1     -33.321  30.453   2.042  0.00  0.00    +0.111 C 
BRANCH  29  30
ATOM     30  O   UNL     1     -32.125  31.016   1.494  0.00  0.00    -0.384 OA
ATOM     31  H   UNL     1     -32.115  30.880   0.534  0.00  0.00    +0.210 HD
ENDBRANCH  29  30
BRANCH  29  32
ATOM     32  C   UNL     1     -34.279  31.627   2.305  0.00  0.00    +0.032 C 
BRANCH  32  33
ATOM     33  C   UNL     1     -35.735  31.199   2.506  0.00  0.00    +0.029 C 
BRANCH  33  34
ATOM     34  C   UNL     1     -36.713  31.626   1.392  0.00  0.00    +0.089 C 
ATOM     35  C   UNL     1     -35.989  32.238   0.191  0.00  0.00    +0.029 C 
ATOM     36  C   UNL     1     -37.800  32.573   1.905  0.00  0.00    +0.029 C 
BRANCH  34  37
ATOM     37  O   UNL     1     -37.360  30.427   0.946  0.00  0.00    -0.387 OA
ATOM     38  H   UNL     1     -36.802  29.662   1.155  0.00  0.00    +0.210 HD
ENDBRANCH  34  37
ENDBRANCH  33  34
ENDBRANCH  32  33
ENDBRANCH  29  32
ENDBRANCH  27  29
ENDBRANCH   4  27
TORSDOF 10
ENDMDL
MODEL 7
REMARK VINA RESULT:      -5.8      2.762      9.737
REMARK  Name = 56940692
REMARK  10 active torsions:
REMARK  status: ('A' for Active; 'I' for Inactive)
REMARK    1  A    between atoms: C_3  and  O_21
REMARK    2  A    between atoms: C_4  and  C_27
REMARK    3  A    between atoms: C_19  and  O_23
REMARK    4  A    between atoms: C_20  and  O_25
REMARK    5  A    between atoms: C_27  and  C_29
REMARK    6  A    between atoms: C_29  and  O_30
REMARK    7  A    between atoms: C_29  and  C_32
REMARK    8  A    between atoms: C_32  and  C_33
REMARK    9  A    between atoms: C_33  and  C_34
REMARK   10  A    between atoms: C_34  and  O_37
REMARK                            x       y       z     vdW  Elec       q    Type
REMARK                         _______ _______ _______ _____ _____    ______ ____
ROOT
ATOM      1  O   UNL     1     -32.538  29.092   3.934  0.00  0.00    -0.291 OA
ATOM      2  C   UNL     1     -36.095  24.695   2.135  0.00  0.00    +0.026 C 
ATOM      3  C   UNL     1     -35.907  25.672   3.325  0.00  0.00    +0.103 C 
ATOM      4  C   UNL     1     -36.840  23.528   2.834  0.00  0.00    +0.005 C 
ATOM      5  C   UNL     1     -35.762  27.651   1.699  0.00  0.00    +0.021 C 
ATOM      6  C   UNL     1     -34.846  28.818   1.156  0.00  0.00    +0.013 C 
ATOM      7  C   UNL     1     -35.161  26.921   2.910  0.00  0.00    -0.018 C 
ATOM      8  C   UNL     1     -36.923  25.401   1.047  0.00  0.00    +0.003 C 
ATOM      9  C   UNL     1     -35.382  24.741   4.429  0.00  0.00    +0.031 C 
ATOM     10  C   UNL     1     -36.224  26.683   0.566  0.00  0.00    +0.004 C 
ATOM     11  C   UNL     1     -36.136  23.412   4.205  0.00  0.00    +0.003 C 
ATOM     12  C   UNL     1     -34.258  29.629   2.344  0.00  0.00    +0.065 C 
ATOM     13  C   UNL     1     -34.748  24.208   1.532  0.00  0.00    +0.003 C 
ATOM     14  C   UNL     1     -35.641  29.792   0.239  0.00  0.00    +0.032 C 
ATOM     15  C   UNL     1     -34.120  27.391   3.615  0.00  0.00    +0.031 C 
ATOM     16  C   UNL     1     -35.306  30.471   3.093  0.00  0.00    +0.039 C 
ATOM     17  C   UNL     1     -33.662  28.269   0.314  0.00  0.00    +0.001 C 
ATOM     18  C   UNL     1     -33.541  28.721   3.326  0.00  0.00    +0.172 C 
ATOM     19  C   UNL     1     -36.682  30.629   0.989  0.00  0.00    +0.137 C 
ATOM     20  C   UNL     1     -36.059  31.407   2.149  0.00  0.00    +0.138 C 
ENDROOT
BRANCH   3  21
ATOM     21  O   UNL     1     -37.201  26.125   3.782  0.00  0.00    -0.383 OA
ATOM     22  H   UNL     1     -37.768  26.308   3.017  0.00  0.00    +0.211 HD
ENDBRANCH   3  21
BRANCH  19  23
ATOM     23  O   UNL     1     -37.294  31.549   0.088  0.00  0.00    -0.382 OA
ATOM     24  H   UNL     1     -37.908  31.073  -0.493  0.00  0.00    +0.210 HD
ENDBRANCH  19  23
BRANCH  20  25
ATOM     25  O   UNL     1     -35.149  32.378   1.628  0.00  0.00    -0.382 OA
ATOM     26  H   UNL     1     -35.494  32.729   0.791  0.00  0.00    +0.210 HD
ENDBRANCH  20  25
BRANCH   4  27
ATOM     27  C   UNL     1     -36.890  22.204   2.081  0.00  0.00    +0.027 C 
ATOM     28  C   UNL     1     -38.352  21.830   1.799  0.00  0.00    +0.002 C 
BRANCH  27  29
ATOM     29  C   UNL     1     -36.126  21.090   2.841  0.00  0.00    +0.111 C 
BRANCH  29  30
ATOM     30  O   UNL     1     -36.851  19.859   2.775  0.00  0.00    -0.384 OA
ATOM     31  H   UNL     1     -36.465  19.294   2.087  0.00  0.00    +0.210 HD
ENDBRANCH  29  30
BRANCH  29  32
ATOM     32  C   UNL     1     -34.706  20.791   2.331  0.00  0.00    +0.032 C 
BRANCH  32  33
ATOM     33  C   UNL     1     -34.637  20.525   0.825  0.00  0.00    +0.029 C 
BRANCH  33  34
ATOM     34  C   UNL     1     -34.259  19.084   0.422  0.00  0.00    +0.089 C 
ATOM     35  C   UNL     1     -33.151  18.509   1.307  0.00  0.00    +0.029 C 
ATOM     36  C   UNL     1     -33.878  18.975  -1.056  0.00  0.00    +0.029 C 
BRANCH  34  37
ATOM     37  O   UNL     1     -35.435  18.290   0.625  0.00  0.00    -0.387 OA
ATOM     38  H   UNL     1     -35.592  18.182   1.576  0.00  0.00    +0.210 HD
ENDBRANCH  34  37
ENDBRANCH  33  34
ENDBRANCH  32  33
ENDBRANCH  29  32
ENDBRANCH  27  29
ENDBRANCH   4  27
TORSDOF 10
ENDMDL
MODEL 8
REMARK VINA RESULT:      -5.8      1.674      2.226
REMARK  Name = 56940692
REMARK  10 active torsions:
REMARK  status: ('A' for Active; 'I' for Inactive)
REMARK    1  A    between atoms: C_3  and  O_21
REMARK    2  A    between atoms: C_4  and  C_27
REMARK    3  A    between atoms: C_19  and  O_23
REMARK    4  A    between atoms: C_20  and  O_25
REMARK    5  A    between atoms: C_27  and  C_29
REMARK    6  A    between atoms: C_29  and  O_30
REMARK    7  A    between atoms: C_29  and  C_32
REMARK    8  A    between atoms: C_32  and  C_33
REMARK    9  A    between atoms: C_33  and  C_34
REMARK   10  A    between atoms: C_34  and  O_37
REMARK                            x       y       z     vdW  Elec       q    Type
REMARK                         _______ _______ _______ _____ _____    ______ ____
ROOT
ATOM      1  O   UNL     1     -33.165  17.775  -4.377  0.00  0.00    -0.291 OA
ATOM      2  C   UNL     1     -34.541  20.117   0.900  0.00  0.00    +0.026 C 
ATOM      3  C   UNL     1     -35.155  19.227  -0.211  0.00  0.00    +0.103 C 
ATOM      4  C   UNL     1     -35.824  20.707   1.540  0.00  0.00    +0.005 C 
ATOM      5  C   UNL     1     -33.064  17.739  -0.199  0.00  0.00    +0.021 C 
ATOM      6  C   UNL     1     -31.844  17.214  -1.052  0.00  0.00    +0.013 C 
ATOM      7  C   UNL     1     -34.086  18.534  -1.028  0.00  0.00    -0.018 C 
ATOM      8  C   UNL     1     -33.726  19.222   1.851  0.00  0.00    +0.003 C 
ATOM      9  C   UNL     1     -36.183  20.172  -0.853  0.00  0.00    +0.031 C 
ATOM     10  C   UNL     1     -32.609  18.486   1.093  0.00  0.00    +0.004 C 
ATOM     11  C   UNL     1     -36.739  20.998   0.328  0.00  0.00    +0.003 C 
ATOM     12  C   UNL     1     -32.345  16.658  -2.414  0.00  0.00    +0.065 C 
ATOM     13  C   UNL     1     -33.633  21.247   0.340  0.00  0.00    +0.003 C 
ATOM     14  C   UNL     1     -31.073  16.082  -0.312  0.00  0.00    +0.032 C 
ATOM     15  C   UNL     1     -34.103  18.544  -2.369  0.00  0.00    +0.031 C 
ATOM     16  C   UNL     1     -33.138  15.345  -2.289  0.00  0.00    +0.039 C 
ATOM     17  C   UNL     1     -30.820  18.345  -1.341  0.00  0.00    +0.001 C 
ATOM     18  C   UNL     1     -33.183  17.688  -3.150  0.00  0.00    +0.172 C 
ATOM     19  C   UNL     1     -31.865  14.777  -0.191  0.00  0.00    +0.137 C 
ATOM     20  C   UNL     1     -32.339  14.270  -1.554  0.00  0.00    +0.138 C 
ENDROOT
BRANCH   3  21
ATOM     21  O   UNL     1     -35.929  18.167   0.396  0.00  0.00    -0.383 OA
ATOM     22  H   UNL     1     -36.704  18.546   0.838  0.00  0.00    +0.211 HD
ENDBRANCH   3  21
BRANCH  19  23
ATOM     23  O   UNL     1     -31.049  13.778   0.418  0.00  0.00    -0.382 OA
ATOM     24  H   UNL     1     -30.374  13.482  -0.213  0.00  0.00    +0.210 HD
ENDBRANCH  19  23
BRANCH  20  25
ATOM     25  O   UNL     1     -31.203  13.910  -2.343  0.00  0.00    -0.382 OA
ATOM     26  H   UNL     1     -30.394  14.045  -1.825  0.00  0.00    +0.210 HD
ENDBRANCH  20  25
BRANCH   4  27
ATOM     27  C   UNL     1     -35.638  21.920   2.444  0.00  0.00    +0.027 C 
ATOM     28  C   UNL     1     -35.433  21.453   3.892  0.00  0.00    +0.002 C 
BRANCH  27  29
ATOM     29  C   UNL     1     -36.814  22.920   2.301  0.00  0.00    +0.111 C 
BRANCH  29  30
ATOM     30  O   UNL     1     -37.665  22.849   3.449  0.00  0.00    -0.384 OA
ATOM     31  H   UNL     1     -37.348  22.152   4.044  0.00  0.00    +0.210 HD
ENDBRANCH  29  30
BRANCH  29  32
ATOM     32  C   UNL     1     -36.416  24.397   2.140  0.00  0.00    +0.032 C 
BRANCH  32  33
ATOM     33  C   UNL     1     -36.748  25.260   3.359  0.00  0.00    +0.029 C 
BRANCH  33  34
ATOM     34  C   UNL     1     -35.553  25.615   4.268  0.00  0.00    +0.089 C 
ATOM     35  C   UNL     1     -34.212  25.430   3.556  0.00  0.00    +0.029 C 
ATOM     36  C   UNL     1     -35.575  24.840   5.587  0.00  0.00    +0.029 C 
BRANCH  34  37
ATOM     37  O   UNL     1     -35.690  27.007   4.583  0.00  0.00    -0.387 OA
ATOM     38  H   UNL     1     -36.505  27.350   4.184  0.00  0.00    +0.210 HD
ENDBRANCH  34  37
ENDBRANCH  33  34
ENDBRANCH  32  33
ENDBRANCH  29  32
ENDBRANCH  27  29
ENDBRANCH   4  27
TORSDOF 10
ENDMDL
MODEL 9
REMARK VINA RESULT:      -5.6      2.682     10.206
REMARK  Name = 56940692
REMARK  10 active torsions:
REMARK  status: ('A' for Active; 'I' for Inactive)
REMARK    1  A    between atoms: C_3  and  O_21
REMARK    2  A    between atoms: C_4  and  C_27
REMARK    3  A    between atoms: C_19  and  O_23
REMARK    4  A    between atoms: C_20  and  O_25
REMARK    5  A    between atoms: C_27  and  C_29
REMARK    6  A    between atoms: C_29  and  O_30
REMARK    7  A    between atoms: C_29  and  C_32
REMARK    8  A    between atoms: C_32  and  C_33
REMARK    9  A    between atoms: C_33  and  C_34
REMARK   10  A    between atoms: C_34  and  O_37
REMARK                            x       y       z     vdW  Elec       q    Type
REMARK                         _______ _______ _______ _____ _____    ______ ____
ROOT
ATOM      1  O   UNL     1     -30.614  28.060   6.367  0.00  0.00    -0.291 OA
ATOM      2  C   UNL     1     -34.869  25.663   2.994  0.00  0.00    +0.026 C 
ATOM      3  C   UNL     1     -34.691  26.436   4.327  0.00  0.00    +0.103 C 
ATOM      4  C   UNL     1     -36.199  24.914   3.269  0.00  0.00    +0.005 C 
ATOM      5  C   UNL     1     -33.258  28.198   3.133  0.00  0.00    +0.021 C 
ATOM      6  C   UNL     1     -31.831  28.869   3.053  0.00  0.00    +0.013 C 
ATOM      7  C   UNL     1     -33.417  27.252   4.334  0.00  0.00    -0.018 C 
ATOM      8  C   UNL     1     -34.954  26.681   1.844  0.00  0.00    +0.003 C 
ATOM      9  C   UNL     1     -34.962  25.344   5.373  0.00  0.00    +0.031 C 
ATOM     10  C   UNL     1     -33.686  27.549   1.780  0.00  0.00    +0.004 C 
ATOM     11  C   UNL     1     -36.073  24.474   4.746  0.00  0.00    +0.003 C 
ATOM     12  C   UNL     1     -31.374  29.321   4.468  0.00  0.00    +0.065 C 
ATOM     13  C   UNL     1     -33.716  24.658   2.718  0.00  0.00    +0.003 C 
ATOM     14  C   UNL     1     -31.834  30.112   2.116  0.00  0.00    +0.032 C 
ATOM     15  C   UNL     1     -32.557  27.212   5.363  0.00  0.00    +0.031 C 
ATOM     16  C   UNL     1     -32.174  30.514   5.021  0.00  0.00    +0.039 C 
ATOM     17  C   UNL     1     -30.767  27.885   2.495  0.00  0.00    +0.001 C 
ATOM     18  C   UNL     1     -31.433  28.170   5.456  0.00  0.00    +0.172 C 
ATOM     19  C   UNL     1     -32.629  31.297   2.671  0.00  0.00    +0.137 C 
ATOM     20  C   UNL     1     -32.147  31.705   4.064  0.00  0.00    +0.138 C 
ENDROOT
BRANCH   3  21
ATOM     21  O   UNL     1     -35.766  27.391   4.474  0.00  0.00    -0.383 OA
ATOM     22  H   UNL     1     -36.605  26.974   4.223  0.00  0.00    +0.211 HD
ENDBRANCH   3  21
BRANCH  19  23
ATOM     23  O   UNL     1     -32.501  32.412   1.791  0.00  0.00    -0.382 OA
ATOM     24  H   UNL     1     -33.201  32.377   1.119  0.00  0.00    +0.210 HD
ENDBRANCH  19  23
BRANCH  20  25
ATOM     25  O   UNL     1     -30.811  32.202   3.972  0.00  0.00    -0.382 OA
ATOM     26  H   UNL     1     -30.395  32.175   4.849  0.00  0.00    +0.210 HD
ENDBRANCH  20  25
BRANCH   4  27
ATOM     27  C   UNL     1     -36.535  23.758   2.335  0.00  0.00    +0.027 C 
ATOM     28  C   UNL     1     -37.772  24.118   1.500  0.00  0.00    +0.002 C 
BRANCH  27  29
ATOM     29  C   UNL     1     -36.708  22.430   3.115  0.00  0.00    +0.111 C 
BRANCH  29  30
ATOM     30  O   UNL     1     -37.942  21.802   2.755  0.00  0.00    -0.384 OA
ATOM     31  H   UNL     1     -38.638  22.474   2.687  0.00  0.00    +0.210 HD
ENDBRANCH  29  30
BRANCH  29  32
ATOM     32  C   UNL     1     -35.603  21.383   2.898  0.00  0.00    +0.032 C 
BRANCH  32  33
ATOM     33  C   UNL     1     -35.121  21.287   1.448  0.00  0.00    +0.029 C 
BRANCH  33  34
ATOM     34  C   UNL     1     -34.377  19.988   1.079  0.00  0.00    +0.089 C 
ATOM     35  C   UNL     1     -32.997  20.263   0.478  0.00  0.00    +0.029 C 
ATOM     36  C   UNL     1     -35.198  19.090   0.151  0.00  0.00    +0.029 C 
BRANCH  34  37
ATOM     37  O   UNL     1     -34.183  19.276   2.309  0.00  0.00    -0.387 OA
ATOM     38  H   UNL     1     -33.416  18.688   2.224  0.00  0.00    +0.210 HD
ENDBRANCH  34  37
ENDBRANCH  33  34
ENDBRANCH  32  33
ENDBRANCH  29  32
ENDBRANCH  27  29
ENDBRANCH   4  27
TORSDOF 10
ENDMDL
