MODEL 1
REMARK VINA RESULT:      -6.1      0.000      0.000
REMARK  Name = 512591
REMARK  5 active torsions:
REMARK  status: ('A' for Active; 'I' for Inactive)
REMARK    1  A    between atoms: N_1  and  C1*_11
REMARK    2  A    between atoms: C_6  and  C_23
REMARK    3  A    between atoms: C3*_12  and  O3*_15
REMARK    4  A    between atoms: C4*_14  and  C5*_17
REMARK    5  A    between atoms: C5*_17  and  O5*_18
REMARK                            x       y       z     vdW  Elec       q    Type
REMARK                         _______ _______ _______ _____ _____    ______ ____
ROOT
ATOM      1  N   UNL     1     -36.407  22.536   2.669  0.00  0.00    -0.216 N 
ATOM      2  N   UNL     1     -37.605  20.990   1.589  0.00  0.00    -0.373 NA
ATOM      3  N   UNL     1     -38.158  24.151   3.149  0.00  0.00    -0.227 NA
ATOM      4  N   UNL     1     -40.317  23.406   2.289  0.00  0.00    -0.227 NA
ATOM      5  C   UNL     1     -37.695  23.000   2.638  0.00  0.00    +0.169 C 
ATOM      6  C   UNL     1     -36.408  21.325   2.023  0.00  0.00    +0.233 C 
ATOM      7  C   UNL     1     -38.419  22.029   1.966  0.00  0.00    +0.196 C 
ATOM      8  C   UNL     1     -39.780  22.263   1.798  0.00  0.00    +0.155 C 
ATOM      9  C   UNL     1     -39.485  24.266   2.925  0.00  0.00    +0.253 C 
ATOM     10  N   UNL     1     -40.592  21.332   1.128  0.00  0.00    -0.341 N 
ATOM     11  H   UNL     1     -41.554  21.508   1.015  0.00  0.00    +0.144 HD
ATOM     12  H   UNL     1     -40.199  20.502   0.772  0.00  0.00    +0.144 HD
ENDROOT
BRANCH   1  14
ATOM     13  O4* UNL     1     -35.488  23.404   4.676  0.00  0.00    -0.335 OA
ATOM     14  C1* UNL     1     -35.262  23.210   3.269  0.00  0.00    +0.202 C 
ATOM     15  C3* UNL     1     -34.252  25.257   3.832  0.00  0.00    +0.144 C 
ATOM     16  C2* UNL     1     -34.961  24.581   2.681  0.00  0.00    +0.083 C 
ATOM     17  C4* UNL     1     -34.959  24.691   5.059  0.00  0.00    +0.173 C 
BRANCH  15  18
ATOM     18  O3* UNL     1     -32.889  24.838   3.829  0.00  0.00    -0.382 OA
ATOM     19  H3* UNL     1     -32.382  25.388   3.213  0.00  0.00    +0.210 HD
ENDBRANCH  15  18
BRANCH  17  20
ATOM     20  C5* UNL     1     -36.120  25.561   5.520  0.00  0.00    +0.169 C 
BRANCH  20  21
ATOM     21  O5* UNL     1     -35.916  26.879   5.041  0.00  0.00    -0.379 OA
ATOM     22  H5* UNL     1     -36.728  27.396   5.162  0.00  0.00    +0.211 HD
ENDBRANCH  20  21
ENDBRANCH  17  20
ENDBRANCH   1  14
BRANCH   6  23
ATOM     23  C   UNL     1     -35.262  20.505   1.833  0.00  0.00    -0.017 C 
ATOM     24  C   UNL     1     -34.285  19.807   1.670  0.00  0.00    -0.082 C 
ATOM     25  C   UNL     1     -33.106  18.964   1.472  0.00  0.00    +0.090 C 
ENDBRANCH   6  23
TORSDOF 5
ENDMDL
MODEL 2
REMARK VINA RESULT:      -5.8      4.149      6.636
REMARK  Name = 512591
REMARK  5 active torsions:
REMARK  status: ('A' for Active; 'I' for Inactive)
REMARK    1  A    between atoms: N_1  and  C1*_11
REMARK    2  A    between atoms: C_6  and  C_23
REMARK    3  A    between atoms: C3*_12  and  O3*_15
REMARK    4  A    between atoms: C4*_14  and  C5*_17
REMARK    5  A    between atoms: C5*_17  and  O5*_18
REMARK                            x       y       z     vdW  Elec       q    Type
REMARK                         _______ _______ _______ _____ _____    ______ ____
ROOT
ATOM      1  N   UNL     1     -34.026  26.322   3.876  0.00  0.00    -0.216 N 
ATOM      2  N   UNL     1     -33.235  26.401   5.964  0.00  0.00    -0.373 NA
ATOM      3  N   UNL     1     -33.180  28.439   3.036  0.00  0.00    -0.227 NA
ATOM      4  N   UNL     1     -31.917  29.636   4.748  0.00  0.00    -0.227 NA
ATOM      5  C   UNL     1     -33.346  27.505   3.984  0.00  0.00    +0.169 C 
ATOM      6  C   UNL     1     -33.929  25.697   5.094  0.00  0.00    +0.233 C 
ATOM      7  C   UNL     1     -32.864  27.534   5.283  0.00  0.00    +0.196 C 
ATOM      8  C   UNL     1     -32.125  28.651   5.656  0.00  0.00    +0.155 C 
ATOM      9  C   UNL     1     -32.450  29.471   3.513  0.00  0.00    +0.253 C 
ATOM     10  N   UNL     1     -31.598  28.765   6.954  0.00  0.00    -0.341 N 
ATOM     11  H   UNL     1     -31.076  29.561   7.206  0.00  0.00    +0.144 HD
ATOM     12  H   UNL     1     -31.750  28.049   7.611  0.00  0.00    +0.144 HD
ENDROOT
BRANCH   1  14
ATOM     13  O4* UNL     1     -36.137  26.035   2.832  0.00  0.00    -0.335 OA
ATOM     14  C1* UNL     1     -34.721  25.832   2.691  0.00  0.00    +0.202 C 
ATOM     15  C3* UNL     1     -35.765  24.013   1.629  0.00  0.00    +0.144 C 
ATOM     16  C2* UNL     1     -34.516  24.350   2.411  0.00  0.00    +0.083 C 
ATOM     17  C4* UNL     1     -36.828  24.900   2.268  0.00  0.00    +0.173 C 
BRANCH  15  18
ATOM     18  O3* UNL     1     -35.566  24.407   0.273  0.00  0.00    -0.382 OA
ATOM     19  H3* UNL     1     -34.741  24.018  -0.060  0.00  0.00    +0.210 HD
ENDBRANCH  15  18
BRANCH  17  20
ATOM     20  C5* UNL     1     -37.579  24.198   3.391  0.00  0.00    +0.169 C 
BRANCH  20  21
ATOM     21  O5* UNL     1     -37.783  25.123   4.445  0.00  0.00    -0.379 OA
ATOM     22  H5* UNL     1     -38.369  24.729   5.111  0.00  0.00    +0.211 HD
ENDBRANCH  20  21
ENDBRANCH  17  20
ENDBRANCH   1  14
BRANCH   6  23
ATOM     23  C   UNL     1     -34.503  24.434   5.407  0.00  0.00    -0.017 C 
ATOM     24  C   UNL     1     -34.991  23.357   5.674  0.00  0.00    -0.082 C 
ATOM     25  C   UNL     1     -35.578  22.058   5.996  0.00  0.00    +0.090 C 
ENDBRANCH   6  23
TORSDOF 5
ENDMDL
MODEL 3
REMARK VINA RESULT:      -5.8      3.219      3.922
REMARK  Name = 512591
REMARK  5 active torsions:
REMARK  status: ('A' for Active; 'I' for Inactive)
REMARK    1  A    between atoms: N_1  and  C1*_11
REMARK    2  A    between atoms: C_6  and  C_23
REMARK    3  A    between atoms: C3*_12  and  O3*_15
REMARK    4  A    between atoms: C4*_14  and  C5*_17
REMARK    5  A    between atoms: C5*_17  and  O5*_18
REMARK                            x       y       z     vdW  Elec       q    Type
REMARK                         _______ _______ _______ _____ _____    ______ ____
ROOT
ATOM      1  N   UNL     1     -36.061  25.650   3.257  0.00  0.00    -0.216 N 
ATOM      2  N   UNL     1     -37.995  24.561   3.511  0.00  0.00    -0.373 NA
ATOM      3  N   UNL     1     -36.752  27.345   1.658  0.00  0.00    -0.227 NA
ATOM      4  N   UNL     1     -39.111  27.114   1.078  0.00  0.00    -0.227 NA
ATOM      5  C   UNL     1     -36.967  26.283   2.449  0.00  0.00    +0.169 C 
ATOM      6  C   UNL     1     -36.730  24.622   3.872  0.00  0.00    +0.233 C 
ATOM      7  C   UNL     1     -38.157  25.594   2.622  0.00  0.00    +0.196 C 
ATOM      8  C   UNL     1     -39.256  26.045   1.899  0.00  0.00    +0.155 C 
ATOM      9  C   UNL     1     -37.886  27.689   1.010  0.00  0.00    +0.253 C 
ATOM     10  N   UNL     1     -40.503  25.406   2.012  0.00  0.00    -0.341 N 
ATOM     11  H   UNL     1     -41.274  25.734   1.495  0.00  0.00    +0.144 HD
ATOM     12  H   UNL     1     -40.605  24.629   2.608  0.00  0.00    +0.144 HD
ENDROOT
BRANCH   1  14
ATOM     13  O4* UNL     1     -34.546  27.281   4.077  0.00  0.00    -0.335 OA
ATOM     14  C1* UNL     1     -34.656  26.007   3.420  0.00  0.00    +0.202 C 
ATOM     15  C3* UNL     1     -32.773  27.071   2.500  0.00  0.00    +0.144 C 
ATOM     16  C2* UNL     1     -33.881  26.117   2.115  0.00  0.00    +0.083 C 
ATOM     17  C4* UNL     1     -33.450  28.013   3.488  0.00  0.00    +0.173 C 
BRANCH  15  18
ATOM     18  O3* UNL     1     -31.754  26.329   3.167  0.00  0.00    -0.382 OA
ATOM     19  H3* UNL     1     -31.101  26.940   3.543  0.00  0.00    +0.210 HD
ENDBRANCH  15  18
BRANCH  17  20
ATOM     20  C5* UNL     1     -34.019  29.256   2.818  0.00  0.00    +0.169 C 
BRANCH  20  21
ATOM     21  O5* UNL     1     -35.335  29.468   3.299  0.00  0.00    -0.379 OA
ATOM     22  H5* UNL     1     -35.874  28.681   3.121  0.00  0.00    +0.211 HD
ENDBRANCH  20  21
ENDBRANCH  17  20
ENDBRANCH   1  14
BRANCH   6  23
ATOM     23  C   UNL     1     -36.148  23.713   4.797  0.00  0.00    -0.017 C 
ATOM     24  C   UNL     1     -35.653  22.938   5.586  0.00  0.00    -0.082 C 
ATOM     25  C   UNL     1     -35.056  22.002   6.538  0.00  0.00    +0.090 C 
ENDBRANCH   6  23
TORSDOF 5
ENDMDL
MODEL 4
REMARK VINA RESULT:      -5.5      3.392      5.561
REMARK  Name = 512591
REMARK  5 active torsions:
REMARK  status: ('A' for Active; 'I' for Inactive)
REMARK    1  A    between atoms: N_1  and  C1*_11
REMARK    2  A    between atoms: C_6  and  C_23
REMARK    3  A    between atoms: C3*_12  and  O3*_15
REMARK    4  A    between atoms: C4*_14  and  C5*_17
REMARK    5  A    between atoms: C5*_17  and  O5*_18
REMARK                            x       y       z     vdW  Elec       q    Type
REMARK                         _______ _______ _______ _____ _____    ______ ____
ROOT
ATOM      1  N   UNL     1     -37.326  24.397   2.666  0.00  0.00    -0.216 N 
ATOM      2  N   UNL     1     -35.924  25.895   3.552  0.00  0.00    -0.373 NA
ATOM      3  N   UNL     1     -38.282  25.738   0.879  0.00  0.00    -0.227 NA
ATOM      4  N   UNL     1     -37.339  27.989   0.851  0.00  0.00    -0.227 NA
ATOM      5  C   UNL     1     -37.468  25.541   1.927  0.00  0.00    +0.169 C 
ATOM      6  C   UNL     1     -36.386  24.664   3.630  0.00  0.00    +0.233 C 
ATOM      7  C   UNL     1     -36.592  26.454   2.491  0.00  0.00    +0.196 C 
ATOM      8  C   UNL     1     -36.543  27.719   1.914  0.00  0.00    +0.155 C 
ATOM      9  C   UNL     1     -38.146  26.996   0.406  0.00  0.00    +0.253 C 
ATOM     10  N   UNL     1     -35.683  28.708   2.422  0.00  0.00    -0.341 N 
ATOM     11  H   UNL     1     -35.657  29.600   2.005  0.00  0.00    +0.144 HD
ATOM     12  H   UNL     1     -35.106  28.509   3.195  0.00  0.00    +0.144 HD
ENDROOT
BRANCH   1  14
ATOM     13  O4* UNL     1     -37.574  22.499   1.266  0.00  0.00    -0.335 OA
ATOM     14  C1* UNL     1     -38.043  23.144   2.462  0.00  0.00    +0.202 C 
ATOM     15  C3* UNL     1     -39.906  22.073   1.508  0.00  0.00    +0.144 C 
ATOM     16  C2* UNL     1     -39.550  23.302   2.313  0.00  0.00    +0.083 C 
ATOM     17  C4* UNL     1     -38.699  21.893   0.594  0.00  0.00    +0.173 C 
BRANCH  15  18
ATOM     18  O3* UNL     1     -40.001  20.963   2.399  0.00  0.00    -0.382 OA
ATOM     19  H3* UNL     1     -40.766  20.419   2.157  0.00  0.00    +0.210 HD
ENDBRANCH  15  18
BRANCH  17  20
ATOM     20  C5* UNL     1     -38.874  22.584  -0.752  0.00  0.00    +0.169 C 
BRANCH  20  21
ATOM     21  O5* UNL     1     -37.750  23.415  -0.982  0.00  0.00    -0.379 OA
ATOM     22  H5* UNL     1     -37.058  23.211  -0.334  0.00  0.00    +0.211 HD
ENDBRANCH  20  21
ENDBRANCH  17  20
ENDBRANCH   1  14
BRANCH   6  23
ATOM     23  C   UNL     1     -35.945  23.736   4.613  0.00  0.00    -0.017 C 
ATOM     24  C   UNL     1     -35.568  22.943   5.449  0.00  0.00    -0.082 C 
ATOM     25  C   UNL     1     -35.114  21.987   6.457  0.00  0.00    +0.090 C 
ENDBRANCH   6  23
TORSDOF 5
ENDMDL
MODEL 5
REMARK VINA RESULT:      -5.4      2.741      5.452
REMARK  Name = 512591
REMARK  5 active torsions:
REMARK  status: ('A' for Active; 'I' for Inactive)
REMARK    1  A    between atoms: N_1  and  C1*_11
REMARK    2  A    between atoms: C_6  and  C_23
REMARK    3  A    between atoms: C3*_12  and  O3*_15
REMARK    4  A    between atoms: C4*_14  and  C5*_17
REMARK    5  A    between atoms: C5*_17  and  O5*_18
REMARK                            x       y       z     vdW  Elec       q    Type
REMARK                         _______ _______ _______ _____ _____    ______ ____
ROOT
ATOM      1  N   UNL     1     -36.479  24.617   2.864  0.00  0.00    -0.216 N 
ATOM      2  N   UNL     1     -37.036  26.681   2.212  0.00  0.00    -0.373 NA
ATOM      3  N   UNL     1     -34.418  25.107   4.056  0.00  0.00    -0.227 NA
ATOM      4  N   UNL     1     -33.909  27.493   4.012  0.00  0.00    -0.227 NA
ATOM      5  C   UNL     1     -35.500  25.448   3.341  0.00  0.00    +0.169 C 
ATOM      6  C   UNL     1     -37.377  25.409   2.193  0.00  0.00    +0.233 C 
ATOM      7  C   UNL     1     -35.865  26.719   2.927  0.00  0.00    +0.196 C 
ATOM      8  C   UNL     1     -35.022  27.765   3.288  0.00  0.00    +0.155 C 
ATOM      9  C   UNL     1     -33.680  26.200   4.346  0.00  0.00    +0.253 C 
ATOM     10  N   UNL     1     -35.313  29.087   2.911  0.00  0.00    -0.341 N 
ATOM     11  H   UNL     1     -34.709  29.819   3.173  0.00  0.00    +0.144 HD
ATOM     12  H   UNL     1     -36.122  29.282   2.385  0.00  0.00    +0.144 HD
ENDROOT
BRANCH   1  14
ATOM     13  O4* UNL     1     -36.648  22.848   4.435  0.00  0.00    -0.335 OA
ATOM     14  C1* UNL     1     -36.541  23.171   3.038  0.00  0.00    +0.202 C 
ATOM     15  C3* UNL     1     -35.347  21.170   3.355  0.00  0.00    +0.144 C 
ATOM     16  C2* UNL     1     -35.327  22.422   2.507  0.00  0.00    +0.083 C 
ATOM     17  C4* UNL     1     -35.860  21.668   4.701  0.00  0.00    +0.173 C 
BRANCH  15  18
ATOM     18  O3* UNL     1     -36.289  20.261   2.791  0.00  0.00    -0.382 OA
ATOM     19  H3* UNL     1     -37.031  20.756   2.411  0.00  0.00    +0.210 HD
ENDBRANCH  15  18
BRANCH  17  20
ATOM     20  C5* UNL     1     -34.735  22.056   5.651  0.00  0.00    +0.169 C 
BRANCH  20  21
ATOM     21  O5* UNL     1     -35.069  23.287   6.269  0.00  0.00    -0.379 OA
ATOM     22  H5* UNL     1     -34.606  24.011   5.818  0.00  0.00    +0.211 HD
ENDBRANCH  20  21
ENDBRANCH  17  20
ENDBRANCH   1  14
BRANCH   6  23
ATOM     23  C   UNL     1     -38.549  24.934   1.542  0.00  0.00    -0.017 C 
ATOM     24  C   UNL     1     -39.548  24.532   0.987  0.00  0.00    -0.082 C 
ATOM     25  C   UNL     1     -40.754  24.046   0.317  0.00  0.00    +0.090 C 
ENDBRANCH   6  23
TORSDOF 5
ENDMDL
MODEL 6
REMARK VINA RESULT:      -5.4      1.550      4.441
REMARK  Name = 512591
REMARK  5 active torsions:
REMARK  status: ('A' for Active; 'I' for Inactive)
REMARK    1  A    between atoms: N_1  and  C1*_11
REMARK    2  A    between atoms: C_6  and  C_23
REMARK    3  A    between atoms: C3*_12  and  O3*_15
REMARK    4  A    between atoms: C4*_14  and  C5*_17
REMARK    5  A    between atoms: C5*_17  and  O5*_18
REMARK                            x       y       z     vdW  Elec       q    Type
REMARK                         _______ _______ _______ _____ _____    ______ ____
ROOT
ATOM      1  N   UNL     1     -37.575  23.539   2.685  0.00  0.00    -0.216 N 
ATOM      2  N   UNL     1     -38.809  22.144   1.450  0.00  0.00    -0.373 NA
ATOM      3  N   UNL     1     -35.556  22.206   2.913  0.00  0.00    -0.227 NA
ATOM      4  N   UNL     1     -35.765  20.066   1.759  0.00  0.00    -0.227 NA
ATOM      5  C   UNL     1     -36.803  22.427   2.473  0.00  0.00    +0.169 C 
ATOM      6  C   UNL     1     -38.770  23.316   2.049  0.00  0.00    +0.233 C 
ATOM      7  C   UNL     1     -37.585  21.578   1.707  0.00  0.00    +0.196 C 
ATOM      8  C   UNL     1     -37.023  20.357   1.349  0.00  0.00    +0.155 C 
ATOM      9  C   UNL     1     -35.119  20.995   2.505  0.00  0.00    +0.253 C 
ATOM     10  N   UNL     1     -37.745  19.434   0.573  0.00  0.00    -0.341 N 
ATOM     11  H   UNL     1     -37.336  18.573   0.325  0.00  0.00    +0.144 HD
ATOM     12  H   UNL     1     -38.658  19.648   0.276  0.00  0.00    +0.144 HD
ENDROOT
BRANCH   1  14
ATOM     13  O4* UNL     1     -36.231  25.494   2.702  0.00  0.00    -0.335 OA
ATOM     14  C1* UNL     1     -37.191  24.722   3.445  0.00  0.00    +0.202 C 
ATOM     15  C3* UNL     1     -35.723  25.660   5.024  0.00  0.00    +0.144 C 
ATOM     16  C2* UNL     1     -36.560  24.422   4.797  0.00  0.00    +0.083 C 
ATOM     17  C4* UNL     1     -35.252  26.026   3.621  0.00  0.00    +0.173 C 
BRANCH  15  18
ATOM     18  O3* UNL     1     -36.571  26.690   5.528  0.00  0.00    -0.382 OA
ATOM     19  H3* UNL     1     -36.245  27.553   5.229  0.00  0.00    +0.210 HD
ENDBRANCH  15  18
BRANCH  17  20
ATOM     20  C5* UNL     1     -33.901  25.414   3.277  0.00  0.00    +0.169 C 
BRANCH  20  21
ATOM     21  O5* UNL     1     -33.209  25.139   4.483  0.00  0.00    -0.379 OA
ATOM     22  H5* UNL     1     -33.532  24.304   4.858  0.00  0.00    +0.211 HD
ENDBRANCH  20  21
ENDBRANCH  17  20
ENDBRANCH   1  14
BRANCH   6  23
ATOM     23  C   UNL     1     -39.859  24.231   2.024  0.00  0.00    -0.017 C 
ATOM     24  C   UNL     1     -40.787  25.010   2.005  0.00  0.00    -0.082 C 
ATOM     25  C   UNL     1     -41.906  25.951   1.982  0.00  0.00    +0.090 C 
ENDBRANCH   6  23
TORSDOF 5
ENDMDL
MODEL 7
REMARK VINA RESULT:      -5.4      2.430      4.981
REMARK  Name = 512591
REMARK  5 active torsions:
REMARK  status: ('A' for Active; 'I' for Inactive)
REMARK    1  A    between atoms: N_1  and  C1*_11
REMARK    2  A    between atoms: C_6  and  C_23
REMARK    3  A    between atoms: C3*_12  and  O3*_15
REMARK    4  A    between atoms: C4*_14  and  C5*_17
REMARK    5  A    between atoms: C5*_17  and  O5*_18
REMARK                            x       y       z     vdW  Elec       q    Type
REMARK                         _______ _______ _______ _____ _____    ______ ____
ROOT
ATOM      1  N   UNL     1     -37.009  23.176   2.973  0.00  0.00    -0.216 N 
ATOM      2  N   UNL     1     -35.063  22.089   3.131  0.00  0.00    -0.373 NA
ATOM      3  N   UNL     1     -38.195  21.676   1.474  0.00  0.00    -0.227 NA
ATOM      4  N   UNL     1     -36.813  19.765   0.847  0.00  0.00    -0.227 NA
ATOM      5  C   UNL     1     -37.129  22.056   2.194  0.00  0.00    +0.169 C 
ATOM      6  C   UNL     1     -35.747  23.147   3.513  0.00  0.00    +0.233 C 
ATOM      7  C   UNL     1     -35.915  21.398   2.306  0.00  0.00    +0.196 C 
ATOM      8  C   UNL     1     -35.776  20.210   1.597  0.00  0.00    +0.155 C 
ATOM      9  C   UNL     1     -37.942  20.514   0.833  0.00  0.00    +0.253 C 
ATOM     10  N   UNL     1     -34.578  19.476   1.652  0.00  0.00    -0.341 N 
ATOM     11  H   UNL     1     -34.491  18.636   1.146  0.00  0.00    +0.144 HD
ATOM     12  H   UNL     1     -33.826  19.802   2.197  0.00  0.00    +0.144 HD
ENDROOT
BRANCH   1  14
ATOM     13  O4* UNL     1     -39.337  23.628   2.997  0.00  0.00    -0.335 OA
ATOM     14  C1* UNL     1     -38.029  24.197   3.179  0.00  0.00    +0.202 C 
ATOM     15  C3* UNL     1     -39.359  25.877   2.211  0.00  0.00    +0.144 C 
ATOM     16  C2* UNL     1     -37.931  25.382   2.228  0.00  0.00    +0.083 C 
ATOM     17  C4* UNL     1     -40.175  24.594   2.327  0.00  0.00    +0.173 C 
BRANCH  15  18
ATOM     18  O3* UNL     1     -39.570  26.684   3.367  0.00  0.00    -0.382 OA
ATOM     19  H3* UNL     1     -38.777  26.662   3.927  0.00  0.00    +0.210 HD
ENDBRANCH  15  18
BRANCH  17  20
ATOM     20  C5* UNL     1     -40.565  24.021   0.971  0.00  0.00    +0.169 C 
BRANCH  20  21
ATOM     21  O5* UNL     1     -40.827  22.637   1.123  0.00  0.00    -0.379 OA
ATOM     22  H5* UNL     1     -40.049  22.201   1.507  0.00  0.00    +0.211 HD
ENDBRANCH  20  21
ENDBRANCH  17  20
ENDBRANCH   1  14
BRANCH   6  23
ATOM     23  C   UNL     1     -35.216  24.134   4.388  0.00  0.00    -0.017 C 
ATOM     24  C   UNL     1     -34.764  24.977   5.132  0.00  0.00    -0.082 C 
ATOM     25  C   UNL     1     -34.219  25.994   6.031  0.00  0.00    +0.090 C 
ENDBRANCH   6  23
TORSDOF 5
ENDMDL
MODEL 8
REMARK VINA RESULT:      -5.4      3.292      5.670
REMARK  Name = 512591
REMARK  5 active torsions:
REMARK  status: ('A' for Active; 'I' for Inactive)
REMARK    1  A    between atoms: N_1  and  C1*_11
REMARK    2  A    between atoms: C_6  and  C_23
REMARK    3  A    between atoms: C3*_12  and  O3*_15
REMARK    4  A    between atoms: C4*_14  and  C5*_17
REMARK    5  A    between atoms: C5*_17  and  O5*_18
REMARK                            x       y       z     vdW  Elec       q    Type
REMARK                         _______ _______ _______ _____ _____    ______ ____
ROOT
ATOM      1  N   UNL     1     -34.615  26.232   3.792  0.00  0.00    -0.216 N 
ATOM      2  N   UNL     1     -34.442  25.023   5.664  0.00  0.00    -0.373 NA
ATOM      3  N   UNL     1     -36.162  24.834   2.544  0.00  0.00    -0.227 NA
ATOM      4  N   UNL     1     -36.799  22.852   3.817  0.00  0.00    -0.227 NA
ATOM      5  C   UNL     1     -35.417  25.135   3.617  0.00  0.00    +0.169 C 
ATOM      6  C   UNL     1     -34.052  26.115   5.038  0.00  0.00    +0.233 C 
ATOM      7  C   UNL     1     -35.295  24.402   4.787  0.00  0.00    +0.196 C 
ATOM      8  C   UNL     1     -36.023  23.219   4.866  0.00  0.00    +0.155 C 
ATOM      9  C   UNL     1     -36.820  23.670   2.737  0.00  0.00    +0.253 C 
ATOM     10  N   UNL     1     -35.960  22.412   6.015  0.00  0.00    -0.341 N 
ATOM     11  H   UNL     1     -36.480  21.577   6.060  0.00  0.00    +0.144 HD
ATOM     12  H   UNL     1     -35.396  22.681   6.775  0.00  0.00    +0.144 HD
ENDROOT
BRANCH   1  14
ATOM     13  O4* UNL     1     -35.596  28.104   2.715  0.00  0.00    -0.335 OA
ATOM     14  C1* UNL     1     -34.404  27.307   2.830  0.00  0.00    +0.202 C 
ATOM     15  C3* UNL     1     -34.532  27.997   0.586  0.00  0.00    +0.144 C 
ATOM     16  C2* UNL     1     -34.057  26.834   1.426  0.00  0.00    +0.083 C 
ATOM     17  C4* UNL     1     -35.768  28.486   1.334  0.00  0.00    +0.173 C 
BRANCH  15  18
ATOM     18  O3* UNL     1     -33.527  29.009   0.610  0.00  0.00    -0.382 OA
ATOM     19  H3* UNL     1     -32.966  28.927  -0.176  0.00  0.00    +0.210 HD
ENDBRANCH  15  18
BRANCH  17  20
ATOM     20  C5* UNL     1     -37.052  27.848   0.823  0.00  0.00    +0.169 C 
BRANCH  20  21
ATOM     21  O5* UNL     1     -37.756  27.302   1.926  0.00  0.00    -0.379 OA
ATOM     22  H5* UNL     1     -38.471  26.733   1.603  0.00  0.00    +0.211 HD
ENDBRANCH  20  21
ENDBRANCH  17  20
ENDBRANCH   1  14
BRANCH   6  23
ATOM     23  C   UNL     1     -33.148  27.051   5.611  0.00  0.00    -0.017 C 
ATOM     24  C   UNL     1     -32.377  27.848   6.099  0.00  0.00    -0.082 C 
ATOM     25  C   UNL     1     -31.446  28.810   6.687  0.00  0.00    +0.090 C 
ENDBRANCH   6  23
TORSDOF 5
ENDMDL
MODEL 9
REMARK VINA RESULT:      -5.4      2.889      6.166
REMARK  Name = 512591
REMARK  5 active torsions:
REMARK  status: ('A' for Active; 'I' for Inactive)
REMARK    1  A    between atoms: N_1  and  C1*_11
REMARK    2  A    between atoms: C_6  and  C_23
REMARK    3  A    between atoms: C3*_12  and  O3*_15
REMARK    4  A    between atoms: C4*_14  and  C5*_17
REMARK    5  A    between atoms: C5*_17  and  O5*_18
REMARK                            x       y       z     vdW  Elec       q    Type
REMARK                         _______ _______ _______ _____ _____    ______ ____
ROOT
ATOM      1  N   UNL     1     -38.324  23.557   2.024  0.00  0.00    -0.216 N 
ATOM      2  N   UNL     1     -38.671  25.291   3.389  0.00  0.00    -0.373 NA
ATOM      3  N   UNL     1     -36.094  22.910   2.742  0.00  0.00    -0.227 NA
ATOM      4  N   UNL     1     -35.278  24.358   4.529  0.00  0.00    -0.227 NA
ATOM      5  C   UNL     1     -37.195  23.674   2.791  0.00  0.00    +0.169 C 
ATOM      6  C   UNL     1     -39.179  24.553   2.424  0.00  0.00    +0.233 C 
ATOM      7  C   UNL     1     -37.431  24.753   3.628  0.00  0.00    +0.196 C 
ATOM      8  C   UNL     1     -36.420  25.088   4.522  0.00  0.00    +0.155 C 
ATOM      9  C   UNL     1     -35.187  23.330   3.652  0.00  0.00    +0.253 C 
ATOM     10  N   UNL     1     -36.573  26.167   5.409  0.00  0.00    -0.341 N 
ATOM     11  H   UNL     1     -35.851  26.395   6.038  0.00  0.00    +0.144 HD
ATOM     12  H   UNL     1     -37.404  26.696   5.402  0.00  0.00    +0.144 HD
ENDROOT
BRANCH   1  14
ATOM     13  O4* UNL     1     -38.493  21.240   1.543  0.00  0.00    -0.335 OA
ATOM     14  C1* UNL     1     -38.559  22.563   0.983  0.00  0.00    +0.202 C 
ATOM     15  C3* UNL     1     -37.619  21.184  -0.673  0.00  0.00    +0.144 C 
ATOM     16  C2* UNL     1     -37.556  22.605  -0.162  0.00  0.00    +0.083 C 
ATOM     17  C4* UNL     1     -37.844  20.366   0.594  0.00  0.00    +0.173 C 
BRANCH  15  18
ATOM     18  O3* UNL     1     -38.754  21.063  -1.528  0.00  0.00    -0.382 OA
ATOM     19  H3* UNL     1     -39.027  20.134  -1.575  0.00  0.00    +0.210 HD
ENDBRANCH  15  18
BRANCH  17  20
ATOM     20  C5* UNL     1     -36.543  19.877   1.215  0.00  0.00    +0.169 C 
BRANCH  20  21
ATOM     21  O5* UNL     1     -36.687  19.875   2.625  0.00  0.00    -0.379 OA
ATOM     22  H5* UNL     1     -37.406  20.476   2.877  0.00  0.00    +0.211 HD
ENDBRANCH  20  21
ENDBRANCH  17  20
ENDBRANCH   1  14
BRANCH   6  23
ATOM     23  C   UNL     1     -40.470  24.783   1.876  0.00  0.00    -0.017 C 
ATOM     24  C   UNL     1     -41.570  24.980   1.407  0.00  0.00    -0.082 C 
ATOM     25  C   UNL     1     -42.897  25.217   0.841  0.00  0.00    +0.090 C 
ENDBRANCH   6  23
TORSDOF 5
ENDMDL
