MODEL 1
REMARK VINA RESULT:      -6.1      0.000      0.000
REMARK  Name = 21597388
REMARK  7 active torsions:
REMARK  status: ('A' for Active; 'I' for Inactive)
REMARK    1  A    between atoms: C_5  and  C_20
REMARK    2  A    between atoms: C_7  and  O_23
REMARK    3  A    between atoms: C_8  and  O_27
REMARK    4  A    between atoms: C_12  and  O_31
REMARK    5  A    between atoms: O_23  and  C_25
REMARK    6  A    between atoms: O_27  and  C_29
REMARK    7  A    between atoms: O_31  and  C_33
REMARK                            x       y       z     vdW  Elec       q    Type
REMARK                         _______ _______ _______ _____ _____    ______ ____
ROOT
ATOM      1  O   UNL     1     -34.221  25.401   2.617  0.00  0.00    -0.352 OA
ATOM      2  O   UNL     1     -38.231  26.466   2.270  0.00  0.00    -0.296 OA
ATOM      3  C   UNL     1     -35.836  23.701   1.751  0.00  0.00    +0.041 C 
ATOM      4  C   UNL     1     -37.238  24.375   1.610  0.00  0.00    +0.097 C 
ATOM      5  C   UNL     1     -35.054  23.574   0.399  0.00  0.00    +0.003 C 
ATOM      6  C   UNL     1     -34.926  24.202   2.921  0.00  0.00    +0.152 C 
ATOM      7  C   UNL     1     -38.058  23.794   0.423  0.00  0.00    +0.142 C 
ATOM      8  C   UNL     1     -35.475  24.156   4.364  0.00  0.00    +0.161 C 
ATOM      9  C   UNL     1     -35.940  23.033  -0.733  0.00  0.00    +0.004 C 
ATOM     10  C   UNL     1     -37.254  23.788  -0.881  0.00  0.00    +0.041 C 
ATOM     11  C   UNL     1     -34.757  26.657   3.017  0.00  0.00    +0.152 C 
ATOM     12  C   UNL     1     -35.313  27.464   1.806  0.00  0.00    +0.168 C 
ATOM     13  C   UNL     1     -36.293  25.394   4.698  0.00  0.00    +0.045 C 
ATOM     14  C   UNL     1     -37.313  25.905   1.658  0.00  0.00    +0.157 C 
ATOM     15  C   UNL     1     -35.578  26.678   4.323  0.00  0.00    +0.037 C 
ATOM     16  C   UNL     1     -36.319  26.741   0.906  0.00  0.00    +0.107 C 
ATOM     17  C   UNL     1     -39.405  24.497   0.208  0.00  0.00    +0.044 C 
ATOM     18  C   UNL     1     -34.309  24.021   5.363  0.00  0.00    +0.046 C 
ATOM     19  C   UNL     1     -34.142  27.909   0.902  0.00  0.00    +0.047 C 
ENDROOT
BRANCH   5  20
ATOM     20  C   UNL     1     -33.815  22.669   0.503  0.00  0.00    +0.000 C 
ATOM     21  C   UNL     1     -34.238  21.209   0.615  0.00  0.00    +0.000 C 
ATOM     22  C   UNL     1     -32.904  22.882  -0.697  0.00  0.00    +0.000 C 
ENDBRANCH   5  20
BRANCH   7  23
ATOM     23  O   UNL     1     -38.371  22.432   0.765  0.00  0.00    -0.455 OA
BRANCH  23  25
ATOM     24  O   UNL     1     -40.146  22.617   2.232  0.00  0.00    -0.250 OA
ATOM     25  C   UNL     1     -39.647  22.218   1.188  0.00  0.00    +0.317 C 
ATOM     26  C   UNL     1     -40.378  21.399   0.168  0.00  0.00    +0.121 C 
ENDBRANCH  23  25
ENDBRANCH   7  23
BRANCH   8  27
ATOM     27  O   UNL     1     -36.296  23.000   4.528  0.00  0.00    -0.453 OA
BRANCH  27  29
ATOM     28  O   UNL     1     -35.198  21.006   4.130  0.00  0.00    -0.250 OA
ATOM     29  C   UNL     1     -35.644  21.854   4.891  0.00  0.00    +0.317 C 
ATOM     30  C   UNL     1     -35.547  21.775   6.384  0.00  0.00    +0.121 C 
ENDBRANCH  27  29
ENDBRANCH   8  27
BRANCH  12  31
ATOM     31  O   UNL     1     -35.938  28.666   2.271  0.00  0.00    -0.453 OA
BRANCH  31  33
ATOM     32  O   UNL     1     -34.207  29.738   3.363  0.00  0.00    -0.250 OA
ATOM     33  C   UNL     1     -35.095  29.711   2.522  0.00  0.00    +0.317 C 
ATOM     34  C   UNL     1     -35.413  30.849   1.600  0.00  0.00    +0.121 C 
ENDBRANCH  31  33
ENDBRANCH  12  31
TORSDOF 7
ENDMDL
MODEL 2
REMARK VINA RESULT:      -5.9      2.082      6.511
REMARK  Name = 21597388
REMARK  7 active torsions:
REMARK  status: ('A' for Active; 'I' for Inactive)
REMARK    1  A    between atoms: C_5  and  C_20
REMARK    2  A    between atoms: C_7  and  O_23
REMARK    3  A    between atoms: C_8  and  O_27
REMARK    4  A    between atoms: C_12  and  O_31
REMARK    5  A    between atoms: O_23  and  C_25
REMARK    6  A    between atoms: O_27  and  C_29
REMARK    7  A    between atoms: O_31  and  C_33
REMARK                            x       y       z     vdW  Elec       q    Type
REMARK                         _______ _______ _______ _____ _____    ______ ____
ROOT
ATOM      1  O   UNL     1     -36.452  24.315   1.011  0.00  0.00    -0.352 OA
ATOM      2  O   UNL     1     -35.462  25.727   4.799  0.00  0.00    -0.296 OA
ATOM      3  C   UNL     1     -34.939  26.298   1.187  0.00  0.00    +0.041 C 
ATOM      4  C   UNL     1     -34.635  26.556   2.697  0.00  0.00    +0.097 C 
ATOM      5  C   UNL     1     -33.791  25.552   0.426  0.00  0.00    +0.003 C 
ATOM      6  C   UNL     1     -36.354  25.725   0.841  0.00  0.00    +0.152 C 
ATOM      7  C   UNL     1     -33.208  27.132   2.923  0.00  0.00    +0.142 C 
ATOM      8  C   UNL     1     -37.606  26.494   1.317  0.00  0.00    +0.161 C 
ATOM      9  C   UNL     1     -32.411  26.152   0.731  0.00  0.00    +0.004 C 
ATOM     10  C   UNL     1     -32.134  26.296   2.221  0.00  0.00    +0.041 C 
ATOM     11  C   UNL     1     -36.966  23.783   2.227  0.00  0.00    +0.152 C 
ATOM     12  C   UNL     1     -35.846  23.142   3.099  0.00  0.00    +0.168 C 
ATOM     13  C   UNL     1     -37.992  26.120   2.740  0.00  0.00    +0.045 C 
ATOM     14  C   UNL     1     -34.965  25.447   3.702  0.00  0.00    +0.157 C 
ATOM     15  C   UNL     1     -38.041  24.620   2.951  0.00  0.00    +0.037 C 
ATOM     16  C   UNL     1     -34.626  24.017   3.398  0.00  0.00    +0.107 C 
ATOM     17  C   UNL     1     -32.849  27.315   4.404  0.00  0.00    +0.044 C 
ATOM     18  C   UNL     1     -38.788  26.209   0.369  0.00  0.00    +0.046 C 
ATOM     19  C   UNL     1     -35.322  21.864   2.407  0.00  0.00    +0.047 C 
ENDROOT
BRANCH   5  20
ATOM     20  C   UNL     1     -33.981  25.554  -1.100  0.00  0.00    +0.000 C 
ATOM     21  C   UNL     1     -33.615  26.917  -1.674  0.00  0.00    +0.000 C 
ATOM     22  C   UNL     1     -33.145  24.452  -1.737  0.00  0.00    +0.000 C 
ENDBRANCH   5  20
BRANCH   7  23
ATOM     23  O   UNL     1     -33.199  28.451   2.347  0.00  0.00    -0.455 OA
BRANCH  23  25
ATOM     24  O   UNL     1     -35.019  29.476   3.331  0.00  0.00    -0.250 OA
ATOM     25  C   UNL     1     -33.823  29.411   3.082  0.00  0.00    +0.317 C 
ATOM     26  C   UNL     1     -32.811  30.408   3.560  0.00  0.00    +0.121 C 
ENDBRANCH  23  25
ENDBRANCH   7  23
BRANCH   8  27
ATOM     27  O   UNL     1     -37.358  27.899   1.258  0.00  0.00    -0.453 OA
BRANCH  27  29
ATOM     28  O   UNL     1     -39.055  28.942   0.087  0.00  0.00    -0.250 OA
ATOM     29  C   UNL     1     -37.899  28.553   0.186  0.00  0.00    +0.317 C 
ATOM     30  C   UNL     1     -36.859  28.736  -0.878  0.00  0.00    +0.121 C 
ENDBRANCH  27  29
ENDBRANCH   8  27
BRANCH  12  31
ATOM     31  O   UNL     1     -36.392  22.721   4.355  0.00  0.00    -0.453 OA
BRANCH  31  33
ATOM     32  O   UNL     1     -35.137  20.833   4.795  0.00  0.00    -0.250 OA
ATOM     33  C   UNL     1     -35.582  21.926   5.115  0.00  0.00    +0.317 C 
ATOM     34  C   UNL     1     -35.305  22.595   6.427  0.00  0.00    +0.121 C 
ENDBRANCH  31  33
ENDBRANCH  12  31
TORSDOF 7
ENDMDL
MODEL 3
REMARK VINA RESULT:      -5.9      2.976      7.111
REMARK  Name = 21597388
REMARK  7 active torsions:
REMARK  status: ('A' for Active; 'I' for Inactive)
REMARK    1  A    between atoms: C_5  and  C_20
REMARK    2  A    between atoms: C_7  and  O_23
REMARK    3  A    between atoms: C_8  and  O_27
REMARK    4  A    between atoms: C_12  and  O_31
REMARK    5  A    between atoms: O_23  and  C_25
REMARK    6  A    between atoms: O_27  and  C_29
REMARK    7  A    between atoms: O_31  and  C_33
REMARK                            x       y       z     vdW  Elec       q    Type
REMARK                         _______ _______ _______ _____ _____    ______ ____
ROOT
ATOM      1  O   UNL     1     -35.317  26.813   1.045  0.00  0.00    -0.352 OA
ATOM      2  O   UNL     1     -31.592  26.056   2.740  0.00  0.00    -0.296 OA
ATOM      3  C   UNL     1     -34.497  28.335   2.850  0.00  0.00    +0.041 C 
ATOM      4  C   UNL     1     -33.044  27.909   3.235  0.00  0.00    +0.097 C 
ATOM      5  C   UNL     1     -34.564  29.579   1.900  0.00  0.00    +0.003 C 
ATOM      6  C   UNL     1     -35.473  27.194   2.407  0.00  0.00    +0.152 C 
ATOM      7  C   UNL     1     -32.168  29.119   3.667  0.00  0.00    +0.142 C 
ATOM      8  C   UNL     1     -35.706  26.001   3.361  0.00  0.00    +0.161 C 
ATOM      9  C   UNL     1     -33.642  30.714   2.370  0.00  0.00    +0.004 C 
ATOM     10  C   UNL     1     -32.216  30.257   2.643  0.00  0.00    +0.041 C 
ATOM     11  C   UNL     1     -34.492  25.703   0.710  0.00  0.00    +0.152 C 
ATOM     12  C   UNL     1     -33.157  26.150   0.045  0.00  0.00    +0.168 C 
ATOM     13  C   UNL     1     -34.645  24.925   3.190  0.00  0.00    +0.045 C 
ATOM     14  C   UNL     1     -32.290  26.970   2.287  0.00  0.00    +0.157 C 
ATOM     15  C   UNL     1     -34.426  24.553   1.737  0.00  0.00    +0.037 C 
ATOM     16  C   UNL     1     -32.331  27.193   0.804  0.00  0.00    +0.107 C 
ATOM     17  C   UNL     1     -30.711  28.743   3.969  0.00  0.00    +0.044 C 
ATOM     18  C   UNL     1     -37.101  25.396   3.110  0.00  0.00    +0.046 C 
ATOM     19  C   UNL     1     -33.450  26.741  -1.352  0.00  0.00    +0.047 C 
ENDROOT
BRANCH   5  20
ATOM     20  C   UNL     1     -35.984  30.151   1.758  0.00  0.00    +0.000 C 
ATOM     21  C   UNL     1     -36.055  31.544   2.373  0.00  0.00    +0.000 C 
ATOM     22  C   UNL     1     -36.396  30.181   0.292  0.00  0.00    +0.000 C 
ENDBRANCH   5  20
BRANCH   7  23
ATOM     23  O   UNL     1     -32.717  29.605   4.905  0.00  0.00    -0.455 OA
BRANCH  23  25
ATOM     24  O   UNL     1     -31.326  31.386   5.383  0.00  0.00    -0.250 OA
ATOM     25  C   UNL     1     -31.858  30.325   5.679  0.00  0.00    +0.317 C 
ATOM     26  C   UNL     1     -31.649  29.615   6.982  0.00  0.00    +0.121 C 
ENDBRANCH  23  25
ENDBRANCH   7  23
BRANCH   8  27
ATOM     27  O   UNL     1     -35.690  26.458   4.713  0.00  0.00    -0.453 OA
BRANCH  27  29
ATOM     28  O   UNL     1     -35.488  24.511   5.940  0.00  0.00    -0.250 OA
ATOM     29  C   UNL     1     -35.094  25.623   5.616  0.00  0.00    +0.317 C 
ATOM     30  C   UNL     1     -33.860  26.269   6.170  0.00  0.00    +0.121 C 
ENDBRANCH  27  29
ENDBRANCH   8  27
BRANCH  12  31
ATOM     31  O   UNL     1     -32.318  25.010  -0.172  0.00  0.00    -0.453 OA
BRANCH  31  33
ATOM     32  O   UNL     1     -33.459  23.779  -1.759  0.00  0.00    -0.250 OA
ATOM     33  C   UNL     1     -32.468  24.386  -1.377  0.00  0.00    +0.317 C 
ATOM     34  C   UNL     1     -31.221  24.553  -2.191  0.00  0.00    +0.121 C 
ENDBRANCH  31  33
ENDBRANCH  12  31
TORSDOF 7
ENDMDL
MODEL 4
REMARK VINA RESULT:      -5.9      1.995      5.777
REMARK  Name = 21597388
REMARK  7 active torsions:
REMARK  status: ('A' for Active; 'I' for Inactive)
REMARK    1  A    between atoms: C_5  and  C_20
REMARK    2  A    between atoms: C_7  and  O_23
REMARK    3  A    between atoms: C_8  and  O_27
REMARK    4  A    between atoms: C_12  and  O_31
REMARK    5  A    between atoms: O_23  and  C_25
REMARK    6  A    between atoms: O_27  and  C_29
REMARK    7  A    between atoms: O_31  and  C_33
REMARK                            x       y       z     vdW  Elec       q    Type
REMARK                         _______ _______ _______ _____ _____    ______ ____
ROOT
ATOM      1  O   UNL     1     -37.778  23.124   2.305  0.00  0.00    -0.352 OA
ATOM      2  O   UNL     1     -36.437  26.934   1.301  0.00  0.00    -0.296 OA
ATOM      3  C   UNL     1     -35.495  23.819   3.048  0.00  0.00    +0.041 C 
ATOM      4  C   UNL     1     -35.277  25.313   2.649  0.00  0.00    +0.097 C 
ATOM      5  C   UNL     1     -35.868  23.613   4.556  0.00  0.00    +0.003 C 
ATOM      6  C   UNL     1     -36.381  22.954   2.091  0.00  0.00    +0.152 C 
ATOM      7  C   UNL     1     -34.375  26.072   3.664  0.00  0.00    +0.142 C 
ATOM      8  C   UNL     1     -35.991  22.858   0.600  0.00  0.00    +0.161 C 
ATOM      9  C   UNL     1     -34.962  24.425   5.492  0.00  0.00    +0.004 C 
ATOM     10  C   UNL     1     -34.860  25.893   5.106  0.00  0.00    +0.041 C 
ATOM     11  C   UNL     1     -38.509  24.050   1.508  0.00  0.00    +0.152 C 
ATOM     12  C   UNL     1     -38.906  25.322   2.314  0.00  0.00    +0.168 C 
ATOM     13  C   UNL     1     -36.552  24.018  -0.208  0.00  0.00    +0.045 C 
ATOM     14  C   UNL     1     -36.503  26.141   2.247  0.00  0.00    +0.157 C 
ATOM     15  C   UNL     1     -38.027  24.247   0.056  0.00  0.00    +0.037 C 
ATOM     16  C   UNL     1     -37.774  26.053   3.040  0.00  0.00    +0.107 C 
ATOM     17  C   UNL     1     -34.214  27.564   3.343  0.00  0.00    +0.044 C 
ATOM     18  C   UNL     1     -36.497  21.525   0.012  0.00  0.00    +0.046 C 
ATOM     19  C   UNL     1     -39.957  24.948   3.383  0.00  0.00    +0.047 C 
ENDROOT
BRANCH   5  20
ATOM     20  C   UNL     1     -35.805  22.141   4.995  0.00  0.00    +0.000 C 
ATOM     21  C   UNL     1     -34.987  21.329   3.998  0.00  0.00    +0.000 C 
ATOM     22  C   UNL     1     -35.218  22.034   6.396  0.00  0.00    +0.000 C 
ENDBRANCH   5  20
BRANCH   7  23
ATOM     23  O   UNL     1     -33.060  25.499   3.557  0.00  0.00    -0.455 OA
BRANCH  23  25
ATOM     24  O   UNL     1     -31.430  27.071   3.105  0.00  0.00    -0.250 OA
ATOM     25  C   UNL     1     -32.192  26.179   2.759  0.00  0.00    +0.317 C 
ATOM     26  C   UNL     1     -32.304  25.670   1.354  0.00  0.00    +0.121 C 
ENDBRANCH  23  25
ENDBRANCH   7  23
BRANCH   8  27
ATOM     27  O   UNL     1     -34.568  22.850   0.475  0.00  0.00    -0.453 OA
BRANCH  27  29
ATOM     28  O   UNL     1     -34.115  21.984  -1.618  0.00  0.00    -0.250 OA
ATOM     29  C   UNL     1     -34.053  21.933  -0.397  0.00  0.00    +0.317 C 
ATOM     30  C   UNL     1     -33.384  20.827   0.362  0.00  0.00    +0.121 C 
ENDBRANCH  27  29
ENDBRANCH   8  27
BRANCH  12  31
ATOM     31  O   UNL     1     -39.540  26.267   1.444  0.00  0.00    -0.453 OA
BRANCH  31  33
ATOM     32  O   UNL     1     -41.353  27.221   2.510  0.00  0.00    -0.250 OA
ATOM     33  C   UNL     1     -40.871  26.477   1.669  0.00  0.00    +0.317 C 
ATOM     34  C   UNL     1     -41.681  25.650   0.717  0.00  0.00    +0.121 C 
ENDBRANCH  31  33
ENDBRANCH  12  31
TORSDOF 7
ENDMDL
MODEL 5
REMARK VINA RESULT:      -5.8      2.133      3.271
REMARK  Name = 21597388
REMARK  7 active torsions:
REMARK  status: ('A' for Active; 'I' for Inactive)
REMARK    1  A    between atoms: C_5  and  C_20
REMARK    2  A    between atoms: C_7  and  O_23
REMARK    3  A    between atoms: C_8  and  O_27
REMARK    4  A    between atoms: C_12  and  O_31
REMARK    5  A    between atoms: O_23  and  C_25
REMARK    6  A    between atoms: O_27  and  C_29
REMARK    7  A    between atoms: O_31  and  C_33
REMARK                            x       y       z     vdW  Elec       q    Type
REMARK                         _______ _______ _______ _____ _____    ______ ____
ROOT
ATOM      1  O   UNL     1     -33.302  25.106   3.720  0.00  0.00    -0.352 OA
ATOM      2  O   UNL     1     -35.617  28.561   3.558  0.00  0.00    -0.296 OA
ATOM      3  C   UNL     1     -35.159  25.221   2.050  0.00  0.00    +0.041 C 
ATOM      4  C   UNL     1     -35.794  26.646   2.113  0.00  0.00    +0.097 C 
ATOM      5  C   UNL     1     -34.163  25.020   0.856  0.00  0.00    +0.003 C 
ATOM      6  C   UNL     1     -34.605  24.635   3.392  0.00  0.00    +0.152 C 
ATOM      7  C   UNL     1     -36.318  27.121   0.727  0.00  0.00    +0.142 C 
ATOM      8  C   UNL     1     -35.551  24.536   4.608  0.00  0.00    +0.161 C 
ATOM      9  C   UNL     1     -34.735  25.551  -0.467  0.00  0.00    +0.004 C 
ATOM     10  C   UNL     1     -35.257  26.977  -0.368  0.00  0.00    +0.041 C 
ATOM     11  C   UNL     1     -33.151  26.216   4.597  0.00  0.00    +0.152 C 
ATOM     12  C   UNL     1     -32.699  27.499   3.837  0.00  0.00    +0.168 C 
ATOM     13  C   UNL     1     -35.600  25.837   5.395  0.00  0.00    +0.045 C 
ATOM     14  C   UNL     1     -35.020  27.752   2.838  0.00  0.00    +0.157 C 
ATOM     15  C   UNL     1     -34.218  26.380   5.699  0.00  0.00    +0.037 C 
ATOM     16  C   UNL     1     -33.543  27.911   2.628  0.00  0.00    +0.107 C 
ATOM     17  C   UNL     1     -36.870  28.553   0.741  0.00  0.00    +0.044 C 
ATOM     18  C   UNL     1     -35.097  23.389   5.533  0.00  0.00    +0.046 C 
ATOM     19  C   UNL     1     -31.251  27.314   3.331  0.00  0.00    +0.047 C 
ENDROOT
BRANCH   5  20
ATOM     20  C   UNL     1     -33.767  23.550   0.644  0.00  0.00    +0.000 C 
ATOM     21  C   UNL     1     -34.976  22.738   0.198  0.00  0.00    +0.000 C 
ATOM     22  C   UNL     1     -32.638  23.450  -0.372  0.00  0.00    +0.000 C 
ENDBRANCH   5  20
BRANCH   7  23
ATOM     23  O   UNL     1     -37.429  26.271   0.392  0.00  0.00    -0.455 OA
BRANCH  23  25
ATOM     24  O   UNL     1     -38.764  26.629   2.242  0.00  0.00    -0.250 OA
ATOM     25  C   UNL     1     -38.595  26.558   1.033  0.00  0.00    +0.317 C 
ATOM     26  C   UNL     1     -39.677  26.781   0.020  0.00  0.00    +0.121 C 
ENDBRANCH  23  25
ENDBRANCH   7  23
BRANCH   8  27
ATOM     27  O   UNL     1     -36.870  24.212   4.165  0.00  0.00    -0.453 OA
BRANCH  27  29
ATOM     28  O   UNL     1     -36.244  22.092   3.493  0.00  0.00    -0.250 OA
ATOM     29  C   UNL     1     -36.985  23.064   3.432  0.00  0.00    +0.317 C 
ATOM     30  C   UNL     1     -38.171  23.159   2.520  0.00  0.00    +0.121 C 
ENDBRANCH  27  29
ENDBRANCH   8  27
BRANCH  12  31
ATOM     31  O   UNL     1     -32.667  28.610   4.740  0.00  0.00    -0.453 OA
BRANCH  31  33
ATOM     32  O   UNL     1     -31.023  27.890   6.194  0.00  0.00    -0.250 OA
ATOM     33  C   UNL     1     -31.523  28.743   5.474  0.00  0.00    +0.317 C 
ATOM     34  C   UNL     1     -30.949  30.113   5.271  0.00  0.00    +0.121 C 
ENDBRANCH  31  33
ENDBRANCH  12  31
TORSDOF 7
ENDMDL
MODEL 6
REMARK VINA RESULT:      -5.8      1.964      4.135
REMARK  Name = 21597388
REMARK  7 active torsions:
REMARK  status: ('A' for Active; 'I' for Inactive)
REMARK    1  A    between atoms: C_5  and  C_20
REMARK    2  A    between atoms: C_7  and  O_23
REMARK    3  A    between atoms: C_8  and  O_27
REMARK    4  A    between atoms: C_12  and  O_31
REMARK    5  A    between atoms: O_23  and  C_25
REMARK    6  A    between atoms: O_27  and  C_29
REMARK    7  A    between atoms: O_31  and  C_33
REMARK                            x       y       z     vdW  Elec       q    Type
REMARK                         _______ _______ _______ _____ _____    ______ ____
ROOT
ATOM      1  O   UNL     1     -36.155  26.192   2.451  0.00  0.00    -0.352 OA
ATOM      2  O   UNL     1     -37.827  22.558   1.300  0.00  0.00    -0.296 OA
ATOM      3  C   UNL     1     -34.624  24.341   1.760  0.00  0.00    +0.041 C 
ATOM      4  C   UNL     1     -35.491  23.136   1.273  0.00  0.00    +0.097 C 
ATOM      5  C   UNL     1     -34.024  25.203   0.598  0.00  0.00    +0.003 C 
ATOM      6  C   UNL     1     -35.221  25.221   2.909  0.00  0.00    +0.152 C 
ATOM      7  C   UNL     1     -34.798  22.328   0.139  0.00  0.00    +0.142 C 
ATOM      8  C   UNL     1     -35.636  24.539   4.231  0.00  0.00    +0.161 C 
ATOM      9  C   UNL     1     -33.395  24.334  -0.500  0.00  0.00    +0.004 C 
ATOM     10  C   UNL     1     -34.320  23.234  -1.000  0.00  0.00    +0.041 C 
ATOM     11  C   UNL     1     -37.548  25.903   2.479  0.00  0.00    +0.152 C 
ATOM     12  C   UNL     1     -38.119  25.652   1.052  0.00  0.00    +0.168 C 
ATOM     13  C   UNL     1     -37.048  23.978   4.160  0.00  0.00    +0.045 C 
ATOM     14  C   UNL     1     -36.972  23.388   0.968  0.00  0.00    +0.157 C 
ATOM     15  C   UNL     1     -38.043  24.985   3.616  0.00  0.00    +0.037 C 
ATOM     16  C   UNL     1     -37.396  24.605   0.200  0.00  0.00    +0.107 C 
ATOM     17  C   UNL     1     -35.663  21.190  -0.419  0.00  0.00    +0.044 C 
ATOM     18  C   UNL     1     -35.538  25.547   5.393  0.00  0.00    +0.046 C 
ATOM     19  C   UNL     1     -38.101  26.973   0.250  0.00  0.00    +0.047 C 
ENDROOT
BRANCH   5  20
ATOM     20  C   UNL     1     -32.959  26.202   1.079  0.00  0.00    +0.000 C 
ATOM     21  C   UNL     1     -31.601  25.852   0.483  0.00  0.00    +0.000 C 
ATOM     22  C   UNL     1     -33.366  27.623   0.713  0.00  0.00    +0.000 C 
ENDBRANCH   5  20
BRANCH   7  23
ATOM     23  O   UNL     1     -33.645  21.698   0.727  0.00  0.00    -0.455 OA
BRANCH  23  25
ATOM     24  O   UNL     1     -32.961  20.113  -0.806  0.00  0.00    -0.250 OA
ATOM     25  C   UNL     1     -33.389  20.434   0.294  0.00  0.00    +0.317 C 
ATOM     26  C   UNL     1     -33.717  19.459   1.384  0.00  0.00    +0.121 C 
ENDBRANCH  23  25
ENDBRANCH   7  23
BRANCH   8  27
ATOM     27  O   UNL     1     -34.730  23.477   4.528  0.00  0.00    -0.453 OA
BRANCH  27  29
ATOM     28  O   UNL     1     -35.658  21.424   4.014  0.00  0.00    -0.250 OA
ATOM     29  C   UNL     1     -35.303  22.271   4.823  0.00  0.00    +0.317 C 
ATOM     30  C   UNL     1     -35.440  22.121   6.308  0.00  0.00    +0.121 C 
ENDBRANCH  27  29
ENDBRANCH   8  27
BRANCH  12  31
ATOM     31  O   UNL     1     -39.493  25.259   1.143  0.00  0.00    -0.453 OA
BRANCH  31  33
ATOM     32  O   UNL     1     -40.573  27.100   2.026  0.00  0.00    -0.250 OA
ATOM     33  C   UNL     1     -40.402  26.279   1.136  0.00  0.00    +0.317 C 
ATOM     34  C   UNL     1     -41.179  26.255  -0.145  0.00  0.00    +0.121 C 
ENDBRANCH  31  33
ENDBRANCH  12  31
TORSDOF 7
ENDMDL
MODEL 7
REMARK VINA RESULT:      -5.7      2.182      3.945
REMARK  Name = 21597388
REMARK  7 active torsions:
REMARK  status: ('A' for Active; 'I' for Inactive)
REMARK    1  A    between atoms: C_5  and  C_20
REMARK    2  A    between atoms: C_7  and  O_23
REMARK    3  A    between atoms: C_8  and  O_27
REMARK    4  A    between atoms: C_12  and  O_31
REMARK    5  A    between atoms: O_23  and  C_25
REMARK    6  A    between atoms: O_27  and  C_29
REMARK    7  A    between atoms: O_31  and  C_33
REMARK                            x       y       z     vdW  Elec       q    Type
REMARK                         _______ _______ _______ _____ _____    ______ ____
ROOT
ATOM      1  O   UNL     1     -34.274  27.197   0.421  0.00  0.00    -0.352 OA
ATOM      2  O   UNL     1     -37.402  26.166   2.966  0.00  0.00    -0.296 OA
ATOM      3  C   UNL     1     -34.160  25.010   1.625  0.00  0.00    +0.041 C 
ATOM      4  C   UNL     1     -35.491  24.811   2.419  0.00  0.00    +0.097 C 
ATOM      5  C   UNL     1     -34.099  24.213   0.277  0.00  0.00    +0.003 C 
ATOM      6  C   UNL     1     -33.641  26.478   1.474  0.00  0.00    +0.152 C 
ATOM      7  C   UNL     1     -35.905  23.315   2.514  0.00  0.00    +0.142 C 
ATOM      8  C   UNL     1     -33.411  27.322   2.748  0.00  0.00    +0.161 C 
ATOM      9  C   UNL     1     -34.561  22.759   0.444  0.00  0.00    +0.004 C 
ATOM     10  C   UNL     1     -35.907  22.632   1.143  0.00  0.00    +0.041 C 
ATOM     11  C   UNL     1     -35.388  28.035   0.706  0.00  0.00    +0.152 C 
ATOM     12  C   UNL     1     -36.723  27.420   0.192  0.00  0.00    +0.168 C 
ATOM     13  C   UNL     1     -34.689  28.003   3.213  0.00  0.00    +0.045 C 
ATOM     14  C   UNL     1     -36.682  25.710   2.069  0.00  0.00    +0.157 C 
ATOM     15  C   UNL     1     -35.404  28.722   2.087  0.00  0.00    +0.037 C 
ATOM     16  C   UNL     1     -37.033  25.988   0.637  0.00  0.00    +0.107 C 
ATOM     17  C   UNL     1     -37.253  23.096   3.214  0.00  0.00    +0.044 C 
ATOM     18  C   UNL     1     -32.326  28.384   2.483  0.00  0.00    +0.046 C 
ATOM     19  C   UNL     1     -36.731  27.421  -1.352  0.00  0.00    +0.047 C 
ENDROOT
BRANCH   5  20
ATOM     20  C   UNL     1     -32.694  24.195  -0.347  0.00  0.00    +0.000 C 
ATOM     21  C   UNL     1     -32.211  22.760  -0.515  0.00  0.00    +0.000 C 
ATOM     22  C   UNL     1     -32.700  24.927  -1.682  0.00  0.00    +0.000 C 
ENDBRANCH   5  20
BRANCH   7  23
ATOM     23  O   UNL     1     -34.920  22.665   3.338  0.00  0.00    -0.455 OA
BRANCH  23  25
ATOM     24  O   UNL     1     -35.634  20.469   3.306  0.00  0.00    -0.250 OA
ATOM     25  C   UNL     1     -35.316  21.490   3.900  0.00  0.00    +0.317 C 
ATOM     26  C   UNL     1     -35.309  21.625   5.392  0.00  0.00    +0.121 C 
ENDBRANCH  23  25
ENDBRANCH   7  23
BRANCH   8  27
ATOM     27  O   UNL     1     -32.923  26.484   3.796  0.00  0.00    -0.453 OA
BRANCH  27  29
ATOM     28  O   UNL     1     -32.937  27.824   5.679  0.00  0.00    -0.250 OA
ATOM     29  C   UNL     1     -33.305  26.833   5.062  0.00  0.00    +0.317 C 
ATOM     30  C   UNL     1     -34.258  25.812   5.606  0.00  0.00    +0.121 C 
ENDBRANCH  27  29
ENDBRANCH   8  27
BRANCH  12  31
ATOM     31  O   UNL     1     -37.823  28.244   0.598  0.00  0.00    -0.453 OA
BRANCH  31  33
ATOM     32  O   UNL     1     -39.662  27.288  -0.422  0.00  0.00    -0.250 OA
ATOM     33  C   UNL     1     -38.908  28.232  -0.231  0.00  0.00    +0.317 C 
ATOM     34  C   UNL     1     -39.054  29.569  -0.891  0.00  0.00    +0.121 C 
ENDBRANCH  31  33
ENDBRANCH  12  31
TORSDOF 7
ENDMDL
MODEL 8
REMARK VINA RESULT:      -5.7      2.525      6.969
REMARK  Name = 21597388
REMARK  7 active torsions:
REMARK  status: ('A' for Active; 'I' for Inactive)
REMARK    1  A    between atoms: C_5  and  C_20
REMARK    2  A    between atoms: C_7  and  O_23
REMARK    3  A    between atoms: C_8  and  O_27
REMARK    4  A    between atoms: C_12  and  O_31
REMARK    5  A    between atoms: O_23  and  C_25
REMARK    6  A    between atoms: O_27  and  C_29
REMARK    7  A    between atoms: O_31  and  C_33
REMARK                            x       y       z     vdW  Elec       q    Type
REMARK                         _______ _______ _______ _____ _____    ______ ____
ROOT
ATOM      1  O   UNL     1     -35.624  20.721  -1.462  0.00  0.00    -0.352 OA
ATOM      2  O   UNL     1     -35.776  20.267   2.673  0.00  0.00    -0.296 OA
ATOM      3  C   UNL     1     -36.101  22.734  -0.058  0.00  0.00    +0.041 C 
ATOM      4  C   UNL     1     -35.993  22.326   1.446  0.00  0.00    +0.097 C 
ATOM      5  C   UNL     1     -34.837  23.479  -0.607  0.00  0.00    +0.003 C 
ATOM      6  C   UNL     1     -36.628  21.643  -1.049  0.00  0.00    +0.152 C 
ATOM      7  C   UNL     1     -35.469  23.487   2.338  0.00  0.00    +0.142 C 
ATOM      8  C   UNL     1     -37.997  20.984  -0.772  0.00  0.00    +0.161 C 
ATOM      9  C   UNL     1     -34.356  24.582   0.347  0.00  0.00    +0.004 C 
ATOM     10  C   UNL     1     -34.182  24.103   1.781  0.00  0.00    +0.041 C 
ATOM     11  C   UNL     1     -35.483  19.478  -0.784  0.00  0.00    +0.152 C 
ATOM     12  C   UNL     1     -34.206  19.445   0.107  0.00  0.00    +0.168 C 
ATOM     13  C   UNL     1     -37.876  19.809   0.186  0.00  0.00    +0.045 C 
ATOM     14  C   UNL     1     -35.312  20.995   1.787  0.00  0.00    +0.157 C 
ATOM     15  C   UNL     1     -36.769  18.851  -0.209  0.00  0.00    +0.037 C 
ATOM     16  C   UNL     1     -34.038  20.595   1.104  0.00  0.00    +0.107 C 
ATOM     17  C   UNL     1     -35.271  23.089   3.807  0.00  0.00    +0.044 C 
ATOM     18  C   UNL     1     -38.625  20.507  -2.097  0.00  0.00    +0.046 C 
ATOM     19  C   UNL     1     -32.950  19.444  -0.792  0.00  0.00    +0.047 C 
ENDROOT
BRANCH   5  20
ATOM     20  C   UNL     1     -35.066  24.114  -1.988  0.00  0.00    +0.000 C 
ATOM     21  C   UNL     1     -35.057  25.634  -1.876  0.00  0.00    +0.000 C 
ATOM     22  C   UNL     1     -34.008  23.634  -2.972  0.00  0.00    +0.000 C 
ENDBRANCH   5  20
BRANCH   7  23
ATOM     23  O   UNL     1     -36.490  24.501   2.336  0.00  0.00    -0.455 OA
BRANCH  23  25
ATOM     24  O   UNL     1     -37.866  24.324   4.183  0.00  0.00    -0.250 OA
ATOM     25  C   UNL     1     -36.956  24.859   3.564  0.00  0.00    +0.317 C 
ATOM     26  C   UNL     1     -36.177  26.036   4.068  0.00  0.00    +0.121 C 
ENDBRANCH  23  25
ENDBRANCH   7  23
BRANCH   8  27
ATOM     27  O   UNL     1     -38.890  21.948  -0.214  0.00  0.00    -0.453 OA
BRANCH  27  29
ATOM     28  O   UNL     1     -40.786  20.783   0.405  0.00  0.00    -0.250 OA
ATOM     29  C   UNL     1     -39.807  21.464   0.677  0.00  0.00    +0.317 C 
ATOM     30  C   UNL     1     -39.441  21.890   2.066  0.00  0.00    +0.121 C 
ENDBRANCH  27  29
ENDBRANCH   8  27
BRANCH  12  31
ATOM     31  O   UNL     1     -34.166  18.221   0.850  0.00  0.00    -0.453 OA
BRANCH  31  33
ATOM     32  O   UNL     1     -32.016  17.912   1.636  0.00  0.00    -0.250 OA
ATOM     33  C   UNL     1     -32.949  17.604   0.908  0.00  0.00    +0.317 C 
ATOM     34  C   UNL     1     -32.913  16.466  -0.067  0.00  0.00    +0.121 C 
ENDBRANCH  31  33
ENDBRANCH  12  31
TORSDOF 7
ENDMDL
MODEL 9
REMARK VINA RESULT:      -5.6      2.037      4.331
REMARK  Name = 21597388
REMARK  7 active torsions:
REMARK  status: ('A' for Active; 'I' for Inactive)
REMARK    1  A    between atoms: C_5  and  C_20
REMARK    2  A    between atoms: C_7  and  O_23
REMARK    3  A    between atoms: C_8  and  O_27
REMARK    4  A    between atoms: C_12  and  O_31
REMARK    5  A    between atoms: O_23  and  C_25
REMARK    6  A    between atoms: O_27  and  C_29
REMARK    7  A    between atoms: O_31  and  C_33
REMARK                            x       y       z     vdW  Elec       q    Type
REMARK                         _______ _______ _______ _____ _____    ______ ____
ROOT
ATOM      1  O   UNL     1     -36.982  26.099   1.095  0.00  0.00    -0.352 OA
ATOM      2  O   UNL     1     -38.472  22.513   2.595  0.00  0.00    -0.296 OA
ATOM      3  C   UNL     1     -35.610  24.028   0.817  0.00  0.00    +0.041 C 
ATOM      4  C   UNL     1     -36.430  22.813   1.357  0.00  0.00    +0.097 C 
ATOM      5  C   UNL     1     -35.630  24.165  -0.745  0.00  0.00    +0.003 C 
ATOM      6  C   UNL     1     -35.823  25.400   1.538  0.00  0.00    +0.152 C 
ATOM      7  C   UNL     1     -36.133  21.503   0.573  0.00  0.00    +0.142 C 
ATOM      8  C   UNL     1     -35.596  25.483   3.063  0.00  0.00    +0.161 C 
ATOM      9  C   UNL     1     -35.369  22.823  -1.445  0.00  0.00    +0.004 C 
ATOM     10  C   UNL     1     -36.261  21.698  -0.941  0.00  0.00    +0.041 C 
ATOM     11  C   UNL     1     -38.202  25.974   1.816  0.00  0.00    +0.152 C 
ATOM     12  C   UNL     1     -39.245  25.109   1.049  0.00  0.00    +0.168 C 
ATOM     13  C   UNL     1     -36.836  25.076   3.843  0.00  0.00    +0.045 C 
ATOM     14  C   UNL     1     -37.932  23.004   1.596  0.00  0.00    +0.157 C 
ATOM     15  C   UNL     1     -38.088  25.768   3.341  0.00  0.00    +0.037 C 
ATOM     16  C   UNL     1     -38.779  23.725   0.588  0.00  0.00    +0.107 C 
ATOM     17  C   UNL     1     -36.988  20.312   1.026  0.00  0.00    +0.044 C 
ATOM     18  C   UNL     1     -35.188  26.918   3.454  0.00  0.00    +0.046 C 
ATOM     19  C   UNL     1     -39.715  25.867  -0.212  0.00  0.00    +0.047 C 
ENDROOT
BRANCH   5  20
ATOM     20  C   UNL     1     -34.604  25.181  -1.272  0.00  0.00    +0.000 C 
ATOM     21  C   UNL     1     -33.330  24.467  -1.706  0.00  0.00    +0.000 C 
ATOM     22  C   UNL     1     -35.199  25.982  -2.422  0.00  0.00    +0.000 C 
ENDBRANCH   5  20
BRANCH   7  23
ATOM     23  O   UNL     1     -34.770  21.147   0.867  0.00  0.00    -0.455 OA
BRANCH  23  25
ATOM     24  O   UNL     1     -35.070  20.316   3.001  0.00  0.00    -0.250 OA
ATOM     25  C   UNL     1     -34.609  20.241   1.870  0.00  0.00    +0.317 C 
ATOM     26  C   UNL     1     -33.763  19.104   1.383  0.00  0.00    +0.121 C 
ENDBRANCH  23  25
ENDBRANCH   7  23
BRANCH   8  27
ATOM     27  O   UNL     1     -34.513  24.630   3.434  0.00  0.00    -0.453 OA
BRANCH  27  29
ATOM     28  O   UNL     1     -33.761  25.329   5.504  0.00  0.00    -0.250 OA
ATOM     29  C   UNL     1     -34.291  24.500   4.777  0.00  0.00    +0.317 C 
ATOM     30  C   UNL     1     -34.799  23.172   5.251  0.00  0.00    +0.121 C 
ENDBRANCH  27  29
ENDBRANCH   8  27
BRANCH  12  31
ATOM     31  O   UNL     1     -40.410  24.922   1.861  0.00  0.00    -0.453 OA
BRANCH  31  33
ATOM     32  O   UNL     1     -41.168  27.086   2.146  0.00  0.00    -0.250 OA
ATOM     33  C   UNL     1     -41.337  25.924   1.804  0.00  0.00    +0.317 C 
ATOM     34  C   UNL     1     -42.622  25.390   1.247  0.00  0.00    +0.121 C 
ENDBRANCH  31  33
ENDBRANCH  12  31
TORSDOF 7
ENDMDL
