MODEL 1
REMARK VINA RESULT:      -6.3      0.000      0.000
REMARK  Name = 191554
REMARK  8 active torsions:
REMARK  status: ('A' for Active; 'I' for Inactive)
REMARK    1  A    between atoms: C_2  and  O_18
REMARK    2  A    between atoms: C_3  and  O_20
REMARK    3  A    between atoms: C_4  and  N_6
REMARK    4  A    between atoms: C_5  and  C_22
REMARK    5  A    between atoms: C_22  and  O_23
REMARK    6  A    between atoms: O_23  and  P_24
REMARK    7  A    between atoms: P_24  and  C_27
REMARK    8  A    between atoms: P_24  and  O_28
REMARK                            x       y       z     vdW  Elec       q    Type
REMARK                         _______ _______ _______ _____ _____    ______ ____
ROOT
ATOM      1  O   UNL     1     -35.975  22.358   0.928  0.00  0.00    -0.333 OA
ATOM      2  C   UNL     1     -35.532  20.751   2.655  0.00  0.00    +0.187 C 
ATOM      3  C   UNL     1     -35.722  22.132   3.252  0.00  0.00    +0.171 C 
ATOM      4  C   UNL     1     -35.430  21.040   1.156  0.00  0.00    +0.225 C 
ATOM      5  C   UNL     1     -36.510  22.846   2.169  0.00  0.00    +0.176 C 
ENDROOT
BRANCH   4   6
ATOM      6  N   UNL     1     -34.062  20.982   0.638  0.00  0.00    -0.247 N 
ATOM      7  N   UNL     1     -32.193  21.629  -0.393  0.00  0.00    -0.242 NA
ATOM      8  N   UNL     1     -33.391  18.761   1.358  0.00  0.00    -0.228 NA
ATOM      9  N   UNL     1     -31.103  18.259   0.673  0.00  0.00    -0.229 NA
ATOM     10  C   UNL     1     -33.185  19.940   0.752  0.00  0.00    +0.152 C 
ATOM     11  C   UNL     1     -33.420  21.972  -0.059  0.00  0.00    +0.223 C 
ATOM     12  C   UNL     1     -32.033  20.362   0.108  0.00  0.00    +0.140 C 
ATOM     13  C   UNL     1     -30.966  19.470   0.080  0.00  0.00    +0.143 C 
ATOM     14  C   UNL     1     -32.289  17.984   1.266  0.00  0.00    +0.253 C 
ATOM     15  N   UNL     1     -29.758  19.814  -0.551  0.00  0.00    -0.342 N 
ATOM     16  H   UNL     1     -29.010  19.176  -0.564  0.00  0.00    +0.144 HD
ATOM     17  H   UNL     1     -29.661  20.695  -0.980  0.00  0.00    +0.144 HD
ENDBRANCH   4   6
BRANCH   2  18
ATOM     18  O   UNL     1     -36.666  19.922   2.898  0.00  0.00    -0.378 OA
ATOM     19  H   UNL     1     -37.397  20.197   2.323  0.00  0.00    +0.211 HD
ENDBRANCH   2  18
BRANCH   3  20
ATOM     20  O   UNL     1     -36.406  22.121   4.487  0.00  0.00    -0.379 OA
ATOM     21  H   UNL     1     -37.022  21.372   4.509  0.00  0.00    +0.211 HD
ENDBRANCH   3  20
BRANCH   5  22
ATOM     22  C   UNL     1     -36.383  24.358   2.224  0.00  0.00    +0.183 C 
BRANCH  22  23
ATOM     23  O   UNL     1     -36.567  24.780   3.565  0.00  0.00    -0.291 OA
BRANCH  23  24
ATOM     24  P   UNL     1     -35.689  25.989   4.188  0.00  0.00    +0.356 P 
ATOM     25  O   UNL     1     -35.295  27.041   3.192  0.00  0.00    -0.257 OA
BRANCH  24  27
ATOM     26 CL   UNL     1     -33.676  26.354   6.223  0.00  0.00    -0.100 Cl
ATOM     27  C   UNL     1     -34.316  25.226   5.020  0.00  0.00    +0.210 C 
ENDBRANCH  24  27
BRANCH  24  28
ATOM     28  O   UNL     1     -36.599  26.550   5.402  0.00  0.00    -0.323 OA
ATOM     29  H   UNL     1     -37.290  25.903   5.613  0.00  0.00    +0.220 HD
ENDBRANCH  24  28
ENDBRANCH  23  24
ENDBRANCH  22  23
ENDBRANCH   5  22
TORSDOF 8
ENDMDL
MODEL 2
REMARK VINA RESULT:      -6.3      5.006      7.113
REMARK  Name = 191554
REMARK  8 active torsions:
REMARK  status: ('A' for Active; 'I' for Inactive)
REMARK    1  A    between atoms: C_2  and  O_18
REMARK    2  A    between atoms: C_3  and  O_20
REMARK    3  A    between atoms: C_4  and  N_6
REMARK    4  A    between atoms: C_5  and  C_22
REMARK    5  A    between atoms: C_22  and  O_23
REMARK    6  A    between atoms: O_23  and  P_24
REMARK    7  A    between atoms: P_24  and  C_27
REMARK    8  A    between atoms: P_24  and  O_28
REMARK                            x       y       z     vdW  Elec       q    Type
REMARK                         _______ _______ _______ _____ _____    ______ ____
ROOT
ATOM      1  O   UNL     1     -35.673  24.021   5.024  0.00  0.00    -0.333 OA
ATOM      2  C   UNL     1     -37.273  25.044   3.556  0.00  0.00    +0.187 C 
ATOM      3  C   UNL     1     -36.926  23.649   3.072  0.00  0.00    +0.171 C 
ATOM      4  C   UNL     1     -36.221  25.299   4.637  0.00  0.00    +0.225 C 
ATOM      5  C   UNL     1     -36.402  22.991   4.336  0.00  0.00    +0.176 C 
ENDROOT
BRANCH   4   6
ATOM      6  N   UNL     1     -35.138  26.184   4.206  0.00  0.00    -0.247 N 
ATOM      7  N   UNL     1     -33.898  27.462   2.863  0.00  0.00    -0.242 NA
ATOM      8  N   UNL     1     -33.878  26.409   6.272  0.00  0.00    -0.228 NA
ATOM      9  N   UNL     1     -31.932  27.852   5.971  0.00  0.00    -0.229 NA
ATOM     10  C   UNL     1     -34.109  26.656   4.973  0.00  0.00    +0.152 C 
ATOM     11  C   UNL     1     -34.966  26.697   2.947  0.00  0.00    +0.223 C 
ATOM     12  C   UNL     1     -33.354  27.447   4.122  0.00  0.00    +0.140 C 
ATOM     13  C   UNL     1     -32.228  28.057   4.665  0.00  0.00    +0.143 C 
ATOM     14  C   UNL     1     -32.763  27.053   6.683  0.00  0.00    +0.253 C 
ATOM     15  N   UNL     1     -31.403  28.877   3.875  0.00  0.00    -0.342 N 
ATOM     16  H   UNL     1     -30.610  29.303   4.269  0.00  0.00    +0.144 HD
ATOM     17  H   UNL     1     -31.622  29.024   2.926  0.00  0.00    +0.144 HD
ENDBRANCH   4   6
BRANCH   2  18
ATOM     18  O   UNL     1     -38.571  25.080   4.145  0.00  0.00    -0.378 OA
ATOM     19  H   UNL     1     -38.680  25.908   4.639  0.00  0.00    +0.211 HD
ENDBRANCH   2  18
BRANCH   3  20
ATOM     20  O   UNL     1     -38.028  22.953   2.529  0.00  0.00    -0.379 OA
ATOM     21  H   UNL     1     -38.244  23.321   1.657  0.00  0.00    +0.211 HD
ENDBRANCH   3  20
BRANCH   5  22
ATOM     22  C   UNL     1     -35.489  21.807   4.067  0.00  0.00    +0.183 C 
BRANCH  22  23
ATOM     23  O   UNL     1     -35.224  21.746   2.676  0.00  0.00    -0.291 OA
BRANCH  23  24
ATOM     24  P   UNL     1     -35.430  20.371   1.847  0.00  0.00    +0.356 P 
ATOM     25  O   UNL     1     -34.218  19.486   1.809  0.00  0.00    -0.257 OA
BRANCH  24  27
ATOM     26 CL   UNL     1     -36.437  19.385  -0.672  0.00  0.00    -0.100 Cl
ATOM     27  C   UNL     1     -36.035  20.844   0.244  0.00  0.00    +0.210 C 
ENDBRANCH  24  27
BRANCH  24  28
ATOM     28  O   UNL     1     -36.717  19.681   2.545  0.00  0.00    -0.323 OA
ATOM     29  H   UNL     1     -37.521  20.156   2.281  0.00  0.00    +0.220 HD
ENDBRANCH  24  28
ENDBRANCH  23  24
ENDBRANCH  22  23
ENDBRANCH   5  22
TORSDOF 8
ENDMDL
MODEL 3
REMARK VINA RESULT:      -6.2      4.333      6.403
REMARK  Name = 191554
REMARK  8 active torsions:
REMARK  status: ('A' for Active; 'I' for Inactive)
REMARK    1  A    between atoms: C_2  and  O_18
REMARK    2  A    between atoms: C_3  and  O_20
REMARK    3  A    between atoms: C_4  and  N_6
REMARK    4  A    between atoms: C_5  and  C_22
REMARK    5  A    between atoms: C_22  and  O_23
REMARK    6  A    between atoms: O_23  and  P_24
REMARK    7  A    between atoms: P_24  and  C_27
REMARK    8  A    between atoms: P_24  and  O_28
REMARK                            x       y       z     vdW  Elec       q    Type
REMARK                         _______ _______ _______ _____ _____    ______ ____
ROOT
ATOM      1  O   UNL     1     -35.800  22.156   0.661  0.00  0.00    -0.333 OA
ATOM      2  C   UNL     1     -35.339  20.408   2.240  0.00  0.00    +0.187 C 
ATOM      3  C   UNL     1     -36.573  20.075   1.425  0.00  0.00    +0.171 C 
ATOM      4  C   UNL     1     -35.081  21.873   1.881  0.00  0.00    +0.225 C 
ATOM      5  C   UNL     1     -36.384  20.932   0.187  0.00  0.00    +0.176 C 
ENDROOT
BRANCH   4   6
ATOM      6  N   UNL     1     -35.496  22.816   2.921  0.00  0.00    -0.247 N 
ATOM      7  N   UNL     1     -36.335  23.556   4.850  0.00  0.00    -0.242 NA
ATOM      8  N   UNL     1     -34.877  24.931   1.898  0.00  0.00    -0.228 NA
ATOM      9  N   UNL     1     -35.417  26.813   3.356  0.00  0.00    -0.229 NA
ATOM     10  C   UNL     1     -35.385  24.178   2.886  0.00  0.00    +0.152 C 
ATOM     11  C   UNL     1     -36.073  22.492   4.121  0.00  0.00    +0.223 C 
ATOM     12  C   UNL     1     -35.909  24.617   4.091  0.00  0.00    +0.140 C 
ATOM     13  C   UNL     1     -35.915  25.990   4.311  0.00  0.00    +0.143 C 
ATOM     14  C   UNL     1     -34.936  26.241   2.226  0.00  0.00    +0.253 C 
ATOM     15  N   UNL     1     -36.428  26.524   5.506  0.00  0.00    -0.342 N 
ATOM     16  H   UNL     1     -36.426  27.497   5.651  0.00  0.00    +0.144 HD
ATOM     17  H   UNL     1     -36.788  25.924   6.198  0.00  0.00    +0.144 HD
ENDBRANCH   4   6
BRANCH   2  18
ATOM     18  O   UNL     1     -34.222  19.621   1.834  0.00  0.00    -0.378 OA
ATOM     19  H   UNL     1     -33.655  19.443   2.601  0.00  0.00    +0.211 HD
ENDBRANCH   2  18
BRANCH   3  20
ATOM     20  O   UNL     1     -36.684  18.702   1.110  0.00  0.00    -0.379 OA
ATOM     21  H   UNL     1     -37.619  18.475   0.981  0.00  0.00    +0.211 HD
ENDBRANCH   3  20
BRANCH   5  22
ATOM     22  C   UNL     1     -37.680  21.231  -0.546  0.00  0.00    +0.183 C 
BRANCH  22  23
ATOM     23  O   UNL     1     -38.735  20.533   0.094  0.00  0.00    -0.291 OA
BRANCH  23  24
ATOM     24  P   UNL     1     -40.036  21.316   0.654  0.00  0.00    +0.356 P 
ATOM     25  O   UNL     1     -41.322  20.933  -0.018  0.00  0.00    -0.257 OA
BRANCH  24  27
ATOM     26 CL   UNL     1     -38.908  23.560   2.077  0.00  0.00    -0.100 Cl
ATOM     27  C   UNL     1     -39.652  23.049   0.556  0.00  0.00    +0.210 C 
ENDBRANCH  24  27
BRANCH  24  28
ATOM     28  O   UNL     1     -40.019  21.018   2.245  0.00  0.00    -0.323 OA
ATOM     29  H   UNL     1     -40.526  20.212   2.428  0.00  0.00    +0.220 HD
ENDBRANCH  24  28
ENDBRANCH  23  24
ENDBRANCH  22  23
ENDBRANCH   5  22
TORSDOF 8
ENDMDL
MODEL 4
REMARK VINA RESULT:      -6.1      4.792      7.057
REMARK  Name = 191554
REMARK  8 active torsions:
REMARK  status: ('A' for Active; 'I' for Inactive)
REMARK    1  A    between atoms: C_2  and  O_18
REMARK    2  A    between atoms: C_3  and  O_20
REMARK    3  A    between atoms: C_4  and  N_6
REMARK    4  A    between atoms: C_5  and  C_22
REMARK    5  A    between atoms: C_22  and  O_23
REMARK    6  A    between atoms: O_23  and  P_24
REMARK    7  A    between atoms: P_24  and  C_27
REMARK    8  A    between atoms: P_24  and  O_28
REMARK                            x       y       z     vdW  Elec       q    Type
REMARK                         _______ _______ _______ _____ _____    ______ ____
ROOT
ATOM      1  O   UNL     1     -34.380  24.462   5.192  0.00  0.00    -0.333 OA
ATOM      2  C   UNL     1     -35.946  26.187   4.611  0.00  0.00    +0.187 C 
ATOM      3  C   UNL     1     -36.445  24.835   4.138  0.00  0.00    +0.171 C 
ATOM      4  C   UNL     1     -34.501  25.891   5.018  0.00  0.00    +0.225 C 
ATOM      5  C   UNL     1     -35.683  23.877   5.034  0.00  0.00    +0.176 C 
ENDROOT
BRANCH   4   6
ATOM      6  N   UNL     1     -33.510  26.348   4.041  0.00  0.00    -0.247 N 
ATOM      7  N   UNL     1     -32.230  26.353   2.215  0.00  0.00    -0.242 NA
ATOM      8  N   UNL     1     -32.805  28.444   5.048  0.00  0.00    -0.228 NA
ATOM      9  N   UNL     1     -31.110  29.556   3.689  0.00  0.00    -0.229 NA
ATOM     10  C   UNL     1     -32.775  27.499   4.096  0.00  0.00    +0.152 C 
ATOM     11  C   UNL     1     -33.146  25.694   2.893  0.00  0.00    +0.223 C 
ATOM     12  C   UNL     1     -31.989  27.484   2.954  0.00  0.00    +0.140 C 
ATOM     13  C   UNL     1     -31.133  28.563   2.766  0.00  0.00    +0.143 C 
ATOM     14  C   UNL     1     -31.935  29.436   4.756  0.00  0.00    +0.253 C 
ATOM     15  N   UNL     1     -30.300  28.631   1.636  0.00  0.00    -0.342 N 
ATOM     16  H   UNL     1     -29.698  29.399   1.513  0.00  0.00    +0.144 HD
ATOM     17  H   UNL     1     -30.319  27.908   0.967  0.00  0.00    +0.144 HD
ENDBRANCH   4   6
BRANCH   2  18
ATOM     18  O   UNL     1     -36.672  26.635   5.753  0.00  0.00    -0.378 OA
ATOM     19  H   UNL     1     -36.051  26.946   6.431  0.00  0.00    +0.211 HD
ENDBRANCH   2  18
BRANCH   3  20
ATOM     20  O   UNL     1     -37.843  24.679   4.260  0.00  0.00    -0.379 OA
ATOM     21  H   UNL     1     -38.089  23.771   4.021  0.00  0.00    +0.211 HD
ENDBRANCH   3  20
BRANCH   5  22
ATOM     22  C   UNL     1     -35.552  22.480   4.453  0.00  0.00    +0.183 C 
BRANCH  22  23
ATOM     23  O   UNL     1     -36.601  22.275   3.522  0.00  0.00    -0.291 OA
BRANCH  23  24
ATOM     24  P   UNL     1     -36.380  21.365   2.202  0.00  0.00    +0.356 P 
ATOM     25  O   UNL     1     -35.022  21.506   1.577  0.00  0.00    -0.257 OA
BRANCH  24  27
ATOM     26 CL   UNL     1     -39.245  21.659   2.011  0.00  0.00    -0.100 Cl
ATOM     27  C   UNL     1     -37.727  21.746   1.107  0.00  0.00    +0.210 C 
ENDBRANCH  24  27
BRANCH  24  28
ATOM     28  O   UNL     1     -36.715  19.863   2.701  0.00  0.00    -0.323 OA
ATOM     29  H   UNL     1     -36.220  19.674   3.513  0.00  0.00    +0.220 HD
ENDBRANCH  24  28
ENDBRANCH  23  24
ENDBRANCH  22  23
ENDBRANCH   5  22
TORSDOF 8
ENDMDL
MODEL 5
REMARK VINA RESULT:      -6.0      4.155      5.865
REMARK  Name = 191554
REMARK  8 active torsions:
REMARK  status: ('A' for Active; 'I' for Inactive)
REMARK    1  A    between atoms: C_2  and  O_18
REMARK    2  A    between atoms: C_3  and  O_20
REMARK    3  A    between atoms: C_4  and  N_6
REMARK    4  A    between atoms: C_5  and  C_22
REMARK    5  A    between atoms: C_22  and  O_23
REMARK    6  A    between atoms: O_23  and  P_24
REMARK    7  A    between atoms: P_24  and  C_27
REMARK    8  A    between atoms: P_24  and  O_28
REMARK                            x       y       z     vdW  Elec       q    Type
REMARK                         _______ _______ _______ _____ _____    ______ ____
ROOT
ATOM      1  O   UNL     1     -35.070  26.262   2.873  0.00  0.00    -0.333 OA
ATOM      2  C   UNL     1     -35.756  25.557   5.062  0.00  0.00    +0.187 C 
ATOM      3  C   UNL     1     -34.288  25.937   5.063  0.00  0.00    +0.171 C 
ATOM      4  C   UNL     1     -36.097  25.526   3.571  0.00  0.00    +0.225 C 
ATOM      5  C   UNL     1     -34.187  26.841   3.848  0.00  0.00    +0.176 C 
ENDROOT
BRANCH   4   6
ATOM      6  N   UNL     1     -36.190  24.174   3.018  0.00  0.00    -0.247 N 
ATOM      7  N   UNL     1     -35.533  22.202   2.208  0.00  0.00    -0.242 NA
ATOM      8  N   UNL     1     -38.600  23.885   2.907  0.00  0.00    -0.228 NA
ATOM      9  N   UNL     1     -39.191  21.693   2.013  0.00  0.00    -0.229 NA
ATOM     10  C   UNL     1     -37.333  23.478   2.737  0.00  0.00    +0.152 C 
ATOM     11  C   UNL     1     -35.136  23.364   2.682  0.00  0.00    +0.223 C 
ATOM     12  C   UNL     1     -36.903  22.259   2.238  0.00  0.00    +0.140 C 
ATOM     13  C   UNL     1     -37.888  21.349   1.869  0.00  0.00    +0.143 C 
ATOM     14  C   UNL     1     -39.462  22.921   2.516  0.00  0.00    +0.253 C 
ATOM     15  N   UNL     1     -37.544  20.087   1.353  0.00  0.00    -0.342 N 
ATOM     16  H   UNL     1     -38.249  19.451   1.095  0.00  0.00    +0.144 HD
ATOM     17  H   UNL     1     -36.596  19.840   1.250  0.00  0.00    +0.144 HD
ENDBRANCH   4   6
BRANCH   2  18
ATOM     18  O   UNL     1     -36.548  26.553   5.705  0.00  0.00    -0.378 OA
ATOM     19  H   UNL     1     -36.889  26.204   6.544  0.00  0.00    +0.211 HD
ENDBRANCH   2  18
BRANCH   3  20
ATOM     20  O   UNL     1     -33.877  26.590   6.246  0.00  0.00    -0.379 OA
ATOM     21  H   UNL     1     -33.959  27.549   6.131  0.00  0.00    +0.211 HD
ENDBRANCH   3  20
BRANCH   5  22
ATOM     22  C   UNL     1     -32.783  26.935   3.278  0.00  0.00    +0.183 C 
BRANCH  22  23
ATOM     23  O   UNL     1     -31.901  27.342   4.311  0.00  0.00    -0.291 OA
BRANCH  23  24
ATOM     24  P   UNL     1     -31.583  28.908   4.567  0.00  0.00    +0.356 P 
ATOM     25  O   UNL     1     -31.947  29.807   3.421  0.00  0.00    -0.257 OA
BRANCH  24  27
ATOM     26 CL   UNL     1     -29.777  29.252   6.792  0.00  0.00    -0.100 Cl
ATOM     27  C   UNL     1     -29.873  28.996   5.045  0.00  0.00    +0.210 C 
ENDBRANCH  24  27
BRANCH  24  28
ATOM     28  O   UNL     1     -32.373  29.250   5.938  0.00  0.00    -0.323 OA
ATOM     29  H   UNL     1     -32.314  30.201   6.116  0.00  0.00    +0.220 HD
ENDBRANCH  24  28
ENDBRANCH  23  24
ENDBRANCH  22  23
ENDBRANCH   5  22
TORSDOF 8
ENDMDL
MODEL 6
REMARK VINA RESULT:      -5.9      2.559      4.084
REMARK  Name = 191554
REMARK  8 active torsions:
REMARK  status: ('A' for Active; 'I' for Inactive)
REMARK    1  A    between atoms: C_2  and  O_18
REMARK    2  A    between atoms: C_3  and  O_20
REMARK    3  A    between atoms: C_4  and  N_6
REMARK    4  A    between atoms: C_5  and  C_22
REMARK    5  A    between atoms: C_22  and  O_23
REMARK    6  A    between atoms: O_23  and  P_24
REMARK    7  A    between atoms: P_24  and  C_27
REMARK    8  A    between atoms: P_24  and  O_28
REMARK                            x       y       z     vdW  Elec       q    Type
REMARK                         _______ _______ _______ _____ _____    ______ ____
ROOT
ATOM      1  O   UNL     1     -35.826  25.125   2.208  0.00  0.00    -0.333 OA
ATOM      2  C   UNL     1     -37.049  24.618   4.209  0.00  0.00    +0.187 C 
ATOM      3  C   UNL     1     -35.965  25.639   4.495  0.00  0.00    +0.171 C 
ATOM      4  C   UNL     1     -36.703  24.141   2.797  0.00  0.00    +0.225 C 
ATOM      5  C   UNL     1     -35.707  26.229   3.121  0.00  0.00    +0.176 C 
ENDROOT
BRANCH   4   6
ATOM      6  N   UNL     1     -36.056  22.829   2.762  0.00  0.00    -0.247 N 
ATOM      7  N   UNL     1     -35.207  20.901   3.496  0.00  0.00    -0.242 NA
ATOM      8  N   UNL     1     -35.636  22.587   0.381  0.00  0.00    -0.228 NA
ATOM      9  N   UNL     1     -34.536  20.465  -0.115  0.00  0.00    -0.229 NA
ATOM     10  C   UNL     1     -35.594  22.171   1.656  0.00  0.00    +0.152 C 
ATOM     11  C   UNL     1     -35.799  22.025   3.842  0.00  0.00    +0.223 C 
ATOM     12  C   UNL     1     -35.073  20.979   2.133  0.00  0.00    +0.140 C 
ATOM     13  C   UNL     1     -34.529  20.110   1.193  0.00  0.00    +0.143 C 
ATOM     14  C   UNL     1     -35.081  21.663  -0.435  0.00  0.00    +0.253 C 
ATOM     15  N   UNL     1     -33.979  18.878   1.587  0.00  0.00    -0.342 N 
ATOM     16  H   UNL     1     -33.597  18.271   0.914  0.00  0.00    +0.144 HD
ATOM     17  H   UNL     1     -33.976  18.623   2.538  0.00  0.00    +0.144 HD
ENDBRANCH   4   6
BRANCH   2  18
ATOM     18  O   UNL     1     -38.340  25.223   4.198  0.00  0.00    -0.378 OA
ATOM     19  H   UNL     1     -38.246  26.188   4.187  0.00  0.00    +0.211 HD
ENDBRANCH   2  18
BRANCH   3  20
ATOM     20  O   UNL     1     -36.353  26.623   5.431  0.00  0.00    -0.379 OA
ATOM     21  H   UNL     1     -36.237  27.503   5.041  0.00  0.00    +0.211 HD
ENDBRANCH   3  20
BRANCH   5  22
ATOM     22  C   UNL     1     -34.335  26.865   2.983  0.00  0.00    +0.183 C 
BRANCH  22  23
ATOM     23  O   UNL     1     -33.939  27.367   4.248  0.00  0.00    -0.291 OA
BRANCH  23  24
ATOM     24  P   UNL     1     -32.576  28.224   4.417  0.00  0.00    +0.356 P 
ATOM     25  O   UNL     1     -31.496  27.863   3.438  0.00  0.00    -0.257 OA
BRANCH  24  27
ATOM     26 CL   UNL     1     -33.091  26.813   6.881  0.00  0.00    -0.100 Cl
ATOM     27  C   UNL     1     -32.096  28.062   6.121  0.00  0.00    +0.210 C 
ENDBRANCH  24  27
BRANCH  24  28
ATOM     28  O   UNL     1     -33.065  29.762   4.309  0.00  0.00    -0.323 OA
ATOM     29  H   UNL     1     -32.454  30.331   4.803  0.00  0.00    +0.220 HD
ENDBRANCH  24  28
ENDBRANCH  23  24
ENDBRANCH  22  23
ENDBRANCH   5  22
TORSDOF 8
ENDMDL
MODEL 7
REMARK VINA RESULT:      -5.8      2.158      2.687
REMARK  Name = 191554
REMARK  8 active torsions:
REMARK  status: ('A' for Active; 'I' for Inactive)
REMARK    1  A    between atoms: C_2  and  O_18
REMARK    2  A    between atoms: C_3  and  O_20
REMARK    3  A    between atoms: C_4  and  N_6
REMARK    4  A    between atoms: C_5  and  C_22
REMARK    5  A    between atoms: C_22  and  O_23
REMARK    6  A    between atoms: O_23  and  P_24
REMARK    7  A    between atoms: P_24  and  C_27
REMARK    8  A    between atoms: P_24  and  O_28
REMARK                            x       y       z     vdW  Elec       q    Type
REMARK                         _______ _______ _______ _____ _____    ______ ____
ROOT
ATOM      1  O   UNL     1     -35.289  21.872   0.605  0.00  0.00    -0.333 OA
ATOM      2  C   UNL     1     -36.978  20.575   1.713  0.00  0.00    +0.187 C 
ATOM      3  C   UNL     1     -36.522  21.719   2.598  0.00  0.00    +0.171 C 
ATOM      4  C   UNL     1     -35.942  20.584   0.586  0.00  0.00    +0.225 C 
ATOM      5  C   UNL     1     -35.937  22.692   1.591  0.00  0.00    +0.176 C 
ENDROOT
BRANCH   4   6
ATOM      6  N   UNL     1     -34.937  19.526   0.702  0.00  0.00    -0.247 N 
ATOM      7  N   UNL     1     -33.123  18.442   1.415  0.00  0.00    -0.242 NA
ATOM      8  N   UNL     1     -35.777  17.914  -0.910  0.00  0.00    -0.228 NA
ATOM      9  N   UNL     1     -34.343  15.942  -1.023  0.00  0.00    -0.229 NA
ATOM     10  C   UNL     1     -34.904  18.346   0.012  0.00  0.00    +0.152 C 
ATOM     11  C   UNL     1     -33.846  19.536   1.531  0.00  0.00    +0.223 C 
ATOM     12  C   UNL     1     -33.773  17.690   0.469  0.00  0.00    +0.140 C 
ATOM     13  C   UNL     1     -33.503  16.442  -0.084  0.00  0.00    +0.143 C 
ATOM     14  C   UNL     1     -35.412  16.698  -1.372  0.00  0.00    +0.253 C 
ATOM     15  N   UNL     1     -32.377  15.704   0.321  0.00  0.00    -0.342 N 
ATOM     16  H   UNL     1     -32.197  14.823  -0.077  0.00  0.00    +0.144 HD
ATOM     17  H   UNL     1     -31.769  16.071   1.003  0.00  0.00    +0.144 HD
ENDBRANCH   4   6
BRANCH   2  18
ATOM     18  O   UNL     1     -38.270  20.826   1.165  0.00  0.00    -0.378 OA
ATOM     19  H   UNL     1     -38.575  21.704   1.445  0.00  0.00    +0.211 HD
ENDBRANCH   2  18
BRANCH   3  20
ATOM     20  O   UNL     1     -37.568  22.297   3.350  0.00  0.00    -0.379 OA
ATOM     21  H   UNL     1     -37.723  21.767   4.148  0.00  0.00    +0.211 HD
ENDBRANCH   3  20
BRANCH   5  22
ATOM     22  C   UNL     1     -34.933  23.658   2.196  0.00  0.00    +0.183 C 
BRANCH  22  23
ATOM     23  O   UNL     1     -35.627  24.806   2.654  0.00  0.00    -0.291 OA
BRANCH  23  24
ATOM     24  P   UNL     1     -35.605  25.225   4.217  0.00  0.00    +0.356 P 
ATOM     25  O   UNL     1     -35.268  26.667   4.463  0.00  0.00    -0.257 OA
BRANCH  24  27
ATOM     26 CL   UNL     1     -35.481  22.943   5.979  0.00  0.00    -0.100 Cl
ATOM     27  C   UNL     1     -34.515  24.076   5.024  0.00  0.00    +0.210 C 
ENDBRANCH  24  27
BRANCH  24  28
ATOM     28  O   UNL     1     -37.069  24.798   4.759  0.00  0.00    -0.323 OA
ATOM     29  H   UNL     1     -37.746  25.330   4.312  0.00  0.00    +0.220 HD
ENDBRANCH  24  28
ENDBRANCH  23  24
ENDBRANCH  22  23
ENDBRANCH   5  22
TORSDOF 8
ENDMDL
MODEL 8
REMARK VINA RESULT:      -5.7      5.561      8.540
REMARK  Name = 191554
REMARK  8 active torsions:
REMARK  status: ('A' for Active; 'I' for Inactive)
REMARK    1  A    between atoms: C_2  and  O_18
REMARK    2  A    between atoms: C_3  and  O_20
REMARK    3  A    between atoms: C_4  and  N_6
REMARK    4  A    between atoms: C_5  and  C_22
REMARK    5  A    between atoms: C_22  and  O_23
REMARK    6  A    between atoms: O_23  and  P_24
REMARK    7  A    between atoms: P_24  and  C_27
REMARK    8  A    between atoms: P_24  and  O_28
REMARK                            x       y       z     vdW  Elec       q    Type
REMARK                         _______ _______ _______ _____ _____    ______ ____
ROOT
ATOM      1  O   UNL     1     -37.390  24.946   1.445  0.00  0.00    -0.333 OA
ATOM      2  C   UNL     1     -38.083  24.979   3.742  0.00  0.00    +0.187 C 
ATOM      3  C   UNL     1     -37.170  23.797   3.481  0.00  0.00    +0.171 C 
ATOM      4  C   UNL     1     -38.391  25.488   2.333  0.00  0.00    +0.225 C 
ATOM      5  C   UNL     1     -36.423  24.235   2.235  0.00  0.00    +0.176 C 
ENDROOT
BRANCH   4   6
ATOM      6  N   UNL     1     -39.723  25.116   1.851  0.00  0.00    -0.247 N 
ATOM      7  N   UNL     1     -41.314  23.950   0.810  0.00  0.00    -0.242 NA
ATOM      8  N   UNL     1     -41.066  26.917   2.776  0.00  0.00    -0.228 NA
ATOM      9  N   UNL     1     -43.421  26.660   2.187  0.00  0.00    -0.229 NA
ATOM     10  C   UNL     1     -40.893  25.786   2.075  0.00  0.00    +0.152 C 
ATOM     11  C   UNL     1     -40.028  24.021   1.086  0.00  0.00    +0.223 C 
ATOM     12  C   UNL     1     -41.866  25.047   1.422  0.00  0.00    +0.140 C 
ATOM     13  C   UNL     1     -43.171  25.522   1.495  0.00  0.00    +0.143 C 
ATOM     14  C   UNL     1     -42.369  27.278   2.776  0.00  0.00    +0.253 C 
ATOM     15  N   UNL     1     -44.223  24.835   0.863  0.00  0.00    -0.342 N 
ATOM     16  H   UNL     1     -45.142  25.180   0.921  0.00  0.00    +0.144 HD
ATOM     17  H   UNL     1     -44.038  24.008   0.361  0.00  0.00    +0.144 HD
ENDBRANCH   4   6
BRANCH   2  18
ATOM     18  O   UNL     1     -37.410  26.001   4.474  0.00  0.00    -0.378 OA
ATOM     19  H   UNL     1     -36.904  26.558   3.862  0.00  0.00    +0.211 HD
ENDBRANCH   2  18
BRANCH   3  20
ATOM     20  O   UNL     1     -36.296  23.515   4.554  0.00  0.00    -0.379 OA
ATOM     21  H   UNL     1     -36.262  24.278   5.152  0.00  0.00    +0.211 HD
ENDBRANCH   3  20
BRANCH   5  22
ATOM     22  C   UNL     1     -35.853  23.079   1.433  0.00  0.00    +0.183 C 
BRANCH  22  23
ATOM     23  O   UNL     1     -36.518  21.888   1.819  0.00  0.00    -0.291 OA
BRANCH  23  24
ATOM     24  P   UNL     1     -35.688  20.599   2.338  0.00  0.00    +0.356 P 
ATOM     25  O   UNL     1     -35.224  20.698   3.763  0.00  0.00    -0.257 OA
BRANCH  24  27
ATOM     26 CL   UNL     1     -33.462  18.906   1.626  0.00  0.00    -0.100 Cl
ATOM     27  C   UNL     1     -34.378  20.347   1.164  0.00  0.00    +0.210 C 
ENDBRANCH  24  27
BRANCH  24  28
ATOM     28  O   UNL     1     -36.684  19.354   2.063  0.00  0.00    -0.323 OA
ATOM     29  H   UNL     1     -37.300  19.585   1.351  0.00  0.00    +0.220 HD
ENDBRANCH  24  28
ENDBRANCH  23  24
ENDBRANCH  22  23
ENDBRANCH   5  22
TORSDOF 8
ENDMDL
MODEL 9
REMARK VINA RESULT:      -5.7      4.964      7.313
REMARK  Name = 191554
REMARK  8 active torsions:
REMARK  status: ('A' for Active; 'I' for Inactive)
REMARK    1  A    between atoms: C_2  and  O_18
REMARK    2  A    between atoms: C_3  and  O_20
REMARK    3  A    between atoms: C_4  and  N_6
REMARK    4  A    between atoms: C_5  and  C_22
REMARK    5  A    between atoms: C_22  and  O_23
REMARK    6  A    between atoms: O_23  and  P_24
REMARK    7  A    between atoms: P_24  and  C_27
REMARK    8  A    between atoms: P_24  and  O_28
REMARK                            x       y       z     vdW  Elec       q    Type
REMARK                         _______ _______ _______ _____ _____    ______ ____
ROOT
ATOM      1  O   UNL     1     -34.722  20.147   2.258  0.00  0.00    -0.333 OA
ATOM      2  C   UNL     1     -36.603  19.808   0.806  0.00  0.00    +0.187 C 
ATOM      3  C   UNL     1     -35.312  19.804   0.011  0.00  0.00    +0.171 C 
ATOM      4  C   UNL     1     -36.154  20.312   2.179  0.00  0.00    +0.225 C 
ATOM      5  C   UNL     1     -34.280  19.467   1.072  0.00  0.00    +0.176 C 
ENDROOT
BRANCH   4   6
ATOM      6  N   UNL     1     -36.498  21.713   2.432  0.00  0.00    -0.247 N 
ATOM      7  N   UNL     1     -37.312  23.758   2.073  0.00  0.00    -0.242 NA
ATOM      8  N   UNL     1     -35.627  22.002   4.682  0.00  0.00    -0.228 NA
ATOM      9  N   UNL     1     -36.011  24.270   5.497  0.00  0.00    -0.229 NA
ATOM     10  C   UNL     1     -36.242  22.428   3.568  0.00  0.00    +0.152 C 
ATOM     11  C   UNL     1     -37.142  22.556   1.564  0.00  0.00    +0.223 C 
ATOM     12  C   UNL     1     -36.756  23.692   3.326  0.00  0.00    +0.140 C 
ATOM     13  C   UNL     1     -36.623  24.631   4.343  0.00  0.00    +0.143 C 
ATOM     14  C   UNL     1     -35.558  22.997   5.594  0.00  0.00    +0.253 C 
ATOM     15  N   UNL     1     -37.116  25.938   4.184  0.00  0.00    -0.342 N 
ATOM     16  H   UNL     1     -37.016  26.593   4.911  0.00  0.00    +0.144 HD
ATOM     17  H   UNL     1     -37.560  26.197   3.345  0.00  0.00    +0.144 HD
ENDBRANCH   4   6
BRANCH   2  18
ATOM     18  O   UNL     1     -37.132  18.490   0.940  0.00  0.00    -0.378 OA
ATOM     19  H   UNL     1     -37.241  18.094   0.061  0.00  0.00    +0.211 HD
ENDBRANCH   2  18
BRANCH   3  20
ATOM     20  O   UNL     1     -35.308  18.871  -1.049  0.00  0.00    -0.379 OA
ATOM     21  H   UNL     1     -34.638  18.190  -0.878  0.00  0.00    +0.211 HD
ENDBRANCH   3  20
BRANCH   5  22
ATOM     22  C   UNL     1     -32.875  19.918   0.714  0.00  0.00    +0.183 C 
BRANCH  22  23
ATOM     23  O   UNL     1     -32.306  18.969  -0.173  0.00  0.00    -0.291 OA
BRANCH  23  24
ATOM     24  P   UNL     1     -31.092  18.008   0.300  0.00  0.00    +0.356 P 
ATOM     25  O   UNL     1     -29.728  18.615   0.138  0.00  0.00    -0.257 OA
BRANCH  24  27
ATOM     26 CL   UNL     1     -32.909  15.818  -0.179  0.00  0.00    -0.100 Cl
ATOM     27  C   UNL     1     -31.311  16.471  -0.565  0.00  0.00    +0.210 C 
ENDBRANCH  24  27
BRANCH  24  28
ATOM     28  O   UNL     1     -31.460  17.634   1.830  0.00  0.00    -0.323 OA
ATOM     29  H   UNL     1     -30.678  17.267   2.270  0.00  0.00    +0.220 HD
ENDBRANCH  24  28
ENDBRANCH  23  24
ENDBRANCH  22  23
ENDBRANCH   5  22
TORSDOF 8
ENDMDL
