MODEL 1
REMARK VINA RESULT:      -5.8      0.000      0.000
REMARK  Name = 54330827
REMARK  5 active torsions:
REMARK  status: ('A' for Active; 'I' for Inactive)
REMARK    1  A    between atoms: C1*_2  and  N1_7
REMARK    2  A    between atoms: C2*_3  and  O2*_16
REMARK    3  A    between atoms: C3*_4  and  O3*_18
REMARK    4  A    between atoms: C4*_5  and  C5*_20
REMARK    5  A    between atoms: C5*_20  and  O5*_21
REMARK                            x       y       z     vdW  Elec       q    Type
REMARK                         _______ _______ _______ _____ _____    ______ ____
ROOT
ATOM      1  O4* C   A   1     -36.779  24.218   4.606  0.00  0.00    -0.332 OA
ATOM      2  C1* C   A   1     -35.411  23.807   4.442  0.00  0.00    +0.232 C 
ATOM      3  C2* C   A   1     -34.674  24.986   3.834  0.00  0.00    +0.187 C 
ATOM      4  C3* C   A   1     -35.441  26.163   4.399  0.00  0.00    +0.171 C 
ATOM      5  C4* C   A   1     -36.873  25.643   4.391  0.00  0.00    +0.175 C 
ENDROOT
BRANCH   2   7
ATOM      6  O2  C   A   1     -35.161  21.154   5.348  0.00  0.00    -0.193 OA
ATOM      7  N1  C   A   1     -35.371  22.643   3.605  0.00  0.00    -0.201 N 
ATOM      8  N3  C   A   1     -35.356  20.276   3.263  0.00  0.00    -0.311 NA
ATOM      9  N4  C   A   1     -35.197  19.387   1.099  0.00  0.00    -0.336 N 
ATOM     10  C6  C   A   1     -35.583  22.829   2.180  0.00  0.00    +0.115 C 
ATOM     11  C5  C   A   1     -34.801  21.786   1.415  0.00  0.00    +0.098 C 
ATOM     12  C2  C   A   1     -35.282  21.348   4.137  0.00  0.00    +0.271 C 
ATOM     13  C4  C   A   1     -35.147  20.431   1.987  0.00  0.00    +0.170 C 
ATOM     14  H41 C   A   1     -35.417  18.481   1.416  0.00  0.00    +0.144 HD
ATOM     15  H42 C   A   1     -35.012  19.543   0.144  0.00  0.00    +0.144 HD
ENDBRANCH   2   7
BRANCH   3  16
ATOM     16  O2* C   A   1     -33.307  25.016   4.191  0.00  0.00    -0.378 OA
ATOM     17  H2* C   A   1     -33.134  25.797   4.738  0.00  0.00    +0.211 HD
ENDBRANCH   3  16
BRANCH   4  18
ATOM     18  O3* C   A   1     -35.065  26.393   5.757  0.00  0.00    -0.379 OA
ATOM     19  H3* C   A   1     -34.099  26.358   5.835  0.00  0.00    +0.211 HD
ENDBRANCH   4  18
BRANCH   5  20
ATOM     20  C5* C   A   1     -37.591  25.877   3.068  0.00  0.00    +0.169 C 
BRANCH  20  21
ATOM     21  O5* C   A   1     -38.878  26.404   3.338  0.00  0.00    -0.379 OA
ATOM     22  H5* C   A   1     -39.551  25.831   2.939  0.00  0.00    +0.211 HD
ENDBRANCH  20  21
ENDBRANCH   5  20
TORSDOF 5
ENDMDL
MODEL 2
REMARK VINA RESULT:      -5.4      2.694      5.460
REMARK  Name = 54330827
REMARK  5 active torsions:
REMARK  status: ('A' for Active; 'I' for Inactive)
REMARK    1  A    between atoms: C1*_2  and  N1_7
REMARK    2  A    between atoms: C2*_3  and  O2*_16
REMARK    3  A    between atoms: C3*_4  and  O3*_18
REMARK    4  A    between atoms: C4*_5  and  C5*_20
REMARK    5  A    between atoms: C5*_20  and  O5*_21
REMARK                            x       y       z     vdW  Elec       q    Type
REMARK                         _______ _______ _______ _____ _____    ______ ____
ROOT
ATOM      1  O4* C   A   1     -34.973  21.270   2.502  0.00  0.00    -0.332 OA
ATOM      2  C1* C   A   1     -36.284  21.523   3.037  0.00  0.00    +0.232 C 
ATOM      3  C2* C   A   1     -37.253  21.415   1.873  0.00  0.00    +0.187 C 
ATOM      4  C3* C   A   1     -36.571  20.395   0.988  0.00  0.00    +0.171 C 
ATOM      5  C4* C   A   1     -35.102  20.755   1.159  0.00  0.00    +0.175 C 
ENDROOT
BRANCH   2   7
ATOM      6  O2  C   A   1     -35.862  22.051   5.768  0.00  0.00    -0.193 OA
ATOM      7  N1  C   A   1     -36.297  22.823   3.644  0.00  0.00    -0.201 N 
ATOM      8  N3  C   A   1     -35.967  24.302   5.493  0.00  0.00    -0.311 NA
ATOM      9  N4  C   A   1     -36.428  26.592   5.283  0.00  0.00    -0.336 N 
ATOM     10  C6  C   A   1     -36.431  23.975   2.769  0.00  0.00    +0.115 C 
ATOM     11  C5  C   A   1     -37.163  25.077   3.500  0.00  0.00    +0.098 C 
ATOM     12  C2  C   A   1     -36.040  23.006   5.011  0.00  0.00    +0.271 C 
ATOM     13  C4  C   A   1     -36.469  25.300   4.824  0.00  0.00    +0.170 C 
ATOM     14  H41 C   A   1     -35.988  26.796   6.140  0.00  0.00    +0.144 HD
ATOM     15  H42 C   A   1     -36.837  27.316   4.755  0.00  0.00    +0.144 HD
ENDBRANCH   2   7
BRANCH   3  16
ATOM     16  O2* C   A   1     -38.543  20.999   2.277  0.00  0.00    -0.378 OA
ATOM     17  H2* C   A   1     -39.068  20.774   1.495  0.00  0.00    +0.211 HD
ENDBRANCH   3  16
BRANCH   4  18
ATOM     18  O3* C   A   1     -36.764  19.079   1.509  0.00  0.00    -0.379 OA
ATOM     19  H3* C   A   1     -35.931  18.587   1.459  0.00  0.00    +0.211 HD
ENDBRANCH   4  18
BRANCH   5  20
ATOM     20  C5* C   A   1     -34.630  21.833   0.191  0.00  0.00    +0.169 C 
BRANCH  20  21
ATOM     21  O5* C   A   1     -33.231  21.703   0.014  0.00  0.00    -0.379 OA
ATOM     22  H5* C   A   1     -32.977  22.080  -0.842  0.00  0.00    +0.211 HD
ENDBRANCH  20  21
ENDBRANCH   5  20
TORSDOF 5
ENDMDL
MODEL 3
REMARK VINA RESULT:      -5.3      2.636      4.471
REMARK  Name = 54330827
REMARK  5 active torsions:
REMARK  status: ('A' for Active; 'I' for Inactive)
REMARK    1  A    between atoms: C1*_2  and  N1_7
REMARK    2  A    between atoms: C2*_3  and  O2*_16
REMARK    3  A    between atoms: C3*_4  and  O3*_18
REMARK    4  A    between atoms: C4*_5  and  C5*_20
REMARK    5  A    between atoms: C5*_20  and  O5*_21
REMARK                            x       y       z     vdW  Elec       q    Type
REMARK                         _______ _______ _______ _____ _____    ______ ____
ROOT
ATOM      1  O4* C   A   1     -35.313  23.534   3.543  0.00  0.00    -0.332 OA
ATOM      2  C1* C   A   1     -36.083  24.746   3.500  0.00  0.00    +0.232 C 
ATOM      3  C2* C   A   1     -36.265  25.195   4.939  0.00  0.00    +0.187 C 
ATOM      4  C3* C   A   1     -34.998  24.683   5.591  0.00  0.00    +0.171 C 
ATOM      5  C4* C   A   1     -34.786  23.355   4.876  0.00  0.00    +0.175 C 
ENDROOT
BRANCH   2   7
ATOM      6  O2  C   A   1     -37.820  26.697   2.453  0.00  0.00    -0.193 OA
ATOM      7  N1  C   A   1     -37.332  24.482   2.845  0.00  0.00    -0.201 N 
ATOM      8  N3  C   A   1     -39.262  25.162   1.607  0.00  0.00    -0.311 NA
ATOM      9  N4  C   A   1     -40.926  23.606   1.049  0.00  0.00    -0.336 N 
ATOM     10  C6  C   A   1     -37.687  23.095   2.603  0.00  0.00    +0.115 C 
ATOM     11  C5  C   A   1     -39.190  22.945   2.651  0.00  0.00    +0.098 C 
ATOM     12  C2  C   A   1     -38.125  25.512   2.316  0.00  0.00    +0.271 C 
ATOM     13  C4  C   A   1     -39.792  23.978   1.724  0.00  0.00    +0.170 C 
ATOM     14  H41 C   A   1     -41.361  24.239   0.432  0.00  0.00    +0.144 HD
ATOM     15  H42 C   A   1     -41.306  22.707   1.181  0.00  0.00    +0.144 HD
ENDBRANCH   2   7
BRANCH   3  16
ATOM     16  O2* C   A   1     -36.400  26.597   5.058  0.00  0.00    -0.378 OA
ATOM     17  H2* C   A   1     -35.768  27.033   4.467  0.00  0.00    +0.211 HD
ENDBRANCH   3  16
BRANCH   4  18
ATOM     18  O3* C   A   1     -33.898  25.535   5.271  0.00  0.00    -0.379 OA
ATOM     19  H3* C   A   1     -33.274  25.548   6.013  0.00  0.00    +0.211 HD
ENDBRANCH   4  18
BRANCH   5  20
ATOM     20  C5* C   A   1     -35.529  22.196   5.528  0.00  0.00    +0.169 C 
BRANCH  20  21
ATOM     21  O5* C   A   1     -35.515  21.092   4.640  0.00  0.00    -0.379 OA
ATOM     22  H5* C   A   1     -36.354  21.057   4.156  0.00  0.00    +0.211 HD
ENDBRANCH  20  21
ENDBRANCH   5  20
TORSDOF 5
ENDMDL
MODEL 4
REMARK VINA RESULT:      -5.2      3.072      5.670
REMARK  Name = 54330827
REMARK  5 active torsions:
REMARK  status: ('A' for Active; 'I' for Inactive)
REMARK    1  A    between atoms: C1*_2  and  N1_7
REMARK    2  A    between atoms: C2*_3  and  O2*_16
REMARK    3  A    between atoms: C3*_4  and  O3*_18
REMARK    4  A    between atoms: C4*_5  and  C5*_20
REMARK    5  A    between atoms: C5*_20  and  O5*_21
REMARK                            x       y       z     vdW  Elec       q    Type
REMARK                         _______ _______ _______ _____ _____    ______ ____
ROOT
ATOM      1  O4* C   A   1     -36.281  24.154   5.403  0.00  0.00    -0.332 OA
ATOM      2  C1* C   A   1     -36.001  24.802   4.151  0.00  0.00    +0.232 C 
ATOM      3  C2* C   A   1     -35.409  23.743   3.238  0.00  0.00    +0.187 C 
ATOM      4  C3* C   A   1     -36.089  22.485   3.732  0.00  0.00    +0.171 C 
ATOM      5  C4* C   A   1     -36.153  22.725   5.234  0.00  0.00    +0.175 C 
ENDROOT
BRANCH   2   7
ATOM      6  O2  C   A   1     -35.468  26.889   2.339  0.00  0.00    -0.193 OA
ATOM      7  N1  C   A   1     -35.100  25.894   4.382  0.00  0.00    -0.201 N 
ATOM      8  N3  C   A   1     -34.111  27.988   3.788  0.00  0.00    -0.311 NA
ATOM      9  N4  C   A   1     -32.438  28.938   5.131  0.00  0.00    -0.336 N 
ATOM     10  C6  C   A   1     -34.489  25.999   5.696  0.00  0.00    +0.115 C 
ATOM     11  C5  C   A   1     -33.119  26.622   5.565  0.00  0.00    +0.098 C 
ATOM     12  C2  C   A   1     -34.917  26.918   3.440  0.00  0.00    +0.271 C 
ATOM     13  C4  C   A   1     -33.262  27.902   4.773  0.00  0.00    +0.170 C 
ATOM     14  H41 C   A   1     -32.488  29.796   4.650  0.00  0.00    +0.144 HD
ATOM     15  H42 C   A   1     -31.797  28.825   5.870  0.00  0.00    +0.144 HD
ENDBRANCH   2   7
BRANCH   3  16
ATOM     16  O2* C   A   1     -35.671  23.994   1.872  0.00  0.00    -0.378 OA
ATOM     17  H2* C   A   1     -36.621  24.144   1.749  0.00  0.00    +0.211 HD
ENDBRANCH   3  16
BRANCH   4  18
ATOM     18  O3* C   A   1     -37.429  22.421   3.241  0.00  0.00    -0.379 OA
ATOM     19  H3* C   A   1     -37.977  21.917   3.862  0.00  0.00    +0.211 HD
ENDBRANCH   4  18
BRANCH   5  20
ATOM     20  C5* C   A   1     -34.897  22.272   5.970  0.00  0.00    +0.169 C 
BRANCH  20  21
ATOM     21  O5* C   A   1     -34.823  20.858   5.911  0.00  0.00    -0.379 OA
ATOM     22  H5* C   A   1     -35.559  20.476   6.412  0.00  0.00    +0.211 HD
ENDBRANCH  20  21
ENDBRANCH   5  20
TORSDOF 5
ENDMDL
MODEL 5
REMARK VINA RESULT:      -5.2      2.494      3.694
REMARK  Name = 54330827
REMARK  5 active torsions:
REMARK  status: ('A' for Active; 'I' for Inactive)
REMARK    1  A    between atoms: C1*_2  and  N1_7
REMARK    2  A    between atoms: C2*_3  and  O2*_16
REMARK    3  A    between atoms: C3*_4  and  O3*_18
REMARK    4  A    between atoms: C4*_5  and  C5*_20
REMARK    5  A    between atoms: C5*_20  and  O5*_21
REMARK                            x       y       z     vdW  Elec       q    Type
REMARK                         _______ _______ _______ _____ _____    ______ ____
ROOT
ATOM      1  O4* C   A   1     -36.717  24.142   4.539  0.00  0.00    -0.332 OA
ATOM      2  C1* C   A   1     -36.698  22.930   3.767  0.00  0.00    +0.232 C 
ATOM      3  C2* C   A   1     -35.425  22.195   4.147  0.00  0.00    +0.187 C 
ATOM      4  C3* C   A   1     -35.233  22.620   5.586  0.00  0.00    +0.171 C 
ATOM      5  C4* C   A   1     -35.690  24.072   5.553  0.00  0.00    +0.175 C 
ENDROOT
BRANCH   2   7
ATOM      6  O2  C   A   1     -37.616  21.240   1.713  0.00  0.00    -0.193 OA
ATOM      7  N1  C   A   1     -36.743  23.265   2.372  0.00  0.00    -0.201 N 
ATOM      8  N3  C   A   1     -37.357  22.821   0.105  0.00  0.00    -0.311 NA
ATOM      9  N4  C   A   1     -36.759  24.313  -1.604  0.00  0.00    -0.336 N 
ATOM     10  C6  C   A   1     -36.389  24.622   1.992  0.00  0.00    +0.115 C 
ATOM     11  C5  C   A   1     -35.763  24.611   0.617  0.00  0.00    +0.098 C 
ATOM     12  C2  C   A   1     -37.252  22.377   1.412  0.00  0.00    +0.271 C 
ATOM     13  C4  C   A   1     -36.689  23.859  -0.312  0.00  0.00    +0.170 C 
ATOM     14  H41 C   A   1     -37.347  23.861  -2.253  0.00  0.00    +0.144 HD
ATOM     15  H42 C   A   1     -36.223  25.090  -1.883  0.00  0.00    +0.144 HD
ENDBRANCH   2   7
BRANCH   3  16
ATOM     16  O2* C   A   1     -35.548  20.793   4.014  0.00  0.00    -0.378 OA
ATOM     17  H2* C   A   1     -36.469  20.533   4.169  0.00  0.00    +0.211 HD
ENDBRANCH   3  16
BRANCH   4  18
ATOM     18  O3* C   A   1     -36.123  21.899   6.439  0.00  0.00    -0.379 OA
ATOM     19  H3* C   A   1     -35.819  20.982   6.521  0.00  0.00    +0.211 HD
ENDBRANCH   4  18
BRANCH   5  20
ATOM     20  C5* C   A   1     -34.581  25.044   5.172  0.00  0.00    +0.169 C 
BRANCH  20  21
ATOM     21  O5* C   A   1     -34.994  26.358   5.505  0.00  0.00    -0.379 OA
ATOM     22  H5* C   A   1     -35.937  26.460   5.303  0.00  0.00    +0.211 HD
ENDBRANCH  20  21
ENDBRANCH   5  20
TORSDOF 5
ENDMDL
MODEL 6
REMARK VINA RESULT:      -5.2      2.135      3.492
REMARK  Name = 54330827
REMARK  5 active torsions:
REMARK  status: ('A' for Active; 'I' for Inactive)
REMARK    1  A    between atoms: C1*_2  and  N1_7
REMARK    2  A    between atoms: C2*_3  and  O2*_16
REMARK    3  A    between atoms: C3*_4  and  O3*_18
REMARK    4  A    between atoms: C4*_5  and  C5*_20
REMARK    5  A    between atoms: C5*_20  and  O5*_21
REMARK                            x       y       z     vdW  Elec       q    Type
REMARK                         _______ _______ _______ _____ _____    ______ ____
ROOT
ATOM      1  O4* C   A   1     -35.037  26.230   1.730  0.00  0.00    -0.332 OA
ATOM      2  C1* C   A   1     -35.998  25.907   2.749  0.00  0.00    +0.232 C 
ATOM      3  C2* C   A   1     -35.364  26.286   4.076  0.00  0.00    +0.187 C 
ATOM      4  C3* C   A   1     -34.482  27.450   3.684  0.00  0.00    +0.171 C 
ATOM      5  C4* C   A   1     -33.978  27.020   2.313  0.00  0.00    +0.175 C 
ENDROOT
BRANCH   2   7
ATOM      6  O2  C   A   1     -38.298  24.688   3.818  0.00  0.00    -0.193 OA
ATOM      7  N1  C   A   1     -36.311  24.510   2.669  0.00  0.00    -0.201 N 
ATOM      8  N3  C   A   1     -37.774  22.644   2.982  0.00  0.00    -0.311 NA
ATOM      9  N4  C   A   1     -37.068  20.474   2.437  0.00  0.00    -0.336 N 
ATOM     10  C6  C   A   1     -35.430  23.664   1.883  0.00  0.00    +0.115 C 
ATOM     11  C5  C   A   1     -35.404  22.275   2.478  0.00  0.00    +0.098 C 
ATOM     12  C2  C   A   1     -37.501  23.984   3.197  0.00  0.00    +0.271 C 
ATOM     13  C4  C   A   1     -36.833  21.810   2.641  0.00  0.00    +0.170 C 
ATOM     14  H41 C   A   1     -37.981  20.115   2.530  0.00  0.00    +0.144 HD
ATOM     15  H42 C   A   1     -36.325  19.874   2.199  0.00  0.00    +0.144 HD
ENDBRANCH   2   7
BRANCH   3  16
ATOM     16  O2* C   A   1     -36.322  26.643   5.053  0.00  0.00    -0.378 OA
ATOM     17  H2* C   A   1     -37.204  26.652   4.652  0.00  0.00    +0.211 HD
ENDBRANCH   3  16
BRANCH   4  18
ATOM     18  O3* C   A   1     -35.266  28.631   3.512  0.00  0.00    -0.379 OA
ATOM     19  H3* C   A   1     -35.648  28.891   4.364  0.00  0.00    +0.211 HD
ENDBRANCH   4  18
BRANCH   5  20
ATOM     20  C5* C   A   1     -32.723  26.158   2.376  0.00  0.00    +0.169 C 
BRANCH  20  21
ATOM     21  O5* C   A   1     -31.870  26.672   3.383  0.00  0.00    -0.379 OA
ATOM     22  H5* C   A   1     -31.466  27.497   3.073  0.00  0.00    +0.211 HD
ENDBRANCH  20  21
ENDBRANCH   5  20
TORSDOF 5
ENDMDL
MODEL 7
REMARK VINA RESULT:      -5.2      2.529      3.620
REMARK  Name = 54330827
REMARK  5 active torsions:
REMARK  status: ('A' for Active; 'I' for Inactive)
REMARK    1  A    between atoms: C1*_2  and  N1_7
REMARK    2  A    between atoms: C2*_3  and  O2*_16
REMARK    3  A    between atoms: C3*_4  and  O3*_18
REMARK    4  A    between atoms: C4*_5  and  C5*_20
REMARK    5  A    between atoms: C5*_20  and  O5*_21
REMARK                            x       y       z     vdW  Elec       q    Type
REMARK                         _______ _______ _______ _____ _____    ______ ____
ROOT
ATOM      1  O4* C   A   1     -37.384  25.378   1.842  0.00  0.00    -0.332 OA
ATOM      2  C1* C   A   1     -36.792  25.781   3.089  0.00  0.00    +0.232 C 
ATOM      3  C2* C   A   1     -35.604  26.659   2.739  0.00  0.00    +0.187 C 
ATOM      4  C3* C   A   1     -36.054  27.298   1.443  0.00  0.00    +0.171 C 
ATOM      5  C4* C   A   1     -36.809  26.158   0.772  0.00  0.00    +0.175 C 
ENDROOT
BRANCH   2   7
ATOM      6  O2  C   A   1     -36.043  25.730   5.800  0.00  0.00    -0.193 OA
ATOM      7  N1  C   A   1     -36.412  24.609   3.824  0.00  0.00    -0.201 N 
ATOM      8  N3  C   A   1     -35.835  23.470   5.846  0.00  0.00    -0.311 NA
ATOM      9  N4  C   A   1     -35.272  21.193   5.810  0.00  0.00    -0.336 N 
ATOM     10  C6  C   A   1     -36.522  23.325   3.154  0.00  0.00    +0.115 C 
ATOM     11  C5  C   A   1     -35.456  22.391   3.678  0.00  0.00    +0.098 C 
ATOM     12  C2  C   A   1     -36.087  24.663   5.188  0.00  0.00    +0.271 C 
ATOM     13  C4  C   A   1     -35.543  22.385   5.187  0.00  0.00    +0.170 C 
ATOM     14  H41 C   A   1     -35.313  21.131   6.792  0.00  0.00    +0.144 HD
ATOM     15  H42 C   A   1     -35.036  20.401   5.276  0.00  0.00    +0.144 HD
ENDBRANCH   2   7
BRANCH   3  16
ATOM     16  O2* C   A   1     -35.323  27.616   3.740  0.00  0.00    -0.378 OA
ATOM     17  H2* C   A   1     -35.597  27.270   4.603  0.00  0.00    +0.211 HD
ENDBRANCH   3  16
BRANCH   4  18
ATOM     18  O3* C   A   1     -36.987  28.347   1.706  0.00  0.00    -0.379 OA
ATOM     19  H3* C   A   1     -36.834  29.077   1.087  0.00  0.00    +0.211 HD
ENDBRANCH   4  18
BRANCH   5  20
ATOM     20  C5* C   A   1     -35.911  25.244  -0.052  0.00  0.00    +0.169 C 
BRANCH  20  21
ATOM     21  O5* C   A   1     -36.685  24.156  -0.526  0.00  0.00    -0.379 OA
ATOM     22  H5* C   A   1     -36.993  23.628   0.226  0.00  0.00    +0.211 HD
ENDBRANCH  20  21
ENDBRANCH   5  20
TORSDOF 5
ENDMDL
MODEL 8
REMARK VINA RESULT:      -5.1      2.840      5.368
REMARK  Name = 54330827
REMARK  5 active torsions:
REMARK  status: ('A' for Active; 'I' for Inactive)
REMARK    1  A    between atoms: C1*_2  and  N1_7
REMARK    2  A    between atoms: C2*_3  and  O2*_16
REMARK    3  A    between atoms: C3*_4  and  O3*_18
REMARK    4  A    between atoms: C4*_5  and  C5*_20
REMARK    5  A    between atoms: C5*_20  and  O5*_21
REMARK                            x       y       z     vdW  Elec       q    Type
REMARK                         _______ _______ _______ _____ _____    ______ ____
ROOT
ATOM      1  O4* C   A   1     -37.552  23.004   3.262  0.00  0.00    -0.332 OA
ATOM      2  C1* C   A   1     -37.129  24.261   2.709  0.00  0.00    +0.232 C 
ATOM      3  C2* C   A   1     -36.465  23.947   1.380  0.00  0.00    +0.187 C 
ATOM      4  C3* C   A   1     -37.220  22.714   0.934  0.00  0.00    +0.171 C 
ATOM      5  C4* C   A   1     -37.436  21.980   2.251  0.00  0.00    +0.175 C 
ENDROOT
BRANCH   2   7
ATOM      6  O2  C   A   1     -36.344  26.962   2.617  0.00  0.00    -0.193 OA
ATOM      7  N1  C   A   1     -36.234  24.899   3.632  0.00  0.00    -0.201 N 
ATOM      8  N3  C   A   1     -35.135  26.822   4.533  0.00  0.00    -0.311 NA
ATOM      9  N4  C   A   1     -33.605  26.600   6.297  0.00  0.00    -0.336 N 
ATOM     10  C6  C   A   1     -35.775  24.124   4.772  0.00  0.00    +0.115 C 
ATOM     11  C5  C   A   1     -34.385  24.573   5.157  0.00  0.00    +0.098 C 
ATOM     12  C2  C   A   1     -35.922  26.264   3.539  0.00  0.00    +0.271 C 
ATOM     13  C4  C   A   1     -34.407  26.077   5.315  0.00  0.00    +0.170 C 
ATOM     14  H41 C   A   1     -33.580  27.574   6.445  0.00  0.00    +0.144 HD
ATOM     15  H42 C   A   1     -33.055  26.003   6.854  0.00  0.00    +0.144 HD
ENDBRANCH   2   7
BRANCH   3  16
ATOM     16  O2* C   A   1     -36.577  25.009   0.453  0.00  0.00    -0.378 OA
ATOM     17  H2* C   A   1     -37.270  25.621   0.746  0.00  0.00    +0.211 HD
ENDBRANCH   3  16
BRANCH   4  18
ATOM     18  O3* C   A   1     -38.502  23.076   0.418  0.00  0.00    -0.379 OA
ATOM     19  H3* C   A   1     -38.770  22.436  -0.259  0.00  0.00    +0.211 HD
ENDBRANCH   4  18
BRANCH   5  20
ATOM     20  C5* C   A   1     -36.275  21.069   2.629  0.00  0.00    +0.169 C 
BRANCH  20  21
ATOM     21  O5* C   A   1     -36.722  19.724   2.588  0.00  0.00    -0.379 OA
ATOM     22  H5* C   A   1     -36.260  19.210   3.268  0.00  0.00    +0.211 HD
ENDBRANCH  20  21
ENDBRANCH   5  20
TORSDOF 5
ENDMDL
MODEL 9
REMARK VINA RESULT:      -5.1      2.988      4.932
REMARK  Name = 54330827
REMARK  5 active torsions:
REMARK  status: ('A' for Active; 'I' for Inactive)
REMARK    1  A    between atoms: C1*_2  and  N1_7
REMARK    2  A    between atoms: C2*_3  and  O2*_16
REMARK    3  A    between atoms: C3*_4  and  O3*_18
REMARK    4  A    between atoms: C4*_5  and  C5*_20
REMARK    5  A    between atoms: C5*_20  and  O5*_21
REMARK                            x       y       z     vdW  Elec       q    Type
REMARK                         _______ _______ _______ _____ _____    ______ ____
ROOT
ATOM      1  O4* C   A   1     -36.305  25.538   5.238  0.00  0.00    -0.332 OA
ATOM      2  C1* C   A   1     -37.109  24.673   4.418  0.00  0.00    +0.232 C 
ATOM      3  C2* C   A   1     -36.202  23.544   3.962  0.00  0.00    +0.187 C 
ATOM      4  C3* C   A   1     -35.237  23.427   5.122  0.00  0.00    +0.171 C 
ATOM      5  C4* C   A   1     -35.053  24.882   5.532  0.00  0.00    +0.175 C 
ENDROOT
BRANCH   2   7
ATOM      6  O2  C   A   1     -39.819  24.778   3.668  0.00  0.00    -0.193 OA
ATOM      7  N1  C   A   1     -37.638  25.429   3.320  0.00  0.00    -0.201 N 
ATOM      8  N3  C   A   1     -39.449  26.298   2.023  0.00  0.00    -0.311 NA
ATOM      9  N4  C   A   1     -39.030  27.582   0.105  0.00  0.00    -0.336 N 
ATOM     10  C6  C   A   1     -36.726  26.299   2.598  0.00  0.00    +0.115 C 
ATOM     11  C5  C   A   1     -37.160  26.391   1.153  0.00  0.00    +0.098 C 
ATOM     12  C2  C   A   1     -39.012  25.459   3.034  0.00  0.00    +0.271 C 
ATOM     13  C4  C   A   1     -38.625  26.763   1.128  0.00  0.00    +0.170 C 
ATOM     14  H41 C   A   1     -39.973  27.857   0.039  0.00  0.00    +0.144 HD
ATOM     15  H42 C   A   1     -38.378  27.896  -0.563  0.00  0.00    +0.144 HD
ENDBRANCH   2   7
BRANCH   3  16
ATOM     16  O2* C   A   1     -36.907  22.341   3.728  0.00  0.00    -0.378 OA
ATOM     17  H2* C   A   1     -36.814  21.758   4.496  0.00  0.00    +0.211 HD
ENDBRANCH   3  16
BRANCH   4  18
ATOM     18  O3* C   A   1     -35.852  22.738   6.211  0.00  0.00    -0.379 OA
ATOM     19  H3* C   A   1     -36.382  23.362   6.730  0.00  0.00    +0.211 HD
ENDBRANCH   4  18
BRANCH   5  20
ATOM     20  C5* C   A   1     -33.951  25.591   4.755  0.00  0.00    +0.169 C 
BRANCH  20  21
ATOM     21  O5* C   A   1     -34.088  26.988   4.947  0.00  0.00    -0.379 OA
ATOM     22  H5* C   A   1     -34.045  27.438   4.089  0.00  0.00    +0.211 HD
ENDBRANCH  20  21
ENDBRANCH   5  20
TORSDOF 5
ENDMDL
