MODEL 1
REMARK VINA RESULT:      -5.5      0.000      0.000
REMARK  Name = 5492312
REMARK  10 active torsions:
REMARK  status: ('A' for Active; 'I' for Inactive)
REMARK    1  A    between atoms: O_1  and  C_2
REMARK    2  A    between atoms: O_1  and  C_14
REMARK    3  A    between atoms: C_2  and  N_5
REMARK    4  A    between atoms: C_2  and  C_13
REMARK    5  A    between atoms: C_14  and  C_16
REMARK    6  A    between atoms: C_14  and  C_17
REMARK    7  A    between atoms: C_17  and  O_18
REMARK    8  A    between atoms: O_18  and  P_19
REMARK    9  A    between atoms: P_19  and  O_21
REMARK   10  A    between atoms: P_19  and  O_23
REMARK                            x       y       z     vdW  Elec       q    Type
REMARK                         _______ _______ _______ _____ _____    ______ ____
ROOT
ATOM      1  O   UNL     1     -36.716  24.221   4.925  0.00  0.00    -0.323 OA
ENDROOT
BRANCH   1   2
ATOM      2  C   UNL     1     -36.796  24.389   3.523  0.00  0.00    +0.267 C 
BRANCH   2   5
ATOM      3  O   UNL     1     -36.201  21.693   2.931  0.00  0.00    -0.252 OA
ATOM      4  O   UNL     1     -40.451  20.912   1.329  0.00  0.00    -0.270 OA
ATOM      5  N   UNL     1     -37.743  23.444   2.943  0.00  0.00    -0.212 N 
ATOM      6  N   UNL     1     -38.318  21.306   2.133  0.00  0.00    -0.236 N 
ATOM      7  C   UNL     1     -37.329  22.128   2.692  0.00  0.00    +0.316 C 
ATOM      8  C   UNL     1     -39.025  23.868   2.654  0.00  0.00    +0.076 C 
ATOM      9  C   UNL     1     -39.955  23.074   2.121  0.00  0.00    +0.074 C 
ATOM     10  C   UNL     1     -39.618  21.669   1.819  0.00  0.00    +0.254 C 
ATOM     11  H   UNL     1     -38.061  20.375   1.942  0.00  0.00    +0.159 HD
ENDBRANCH   2   5
BRANCH   2  13
ATOM     12  O   UNL     1     -36.698  26.596   2.555  0.00  0.00    -0.284 OA
ATOM     13  C   UNL     1     -37.315  25.774   3.228  0.00  0.00    +0.259 C 
ENDBRANCH   2  13
ENDBRANCH   1   2
BRANCH   1  14
ATOM     14  C   UNL     1     -35.375  24.140   5.390  0.00  0.00    +0.212 C 
BRANCH  14  16
ATOM     15  O   UNL     1     -36.066  22.046   6.405  0.00  0.00    -0.286 OA
ATOM     16  C   UNL     1     -35.160  22.793   6.050  0.00  0.00    +0.239 C 
ENDBRANCH  14  16
BRANCH  14  17
ATOM     17  C   UNL     1     -34.435  24.305   4.206  0.00  0.00    +0.191 C 
BRANCH  17  18
ATOM     18  O   UNL     1     -33.377  25.188   4.552  0.00  0.00    -0.270 OA
BRANCH  18  19
ATOM     19  P   UNL     1     -33.285  26.611   3.789  0.00  0.00    +0.473 P 
ATOM     20  O   UNL     1     -31.946  27.285   3.864  0.00  0.00    -0.227 OA
BRANCH  19  21
ATOM     21  O   UNL     1     -34.521  27.456   4.399  0.00  0.00    -0.303 OA
ATOM     22  H   UNL     1     -34.769  27.089   5.262  0.00  0.00    +0.222 HD
ENDBRANCH  19  21
BRANCH  19  23
ATOM     23  O   UNL     1     -33.783  26.249   2.294  0.00  0.00    -0.303 OA
ATOM     24  H   UNL     1     -33.745  27.043   1.739  0.00  0.00    +0.222 HD
ENDBRANCH  19  23
ENDBRANCH  18  19
ENDBRANCH  17  18
ENDBRANCH  14  17
ENDBRANCH   1  14
TORSDOF 10
ENDMDL
MODEL 2
REMARK VINA RESULT:      -5.2      2.560      5.733
REMARK  Name = 5492312
REMARK  10 active torsions:
REMARK  status: ('A' for Active; 'I' for Inactive)
REMARK    1  A    between atoms: O_1  and  C_2
REMARK    2  A    between atoms: O_1  and  C_14
REMARK    3  A    between atoms: C_2  and  N_5
REMARK    4  A    between atoms: C_2  and  C_13
REMARK    5  A    between atoms: C_14  and  C_16
REMARK    6  A    between atoms: C_14  and  C_17
REMARK    7  A    between atoms: C_17  and  O_18
REMARK    8  A    between atoms: O_18  and  P_19
REMARK    9  A    between atoms: P_19  and  O_21
REMARK   10  A    between atoms: P_19  and  O_23
REMARK                            x       y       z     vdW  Elec       q    Type
REMARK                         _______ _______ _______ _____ _____    ______ ____
ROOT
ATOM      1  O   UNL     1     -37.002  23.134   3.946  0.00  0.00    -0.323 OA
ENDROOT
BRANCH   1   2
ATOM      2  C   UNL     1     -35.609  22.947   4.114  0.00  0.00    +0.267 C 
BRANCH   2   5
ATOM      3  O   UNL     1     -34.224  24.367   2.104  0.00  0.00    -0.252 OA
ATOM      4  O   UNL     1     -33.109  27.765   5.012  0.00  0.00    -0.270 OA
ATOM      5  N   UNL     1     -34.938  24.225   4.321  0.00  0.00    -0.212 N 
ATOM      6  N   UNL     1     -33.669  26.058   3.554  0.00  0.00    -0.236 N 
ATOM      7  C   UNL     1     -34.280  24.835   3.243  0.00  0.00    +0.316 C 
ATOM      8  C   UNL     1     -34.967  24.804   5.574  0.00  0.00    +0.076 C 
ATOM      9  C   UNL     1     -34.380  25.969   5.855  0.00  0.00    +0.074 C 
ATOM     10  C   UNL     1     -33.660  26.691   4.787  0.00  0.00    +0.254 C 
ATOM     11  H   UNL     1     -33.196  26.514   2.821  0.00  0.00    +0.159 HD
ENDBRANCH   2   5
BRANCH   2  13
ATOM     12  O   UNL     1     -35.047  20.935   5.319  0.00  0.00    -0.284 OA
ATOM     13  C   UNL     1     -35.376  22.118   5.352  0.00  0.00    +0.259 C 
ENDBRANCH   2  13
ENDBRANCH   1   2
BRANCH   1  14
ATOM     14  C   UNL     1     -37.409  23.012   2.589  0.00  0.00    +0.212 C 
BRANCH  14  16
ATOM     15  O   UNL     1     -37.761  20.861   1.521  0.00  0.00    -0.286 OA
ATOM     16  C   UNL     1     -36.997  21.650   2.069  0.00  0.00    +0.239 C 
ENDBRANCH  14  16
BRANCH  14  17
ATOM     17  C   UNL     1     -38.920  23.170   2.515  0.00  0.00    +0.191 C 
BRANCH  17  18
ATOM     18  O   UNL     1     -39.333  24.239   3.355  0.00  0.00    -0.270 OA
BRANCH  18  19
ATOM     19  P   UNL     1     -39.050  25.755   2.866  0.00  0.00    +0.473 P 
ATOM     20  O   UNL     1     -38.926  25.929   1.380  0.00  0.00    -0.227 OA
BRANCH  19  21
ATOM     21  O   UNL     1     -37.756  26.201   3.725  0.00  0.00    -0.303 OA
ATOM     22  H   UNL     1     -38.044  26.605   4.559  0.00  0.00    +0.222 HD
ENDBRANCH  19  21
BRANCH  19  23
ATOM     23  O   UNL     1     -40.257  26.583   3.552  0.00  0.00    -0.303 OA
ATOM     24  H   UNL     1     -40.202  27.514   3.287  0.00  0.00    +0.222 HD
ENDBRANCH  19  23
ENDBRANCH  18  19
ENDBRANCH  17  18
ENDBRANCH  14  17
ENDBRANCH   1  14
TORSDOF 10
ENDMDL
MODEL 3
REMARK VINA RESULT:      -5.1      2.449      5.625
REMARK  Name = 5492312
REMARK  10 active torsions:
REMARK  status: ('A' for Active; 'I' for Inactive)
REMARK    1  A    between atoms: O_1  and  C_2
REMARK    2  A    between atoms: O_1  and  C_14
REMARK    3  A    between atoms: C_2  and  N_5
REMARK    4  A    between atoms: C_2  and  C_13
REMARK    5  A    between atoms: C_14  and  C_16
REMARK    6  A    between atoms: C_14  and  C_17
REMARK    7  A    between atoms: C_17  and  O_18
REMARK    8  A    between atoms: O_18  and  P_19
REMARK    9  A    between atoms: P_19  and  O_21
REMARK   10  A    between atoms: P_19  and  O_23
REMARK                            x       y       z     vdW  Elec       q    Type
REMARK                         _______ _______ _______ _____ _____    ______ ____
ROOT
ATOM      1  O   UNL     1     -37.627  24.107   2.144  0.00  0.00    -0.323 OA
ENDROOT
BRANCH   1   2
ATOM      2  C   UNL     1     -37.813  24.854   3.331  0.00  0.00    +0.267 C 
BRANCH   2   5
ATOM      3  O   UNL     1     -36.439  23.320   5.263  0.00  0.00    -0.252 OA
ATOM      4  O   UNL     1     -32.969  26.347   5.471  0.00  0.00    -0.270 OA
ATOM      5  N   UNL     1     -36.529  25.223   3.915  0.00  0.00    -0.212 N 
ATOM      6  N   UNL     1     -34.712  24.829   5.365  0.00  0.00    -0.236 N 
ATOM      7  C   UNL     1     -35.943  24.378   4.870  0.00  0.00    +0.316 C 
ATOM      8  C   UNL     1     -35.920  26.396   3.515  0.00  0.00    +0.076 C 
ATOM      9  C   UNL     1     -34.748  26.812   3.996  0.00  0.00    +0.074 C 
ATOM     10  C   UNL     1     -34.050  25.993   5.008  0.00  0.00    +0.254 C 
ATOM     11  H   UNL     1     -34.273  24.261   6.038  0.00  0.00    +0.159 HD
ENDBRANCH   2   5
BRANCH   2  13
ATOM     12  O   UNL     1     -39.693  26.174   2.598  0.00  0.00    -0.284 OA
ATOM     13  C   UNL     1     -38.530  26.136   2.992  0.00  0.00    +0.259 C 
ENDBRANCH   2  13
ENDBRANCH   1   2
BRANCH   1  14
ATOM     14  C   UNL     1     -38.035  22.752   2.282  0.00  0.00    +0.212 C 
BRANCH  14  16
ATOM     15  O   UNL     1     -40.147  21.624   1.886  0.00  0.00    -0.286 OA
ATOM     16  C   UNL     1     -39.537  22.666   2.101  0.00  0.00    +0.239 C 
ENDBRANCH  14  16
BRANCH  14  17
ATOM     17  C   UNL     1     -37.328  21.917   1.224  0.00  0.00    +0.191 C 
BRANCH  17  18
ATOM     18  O   UNL     1     -35.963  21.749   1.579  0.00  0.00    -0.270 OA
BRANCH  18  19
ATOM     19  P   UNL     1     -35.541  20.424   2.404  0.00  0.00    +0.473 P 
ATOM     20  O   UNL     1     -34.311  19.728   1.900  0.00  0.00    -0.227 OA
BRANCH  19  21
ATOM     21  O   UNL     1     -36.888  19.530   2.413  0.00  0.00    -0.303 OA
ATOM     22  H   UNL     1     -37.164  19.369   3.329  0.00  0.00    +0.222 HD
ENDBRANCH  19  21
BRANCH  19  23
ATOM     23  O   UNL     1     -35.444  20.966   3.925  0.00  0.00    -0.303 OA
ATOM     24  H   UNL     1     -35.787  20.291   4.531  0.00  0.00    +0.222 HD
ENDBRANCH  19  23
ENDBRANCH  18  19
ENDBRANCH  17  18
ENDBRANCH  14  17
ENDBRANCH   1  14
TORSDOF 10
ENDMDL
MODEL 4
REMARK VINA RESULT:      -5.1      2.159      3.811
REMARK  Name = 5492312
REMARK  10 active torsions:
REMARK  status: ('A' for Active; 'I' for Inactive)
REMARK    1  A    between atoms: O_1  and  C_2
REMARK    2  A    between atoms: O_1  and  C_14
REMARK    3  A    between atoms: C_2  and  N_5
REMARK    4  A    between atoms: C_2  and  C_13
REMARK    5  A    between atoms: C_14  and  C_16
REMARK    6  A    between atoms: C_14  and  C_17
REMARK    7  A    between atoms: C_17  and  O_18
REMARK    8  A    between atoms: O_18  and  P_19
REMARK    9  A    between atoms: P_19  and  O_21
REMARK   10  A    between atoms: P_19  and  O_23
REMARK                            x       y       z     vdW  Elec       q    Type
REMARK                         _______ _______ _______ _____ _____    ______ ____
ROOT
ATOM      1  O   UNL     1     -34.861  24.332   4.334  0.00  0.00    -0.323 OA
ENDROOT
BRANCH   1   2
ATOM      2  C   UNL     1     -35.859  23.426   4.767  0.00  0.00    +0.267 C 
BRANCH   2   5
ATOM      3  O   UNL     1     -38.231  23.416   3.237  0.00  0.00    -0.252 OA
ATOM      4  O   UNL     1     -36.900  19.703   0.854  0.00  0.00    -0.270 OA
ATOM      5  N   UNL     1     -36.162  22.454   3.724  0.00  0.00    -0.212 N 
ATOM      6  N   UNL     1     -37.567  21.566   2.052  0.00  0.00    -0.236 N 
ATOM      7  C   UNL     1     -37.378  22.551   3.031  0.00  0.00    +0.316 C 
ATOM      8  C   UNL     1     -35.245  21.461   3.443  0.00  0.00    +0.076 C 
ATOM      9  C   UNL     1     -35.439  20.530   2.508  0.00  0.00    +0.074 C 
ATOM     10  C   UNL     1     -36.690  20.545   1.722  0.00  0.00    +0.254 C 
ATOM     11  H   UNL     1     -38.411  21.604   1.546  0.00  0.00    +0.159 HD
ENDBRANCH   2   5
BRANCH   2  13
ATOM     12  O   UNL     1     -36.052  21.993   6.698  0.00  0.00    -0.284 OA
ATOM     13  C   UNL     1     -35.334  22.655   5.953  0.00  0.00    +0.259 C 
ENDBRANCH   2  13
ENDBRANCH   1   2
BRANCH   1  14
ATOM     14  C   UNL     1     -35.131  25.671   4.726  0.00  0.00    +0.212 C 
BRANCH  14  16
ATOM     15  O   UNL     1     -33.020  26.706   5.325  0.00  0.00    -0.286 OA
ATOM     16  C   UNL     1     -34.048  26.137   5.676  0.00  0.00    +0.239 C 
ENDBRANCH  14  16
BRANCH  14  17
ATOM     17  C   UNL     1     -35.157  26.550   3.484  0.00  0.00    +0.191 C 
BRANCH  17  18
ATOM     18  O   UNL     1     -35.903  25.910   2.458  0.00  0.00    -0.270 OA
BRANCH  18  19
ATOM     19  P   UNL     1     -37.315  26.562   2.013  0.00  0.00    +0.473 P 
ATOM     20  O   UNL     1     -37.222  27.949   1.446  0.00  0.00    -0.227 OA
BRANCH  19  21
ATOM     21  O   UNL     1     -38.240  26.413   3.329  0.00  0.00    -0.303 OA
ATOM     22  H   UNL     1     -37.712  26.605   4.120  0.00  0.00    +0.222 HD
ENDBRANCH  19  21
BRANCH  19  23
ATOM     23  O   UNL     1     -37.919  25.452   1.004  0.00  0.00    -0.303 OA
ATOM     24  H   UNL     1     -38.248  25.888   0.203  0.00  0.00    +0.222 HD
ENDBRANCH  19  23
ENDBRANCH  18  19
ENDBRANCH  17  18
ENDBRANCH  14  17
ENDBRANCH   1  14
TORSDOF 10
ENDMDL
MODEL 5
REMARK VINA RESULT:      -5.1      2.270      5.465
REMARK  Name = 5492312
REMARK  10 active torsions:
REMARK  status: ('A' for Active; 'I' for Inactive)
REMARK    1  A    between atoms: O_1  and  C_2
REMARK    2  A    between atoms: O_1  and  C_14
REMARK    3  A    between atoms: C_2  and  N_5
REMARK    4  A    between atoms: C_2  and  C_13
REMARK    5  A    between atoms: C_14  and  C_16
REMARK    6  A    between atoms: C_14  and  C_17
REMARK    7  A    between atoms: C_17  and  O_18
REMARK    8  A    between atoms: O_18  and  P_19
REMARK    9  A    between atoms: P_19  and  O_21
REMARK   10  A    between atoms: P_19  and  O_23
REMARK                            x       y       z     vdW  Elec       q    Type
REMARK                         _______ _______ _______ _____ _____    ______ ____
ROOT
ATOM      1  O   UNL     1     -37.638  21.930   2.703  0.00  0.00    -0.323 OA
ENDROOT
BRANCH   1   2
ATOM      2  C   UNL     1     -36.282  21.977   2.301  0.00  0.00    +0.267 C 
BRANCH   2   5
ATOM      3  O   UNL     1     -34.928  24.190   1.187  0.00  0.00    -0.252 OA
ATOM      4  O   UNL     1     -33.536  25.660   5.328  0.00  0.00    -0.270 OA
ATOM      5  N   UNL     1     -35.547  22.969   3.077  0.00  0.00    -0.212 N 
ATOM      6  N   UNL     1     -34.235  24.920   3.250  0.00  0.00    -0.236 N 
ATOM      7  C   UNL     1     -34.912  24.027   2.409  0.00  0.00    +0.316 C 
ATOM      8  C   UNL     1     -35.493  22.844   4.451  0.00  0.00    +0.076 C 
ATOM      9  C   UNL     1     -34.844  23.702   5.239  0.00  0.00    +0.074 C 
ATOM     10  C   UNL     1     -34.142  24.851   4.631  0.00  0.00    +0.254 C 
ATOM     11  H   UNL     1     -33.777  25.675   2.814  0.00  0.00    +0.159 HD
ENDBRANCH   2   5
BRANCH   2  13
ATOM     12  O   UNL     1     -35.244  19.886   1.694  0.00  0.00    -0.284 OA
ATOM     13  C   UNL     1     -35.646  20.638   2.579  0.00  0.00    +0.259 C 
ENDBRANCH   2  13
ENDBRANCH   1   2
BRANCH   1  14
ATOM     14  C   UNL     1     -38.516  22.470   1.726  0.00  0.00    +0.212 C 
BRANCH  14  16
ATOM     15  O   UNL     1     -40.443  21.020   1.448  0.00  0.00    -0.286 OA
ATOM     16  C   UNL     1     -39.312  21.344   1.098  0.00  0.00    +0.239 C 
ENDBRANCH  14  16
BRANCH  14  17
ATOM     17  C   UNL     1     -39.450  23.464   2.400  0.00  0.00    +0.191 C 
BRANCH  17  18
ATOM     18  O   UNL     1     -38.734  24.212   3.372  0.00  0.00    -0.270 OA
BRANCH  18  19
ATOM     19  P   UNL     1     -38.295  25.726   3.006  0.00  0.00    +0.473 P 
ATOM     20  O   UNL     1     -37.808  25.923   1.601  0.00  0.00    -0.227 OA
BRANCH  19  21
ATOM     21  O   UNL     1     -37.236  26.110   4.166  0.00  0.00    -0.303 OA
ATOM     22  H   UNL     1     -37.306  25.471   4.893  0.00  0.00    +0.222 HD
ENDBRANCH  19  21
BRANCH  19  23
ATOM     23  O   UNL     1     -39.608  26.584   3.401  0.00  0.00    -0.303 OA
ATOM     24  H   UNL     1     -40.328  25.981   3.643  0.00  0.00    +0.222 HD
ENDBRANCH  19  23
ENDBRANCH  18  19
ENDBRANCH  17  18
ENDBRANCH  14  17
ENDBRANCH   1  14
TORSDOF 10
ENDMDL
MODEL 6
REMARK VINA RESULT:      -5.1      3.103      5.116
REMARK  Name = 5492312
REMARK  10 active torsions:
REMARK  status: ('A' for Active; 'I' for Inactive)
REMARK    1  A    between atoms: O_1  and  C_2
REMARK    2  A    between atoms: O_1  and  C_14
REMARK    3  A    between atoms: C_2  and  N_5
REMARK    4  A    between atoms: C_2  and  C_13
REMARK    5  A    between atoms: C_14  and  C_16
REMARK    6  A    between atoms: C_14  and  C_17
REMARK    7  A    between atoms: C_17  and  O_18
REMARK    8  A    between atoms: O_18  and  P_19
REMARK    9  A    between atoms: P_19  and  O_21
REMARK   10  A    between atoms: P_19  and  O_23
REMARK                            x       y       z     vdW  Elec       q    Type
REMARK                         _______ _______ _______ _____ _____    ______ ____
ROOT
ATOM      1  O   UNL     1     -34.733  28.379   3.477  0.00  0.00    -0.323 OA
ENDROOT
BRANCH   1   2
ATOM      2  C   UNL     1     -34.827  27.204   2.693  0.00  0.00    +0.267 C 
BRANCH   2   5
ATOM      3  O   UNL     1     -32.858  25.609   3.938  0.00  0.00    -0.252 OA
ATOM      4  O   UNL     1     -36.025  22.851   5.837  0.00  0.00    -0.270 OA
ATOM      5  N   UNL     1     -35.113  26.046   3.532  0.00  0.00    -0.212 N 
ATOM      6  N   UNL     1     -34.437  24.236   4.882  0.00  0.00    -0.236 N 
ATOM      7  C   UNL     1     -34.048  25.329   4.096  0.00  0.00    +0.316 C 
ATOM      8  C   UNL     1     -36.427  25.683   3.751  0.00  0.00    +0.076 C 
ATOM      9  C   UNL     1     -36.782  24.639   4.501  0.00  0.00    +0.074 C 
ATOM     10  C   UNL     1     -35.733  23.818   5.140  0.00  0.00    +0.254 C 
ATOM     11  H   UNL     1     -33.714  23.709   5.293  0.00  0.00    +0.159 HD
ENDBRANCH   2   5
BRANCH   2  13
ATOM     12  O   UNL     1     -36.690  28.353   1.679  0.00  0.00    -0.284 OA
ATOM     13  C   UNL     1     -35.980  27.351   1.732  0.00  0.00    +0.259 C 
ENDBRANCH   2  13
ENDBRANCH   1   2
BRANCH   1  14
ATOM     14  C   UNL     1     -33.752  29.284   2.988  0.00  0.00    +0.212 C 
BRANCH  14  16
ATOM     15  O   UNL     1     -35.303  30.998   3.728  0.00  0.00    -0.286 OA
ATOM     16  C   UNL     1     -34.207  30.703   3.261  0.00  0.00    +0.239 C 
ENDBRANCH  14  16
BRANCH  14  17
ATOM     17  C   UNL     1     -32.434  29.008   3.697  0.00  0.00    +0.191 C 
BRANCH  17  18
ATOM     18  O   UNL     1     -32.549  29.343   5.072  0.00  0.00    -0.270 OA
BRANCH  18  19
ATOM     19  P   UNL     1     -31.778  28.420   6.155  0.00  0.00    +0.473 P 
ATOM     20  O   UNL     1     -30.459  27.871   5.696  0.00  0.00    -0.227 OA
BRANCH  19  21
ATOM     21  O   UNL     1     -32.881  27.315   6.573  0.00  0.00    -0.303 OA
ATOM     22  H   UNL     1     -33.691  27.454   6.057  0.00  0.00    +0.222 HD
ENDBRANCH  19  21
BRANCH  19  23
ATOM     23  O   UNL     1     -31.703  29.381   7.454  0.00  0.00    -0.303 OA
ATOM     24  H   UNL     1     -31.231  30.197   7.225  0.00  0.00    +0.222 HD
ENDBRANCH  19  23
ENDBRANCH  18  19
ENDBRANCH  17  18
ENDBRANCH  14  17
ENDBRANCH   1  14
TORSDOF 10
ENDMDL
MODEL 7
REMARK VINA RESULT:      -5.0      2.085      3.595
REMARK  Name = 5492312
REMARK  10 active torsions:
REMARK  status: ('A' for Active; 'I' for Inactive)
REMARK    1  A    between atoms: O_1  and  C_2
REMARK    2  A    between atoms: O_1  and  C_14
REMARK    3  A    between atoms: C_2  and  N_5
REMARK    4  A    between atoms: C_2  and  C_13
REMARK    5  A    between atoms: C_14  and  C_16
REMARK    6  A    between atoms: C_14  and  C_17
REMARK    7  A    between atoms: C_17  and  O_18
REMARK    8  A    between atoms: O_18  and  P_19
REMARK    9  A    between atoms: P_19  and  O_21
REMARK   10  A    between atoms: P_19  and  O_23
REMARK                            x       y       z     vdW  Elec       q    Type
REMARK                         _______ _______ _______ _____ _____    ______ ____
ROOT
ATOM      1  O   UNL     1     -35.411  22.928   3.739  0.00  0.00    -0.323 OA
ENDROOT
BRANCH   1   2
ATOM      2  C   UNL     1     -36.581  23.021   2.949  0.00  0.00    +0.267 C 
BRANCH   2   5
ATOM      3  O   UNL     1     -38.689  24.656   3.873  0.00  0.00    -0.252 OA
ATOM      4  O   UNL     1     -37.335  28.201   1.256  0.00  0.00    -0.270 OA
ATOM      5  N   UNL     1     -36.805  24.396   2.520  0.00  0.00    -0.212 N 
ATOM      6  N   UNL     1     -38.013  26.420   2.568  0.00  0.00    -0.236 N 
ATOM      7  C   UNL     1     -37.891  25.110   3.050  0.00  0.00    +0.316 C 
ATOM      8  C   UNL     1     -35.945  24.963   1.601  0.00  0.00    +0.076 C 
ATOM      9  C   UNL     1     -36.075  26.213   1.152  0.00  0.00    +0.074 C 
ATOM     10  C   UNL     1     -37.187  27.047   1.649  0.00  0.00    +0.254 C 
ATOM     11  H   UNL     1     -38.765  26.950   2.919  0.00  0.00    +0.159 HD
ENDBRANCH   2   5
BRANCH   2  13
ATOM     12  O   UNL     1     -35.771  21.134   1.684  0.00  0.00    -0.284 OA
ATOM     13  C   UNL     1     -36.393  22.193   1.702  0.00  0.00    +0.259 C 
ENDBRANCH   2  13
ENDBRANCH   1   2
BRANCH   1  14
ATOM     14  C   UNL     1     -35.687  22.990   5.132  0.00  0.00    +0.212 C 
BRANCH  14  16
ATOM     15  O   UNL     1     -35.032  20.654   5.218  0.00  0.00    -0.286 OA
ATOM     16  C   UNL     1     -35.174  21.727   5.795  0.00  0.00    +0.239 C 
ENDBRANCH  14  16
BRANCH  14  17
ATOM     17  C   UNL     1     -34.992  24.211   5.716  0.00  0.00    +0.191 C 
BRANCH  17  18
ATOM     18  O   UNL     1     -34.178  24.820   4.725  0.00  0.00    -0.270 OA
BRANCH  18  19
ATOM     19  P   UNL     1     -34.038  26.431   4.728  0.00  0.00    +0.473 P 
ATOM     20  O   UNL     1     -33.179  26.996   3.635  0.00  0.00    -0.227 OA
BRANCH  19  21
ATOM     21  O   UNL     1     -33.558  26.773   6.233  0.00  0.00    -0.303 OA
ATOM     22  H   UNL     1     -32.961  26.077   6.549  0.00  0.00    +0.222 HD
ENDBRANCH  19  21
BRANCH  19  23
ATOM     23  O   UNL     1     -35.579  26.923   4.708  0.00  0.00    -0.303 OA
ATOM     24  H   UNL     1     -36.073  26.411   4.049  0.00  0.00    +0.222 HD
ENDBRANCH  19  23
ENDBRANCH  18  19
ENDBRANCH  17  18
ENDBRANCH  14  17
ENDBRANCH   1  14
TORSDOF 10
ENDMDL
MODEL 8
REMARK VINA RESULT:      -5.0      3.092      5.796
REMARK  Name = 5492312
REMARK  10 active torsions:
REMARK  status: ('A' for Active; 'I' for Inactive)
REMARK    1  A    between atoms: O_1  and  C_2
REMARK    2  A    between atoms: O_1  and  C_14
REMARK    3  A    between atoms: C_2  and  N_5
REMARK    4  A    between atoms: C_2  and  C_13
REMARK    5  A    between atoms: C_14  and  C_16
REMARK    6  A    between atoms: C_14  and  C_17
REMARK    7  A    between atoms: C_17  and  O_18
REMARK    8  A    between atoms: O_18  and  P_19
REMARK    9  A    between atoms: P_19  and  O_21
REMARK   10  A    between atoms: P_19  and  O_23
REMARK                            x       y       z     vdW  Elec       q    Type
REMARK                         _______ _______ _______ _____ _____    ______ ____
ROOT
ATOM      1  O   UNL     1     -35.575  23.870   3.632  0.00  0.00    -0.323 OA
ENDROOT
BRANCH   1   2
ATOM      2  C   UNL     1     -36.032  25.019   4.321  0.00  0.00    +0.267 C 
BRANCH   2   5
ATOM      3  O   UNL     1     -33.967  25.993   5.982  0.00  0.00    -0.252 OA
ATOM      4  O   UNL     1     -32.950  29.392   3.039  0.00  0.00    -0.270 OA
ATOM      5  N   UNL     1     -35.198  26.174   4.008  0.00  0.00    -0.212 N 
ATOM      6  N   UNL     1     -33.462  27.686   4.515  0.00  0.00    -0.236 N 
ATOM      7  C   UNL     1     -34.202  26.564   4.915  0.00  0.00    +0.316 C 
ATOM      8  C   UNL     1     -35.410  26.856   2.826  0.00  0.00    +0.076 C 
ATOM      9  C   UNL     1     -34.698  27.922   2.460  0.00  0.00    +0.074 C 
ATOM     10  C   UNL     1     -33.624  28.413   3.347  0.00  0.00    +0.254 C 
ATOM     11  H   UNL     1     -32.755  27.988   5.129  0.00  0.00    +0.159 HD
ENDBRANCH   2   5
BRANCH   2  13
ATOM     12  O   UNL     1     -38.352  24.531   3.879  0.00  0.00    -0.284 OA
ATOM     13  C   UNL     1     -37.430  25.342   3.855  0.00  0.00    +0.259 C 
ENDBRANCH   2  13
ENDBRANCH   1   2
BRANCH   1  14
ATOM     14  C   UNL     1     -34.993  22.908   4.501  0.00  0.00    +0.212 C 
BRANCH  14  16
ATOM     15  O   UNL     1     -35.988  22.072   6.551  0.00  0.00    -0.286 OA
ATOM     16  C   UNL     1     -35.629  23.028   5.871  0.00  0.00    +0.239 C 
ENDBRANCH  14  16
BRANCH  14  17
ATOM     17  C   UNL     1     -35.234  21.520   3.927  0.00  0.00    +0.191 C 
BRANCH  17  18
ATOM     18  O   UNL     1     -35.388  21.603   2.518  0.00  0.00    -0.270 OA
BRANCH  18  19
ATOM     19  P   UNL     1     -36.781  21.100   1.866  0.00  0.00    +0.473 P 
ATOM     20  O   UNL     1     -36.858  21.211   0.372  0.00  0.00    -0.227 OA
BRANCH  19  21
ATOM     21  O   UNL     1     -37.907  21.925   2.681  0.00  0.00    -0.303 OA
ATOM     22  H   UNL     1     -38.292  22.604   2.105  0.00  0.00    +0.222 HD
ENDBRANCH  19  21
BRANCH  19  23
ATOM     23  O   UNL     1     -36.926  19.598   2.448  0.00  0.00    -0.303 OA
ATOM     24  H   UNL     1     -36.668  18.960   1.764  0.00  0.00    +0.222 HD
ENDBRANCH  19  23
ENDBRANCH  18  19
ENDBRANCH  17  18
ENDBRANCH  14  17
ENDBRANCH   1  14
TORSDOF 10
ENDMDL
MODEL 9
REMARK VINA RESULT:      -4.9      2.733      6.216
REMARK  Name = 5492312
REMARK  10 active torsions:
REMARK  status: ('A' for Active; 'I' for Inactive)
REMARK    1  A    between atoms: O_1  and  C_2
REMARK    2  A    between atoms: O_1  and  C_14
REMARK    3  A    between atoms: C_2  and  N_5
REMARK    4  A    between atoms: C_2  and  C_13
REMARK    5  A    between atoms: C_14  and  C_16
REMARK    6  A    between atoms: C_14  and  C_17
REMARK    7  A    between atoms: C_17  and  O_18
REMARK    8  A    between atoms: O_18  and  P_19
REMARK    9  A    between atoms: P_19  and  O_21
REMARK   10  A    between atoms: P_19  and  O_23
REMARK                            x       y       z     vdW  Elec       q    Type
REMARK                         _______ _______ _______ _____ _____    ______ ____
ROOT
ATOM      1  O   UNL     1     -37.217  23.491   4.010  0.00  0.00    -0.323 OA
ENDROOT
BRANCH   1   2
ATOM      2  C   UNL     1     -35.832  23.243   3.860  0.00  0.00    +0.267 C 
BRANCH   2   5
ATOM      3  O   UNL     1     -34.082  24.595   2.105  0.00  0.00    -0.252 OA
ATOM      4  O   UNL     1     -32.944  27.690   5.325  0.00  0.00    -0.270 OA
ATOM      5  N   UNL     1     -35.055  24.424   4.218  0.00  0.00    -0.212 N 
ATOM      6  N   UNL     1     -33.516  26.135   3.710  0.00  0.00    -0.236 N 
ATOM      7  C   UNL     1     -34.216  25.008   3.258  0.00  0.00    +0.316 C 
ATOM      8  C   UNL     1     -35.162  24.937   5.496  0.00  0.00    +0.076 C 
ATOM      9  C   UNL     1     -34.489  26.011   5.911  0.00  0.00    +0.074 C 
ATOM     10  C   UNL     1     -33.578  26.700   4.974  0.00  0.00    +0.254 C 
ATOM     11  H   UNL     1     -32.916  26.571   3.062  0.00  0.00    +0.159 HD
ENDBRANCH   2   5
BRANCH   2  13
ATOM     12  O   UNL     1     -35.163  21.000   4.441  0.00  0.00    -0.284 OA
ATOM     13  C   UNL     1     -35.429  22.142   4.808  0.00  0.00    +0.259 C 
ENDBRANCH   2  13
ENDBRANCH   1   2
BRANCH   1  14
ATOM     14  C   UNL     1     -37.874  23.692   2.766  0.00  0.00    +0.212 C 
BRANCH  14  16
ATOM     15  O   UNL     1     -37.301  25.714   1.552  0.00  0.00    -0.286 OA
ATOM     16  C   UNL     1     -37.920  25.176   2.464  0.00  0.00    +0.239 C 
ENDBRANCH  14  16
BRANCH  14  17
ATOM     17  C   UNL     1     -37.104  22.956   1.680  0.00  0.00    +0.191 C 
BRANCH  17  18
ATOM     18  O   UNL     1     -37.727  21.709   1.410  0.00  0.00    -0.270 OA
BRANCH  18  19
ATOM     19  P   UNL     1     -36.787  20.410   1.198  0.00  0.00    +0.473 P 
ATOM     20  O   UNL     1     -37.108  19.585  -0.014  0.00  0.00    -0.227 OA
BRANCH  19  21
ATOM     21  O   UNL     1     -36.884  19.630   2.611  0.00  0.00    -0.303 OA
ATOM     22  H   UNL     1     -36.362  18.813   2.567  0.00  0.00    +0.222 HD
ENDBRANCH  19  21
BRANCH  19  23
ATOM     23  O   UNL     1     -35.297  21.039   1.222  0.00  0.00    -0.303 OA
ATOM     24  H   UNL     1     -34.650  20.346   1.019  0.00  0.00    +0.222 HD
ENDBRANCH  19  23
ENDBRANCH  18  19
ENDBRANCH  17  18
ENDBRANCH  14  17
ENDBRANCH   1  14
TORSDOF 10
ENDMDL
