MODEL 1
REMARK VINA RESULT:      -6.8      0.000      0.000
REMARK  Name = 53387829
REMARK  8 active torsions:
REMARK  status: ('A' for Active; 'I' for Inactive)
REMARK    1  A    between atoms: C_4  and  C_23
REMARK    2  A    between atoms: C_10  and  O_19
REMARK    3  A    between atoms: C_17  and  O_21
REMARK    4  A    between atoms: C_23  and  O_24
REMARK    5  A    between atoms: C_23  and  C_26
REMARK    6  A    between atoms: C_26  and  C_27
REMARK    7  A    between atoms: C_28  and  C_31
REMARK    8  A    between atoms: C_31  and  O_32
REMARK                            x       y       z     vdW  Elec       q    Type
REMARK                         _______ _______ _______ _____ _____    ______ ____
ROOT
ATOM      1  O   UNL     1     -33.816  29.036   2.850  0.00  0.00    -0.479 OA
ATOM      2  O   UNL     1     -35.879  27.706   1.760  0.00  0.00    -0.287 OA
ATOM      3  O   UNL     1     -35.721  24.087   5.680  0.00  0.00    -0.283 OA
ATOM      4  C   UNL     1     -32.082  29.309   4.529  0.00  0.00    +0.086 C 
ATOM      5  C   UNL     1     -33.007  30.039   3.517  0.00  0.00    +0.172 C 
ATOM      6  C   UNL     1     -32.973  28.133   4.792  0.00  0.00    +0.051 C 
ATOM      7  C   UNL     1     -31.818  30.173   5.764  0.00  0.00    +0.011 C 
ATOM      8  C   UNL     1     -33.921  28.027   3.778  0.00  0.00    +0.141 C 
ATOM      9  C   UNL     1     -32.301  30.874   2.457  0.00  0.00    +0.048 C 
ATOM     10  C   UNL     1     -32.923  27.198   5.811  0.00  0.00    +0.133 C 
ATOM     11  C   UNL     1     -34.837  26.982   3.735  0.00  0.00    +0.076 C 
ATOM     12  C   UNL     1     -34.794  26.040   4.762  0.00  0.00    +0.051 C 
ATOM     13  C   UNL     1     -33.844  26.148   5.798  0.00  0.00    +0.040 C 
ATOM     14  C   UNL     1     -35.829  26.866   2.652  0.00  0.00    +0.198 C 
ATOM     15  C   UNL     1     -35.744  24.915   4.776  0.00  0.00    +0.229 C 
ATOM     16  C   UNL     1     -36.773  25.704   2.669  0.00  0.00    +0.054 C 
ATOM     17  C   UNL     1     -36.730  24.806   3.669  0.00  0.00    +0.176 C 
ATOM     18  C   UNL     1     -37.715  25.658   1.496  0.00  0.00    +0.038 C 
ENDROOT
BRANCH  10  19
ATOM     19  O   UNL     1     -32.026  27.286   6.827  0.00  0.00    -0.506 OA
ATOM     20  H   UNL     1     -32.180  27.877   7.536  0.00  0.00    +0.292 HD
ENDBRANCH  10  19
BRANCH  17  21
ATOM     21  O   UNL     1     -37.577  23.720   3.774  0.00  0.00    -0.468 OA
ATOM     22  C   UNL     1     -37.085  22.628   3.023  0.00  0.00    +0.253 C 
ENDBRANCH  17  21
BRANCH   4  23
ATOM     23  C   UNL     1     -30.755  28.820   3.932  0.00  0.00    +0.122 C 
BRANCH  23  24
ATOM     24  O   UNL     1     -30.720  27.399   4.026  0.00  0.00    -0.384 OA
ATOM     25  H   UNL     1     -31.621  27.048   3.956  0.00  0.00    +0.210 HD
ENDBRANCH  23  24
BRANCH  23  26
ATOM     26  C   UNL     1     -29.567  29.405   4.696  0.00  0.00    +0.056 C 
BRANCH  26  27
ATOM     27  C   UNL     1     -28.805  28.338   5.438  0.00  0.00    -0.021 C 
ATOM     28  C   UNL     1     -28.405  28.378   6.723  0.00  0.00    +0.049 C 
ATOM     29  C   UNL     1     -28.587  29.537   7.656  0.00  0.00    +0.037 C 
BRANCH  28  31
ATOM     30  O   UNL     1     -27.767  26.048   6.741  0.00  0.00    -0.245 OA
ATOM     31  C   UNL     1     -27.693  27.168   7.221  0.00  0.00    +0.334 C 
BRANCH  31  32
ATOM     32  O   UNL     1     -26.938  27.471   8.305  0.00  0.00    -0.477 OA
ATOM     33  H   UNL     1     -26.019  27.624   8.207  0.00  0.00    +0.295 HD
ENDBRANCH  31  32
ENDBRANCH  28  31
ENDBRANCH  26  27
ENDBRANCH  23  26
ENDBRANCH   4  23
TORSDOF 8
ENDMDL
MODEL 2
REMARK VINA RESULT:      -6.5      2.950      9.208
REMARK  Name = 53387829
REMARK  8 active torsions:
REMARK  status: ('A' for Active; 'I' for Inactive)
REMARK    1  A    between atoms: C_4  and  C_23
REMARK    2  A    between atoms: C_10  and  O_19
REMARK    3  A    between atoms: C_17  and  O_21
REMARK    4  A    between atoms: C_23  and  O_24
REMARK    5  A    between atoms: C_23  and  C_26
REMARK    6  A    between atoms: C_26  and  C_27
REMARK    7  A    between atoms: C_28  and  C_31
REMARK    8  A    between atoms: C_31  and  O_32
REMARK                            x       y       z     vdW  Elec       q    Type
REMARK                         _______ _______ _______ _____ _____    ______ ____
ROOT
ATOM      1  O   UNL     1     -34.682  24.189   1.321  0.00  0.00    -0.479 OA
ATOM      2  O   UNL     1     -33.289  26.485   1.396  0.00  0.00    -0.287 OA
ATOM      3  O   UNL     1     -33.636  26.615   6.721  0.00  0.00    -0.283 OA
ATOM      4  C   UNL     1     -35.927  22.397   2.386  0.00  0.00    +0.086 C 
ATOM      5  C   UNL     1     -35.056  22.796   1.164  0.00  0.00    +0.172 C 
ATOM      6  C   UNL     1     -35.344  23.367   3.367  0.00  0.00    +0.051 C 
ATOM      7  C   UNL     1     -35.714  20.930   2.765  0.00  0.00    +0.011 C 
ATOM      8  C   UNL     1     -34.670  24.376   2.683  0.00  0.00    +0.141 C 
ATOM      9  C   UNL     1     -35.708  22.621  -0.200  0.00  0.00    +0.048 C 
ATOM     10  C   UNL     1     -35.441  23.394   4.747  0.00  0.00    +0.133 C 
ATOM     11  C   UNL     1     -34.086  25.450   3.346  0.00  0.00    +0.076 C 
ATOM     12  C   UNL     1     -34.177  25.479   4.737  0.00  0.00    +0.051 C 
ATOM     13  C   UNL     1     -34.848  24.455   5.436  0.00  0.00    +0.040 C 
ATOM     14  C   UNL     1     -33.386  26.522   2.618  0.00  0.00    +0.198 C 
ATOM     15  C   UNL     1     -33.571  26.585   5.496  0.00  0.00    +0.229 C 
ATOM     16  C   UNL     1     -32.795  27.651   3.404  0.00  0.00    +0.054 C 
ATOM     17  C   UNL     1     -32.880  27.665   4.746  0.00  0.00    +0.176 C 
ATOM     18  C   UNL     1     -32.141  28.713   2.559  0.00  0.00    +0.038 C 
ENDROOT
BRANCH  10  19
ATOM     19  O   UNL     1     -36.071  22.414   5.445  0.00  0.00    -0.506 OA
ATOM     20  H   UNL     1     -35.570  21.792   5.933  0.00  0.00    +0.292 HD
ENDBRANCH  10  19
BRANCH  17  21
ATOM     21  O   UNL     1     -32.343  28.655   5.546  0.00  0.00    -0.468 OA
ATOM     22  C   UNL     1     -30.983  28.387   5.827  0.00  0.00    +0.253 C 
ENDBRANCH  17  21
BRANCH   4  23
ATOM     23  C   UNL     1     -37.426  22.685   2.213  0.00  0.00    +0.122 C 
BRANCH  23  24
ATOM     24  O   UNL     1     -37.848  23.511   3.295  0.00  0.00    -0.384 OA
ATOM     25  H   UNL     1     -38.789  23.720   3.193  0.00  0.00    +0.210 HD
ENDBRANCH  23  24
BRANCH  23  26
ATOM     26  C   UNL     1     -38.234  21.387   2.224  0.00  0.00    +0.056 C 
BRANCH  26  27
ATOM     27  C   UNL     1     -39.333  21.410   1.194  0.00  0.00    -0.021 C 
ATOM     28  C   UNL     1     -39.373  20.716   0.041  0.00  0.00    +0.049 C 
ATOM     29  C   UNL     1     -38.285  19.823  -0.476  0.00  0.00    +0.037 C 
BRANCH  28  31
ATOM     30  O   UNL     1     -40.623  21.224  -1.963  0.00  0.00    -0.245 OA
ATOM     31  C   UNL     1     -40.598  20.897  -0.786  0.00  0.00    +0.334 C 
BRANCH  31  32
ATOM     32  O   UNL     1     -41.711  20.655  -0.052  0.00  0.00    -0.477 OA
ATOM     33  H   UNL     1     -41.947  19.774   0.163  0.00  0.00    +0.295 HD
ENDBRANCH  31  32
ENDBRANCH  28  31
ENDBRANCH  26  27
ENDBRANCH  23  26
ENDBRANCH   4  23
TORSDOF 8
ENDMDL
MODEL 3
REMARK VINA RESULT:      -6.5      5.768      9.083
REMARK  Name = 53387829
REMARK  8 active torsions:
REMARK  status: ('A' for Active; 'I' for Inactive)
REMARK    1  A    between atoms: C_4  and  C_23
REMARK    2  A    between atoms: C_10  and  O_19
REMARK    3  A    between atoms: C_17  and  O_21
REMARK    4  A    between atoms: C_23  and  O_24
REMARK    5  A    between atoms: C_23  and  C_26
REMARK    6  A    between atoms: C_26  and  C_27
REMARK    7  A    between atoms: C_28  and  C_31
REMARK    8  A    between atoms: C_31  and  O_32
REMARK                            x       y       z     vdW  Elec       q    Type
REMARK                         _______ _______ _______ _____ _____    ______ ____
ROOT
ATOM      1  O   UNL     1     -33.348  22.400   0.486  0.00  0.00    -0.479 OA
ATOM      2  O   UNL     1     -30.957  21.540  -0.384  0.00  0.00    -0.287 OA
ATOM      3  O   UNL     1     -32.577  16.464  -0.063  0.00  0.00    -0.283 OA
ATOM      4  C   UNL     1     -35.600  22.015   1.310  0.00  0.00    +0.086 C 
ATOM      5  C   UNL     1     -34.668  23.000   0.555  0.00  0.00    +0.172 C 
ATOM      6  C   UNL     1     -34.887  20.750   0.939  0.00  0.00    +0.051 C 
ATOM      7  C   UNL     1     -37.035  22.094   0.784  0.00  0.00    +0.011 C 
ATOM      8  C   UNL     1     -33.599  21.049   0.503  0.00  0.00    +0.141 C 
ATOM      9  C   UNL     1     -34.536  24.389   1.166  0.00  0.00    +0.048 C 
ATOM     10  C   UNL     1     -35.315  19.437   1.028  0.00  0.00    +0.133 C 
ATOM     11  C   UNL     1     -32.692  20.054   0.156  0.00  0.00    +0.076 C 
ATOM     12  C   UNL     1     -33.120  18.729   0.239  0.00  0.00    +0.051 C 
ATOM     13  C   UNL     1     -34.426  18.421   0.670  0.00  0.00    +0.040 C 
ATOM     14  C   UNL     1     -31.326  20.374  -0.292  0.00  0.00    +0.198 C 
ATOM     15  C   UNL     1     -32.207  17.632  -0.122  0.00  0.00    +0.229 C 
ATOM     16  C   UNL     1     -30.403  19.245  -0.634  0.00  0.00    +0.054 C 
ATOM     17  C   UNL     1     -30.828  17.971  -0.560  0.00  0.00    +0.176 C 
ATOM     18  C   UNL     1     -29.020  19.681  -1.039  0.00  0.00    +0.038 C 
ENDROOT
BRANCH  10  19
ATOM     19  O   UNL     1     -36.572  19.114   1.428  0.00  0.00    -0.506 OA
ATOM     20  H   UNL     1     -36.802  18.217   1.567  0.00  0.00    +0.292 HD
ENDBRANCH  10  19
BRANCH  17  21
ATOM     21  O   UNL     1     -30.052  16.875  -0.880  0.00  0.00    -0.468 OA
ATOM     22  C   UNL     1     -29.304  16.449   0.242  0.00  0.00    +0.253 C 
ENDBRANCH  17  21
BRANCH   4  23
ATOM     23  C   UNL     1     -35.586  22.179   2.837  0.00  0.00    +0.122 C 
BRANCH  23  24
ATOM     24  O   UNL     1     -35.563  20.881   3.424  0.00  0.00    -0.384 OA
ATOM     25  H   UNL     1     -35.739  20.953   4.375  0.00  0.00    +0.210 HD
ENDBRANCH  23  24
BRANCH  23  26
ATOM     26  C   UNL     1     -36.832  22.926   3.314  0.00  0.00    +0.056 C 
BRANCH  26  27
ATOM     27  C   UNL     1     -36.475  24.231   3.977  0.00  0.00    -0.021 C 
ATOM     28  C   UNL     1     -35.788  24.392   5.124  0.00  0.00    +0.049 C 
ATOM     29  C   UNL     1     -35.296  23.284   6.006  0.00  0.00    +0.037 C 
BRANCH  28  31
ATOM     30  O   UNL     1     -34.500  26.233   6.011  0.00  0.00    -0.245 OA
ATOM     31  C   UNL     1     -35.542  25.799   5.544  0.00  0.00    +0.334 C 
BRANCH  31  32
ATOM     32  O   UNL     1     -36.647  26.558   5.344  0.00  0.00    -0.477 OA
ATOM     33  H   UNL     1     -36.914  26.775   4.473  0.00  0.00    +0.295 HD
ENDBRANCH  31  32
ENDBRANCH  28  31
ENDBRANCH  26  27
ENDBRANCH  23  26
ENDBRANCH   4  23
TORSDOF 8
ENDMDL
MODEL 4
REMARK VINA RESULT:      -6.4      2.578      8.238
REMARK  Name = 53387829
REMARK  8 active torsions:
REMARK  status: ('A' for Active; 'I' for Inactive)
REMARK    1  A    between atoms: C_4  and  C_23
REMARK    2  A    between atoms: C_10  and  O_19
REMARK    3  A    between atoms: C_17  and  O_21
REMARK    4  A    between atoms: C_23  and  O_24
REMARK    5  A    between atoms: C_23  and  C_26
REMARK    6  A    between atoms: C_26  and  C_27
REMARK    7  A    between atoms: C_28  and  C_31
REMARK    8  A    between atoms: C_31  and  O_32
REMARK                            x       y       z     vdW  Elec       q    Type
REMARK                         _______ _______ _______ _____ _____    ______ ____
ROOT
ATOM      1  O   UNL     1     -34.790  23.837   1.412  0.00  0.00    -0.479 OA
ATOM      2  O   UNL     1     -33.527  26.205   1.321  0.00  0.00    -0.287 OA
ATOM      3  O   UNL     1     -33.687  26.584   6.643  0.00  0.00    -0.283 OA
ATOM      4  C   UNL     1     -35.894  22.035   2.610  0.00  0.00    +0.086 C 
ATOM      5  C   UNL     1     -35.092  22.419   1.337  0.00  0.00    +0.172 C 
ATOM      6  C   UNL     1     -35.331  23.084   3.519  0.00  0.00    +0.051 C 
ATOM      7  C   UNL     1     -35.585  20.603   3.050  0.00  0.00    +0.011 C 
ATOM      8  C   UNL     1     -34.740  24.092   2.762  0.00  0.00    +0.141 C 
ATOM      9  C   UNL     1     -35.782  22.141   0.009  0.00  0.00    +0.048 C 
ATOM     10  C   UNL     1     -35.379  23.175   4.899  0.00  0.00    +0.133 C 
ATOM     11  C   UNL     1     -34.193  25.228   3.349  0.00  0.00    +0.076 C 
ATOM     12  C   UNL     1     -34.235  25.322   4.739  0.00  0.00    +0.051 C 
ATOM     13  C   UNL     1     -34.822  24.299   5.512  0.00  0.00    +0.040 C 
ATOM     14  C   UNL     1     -33.581  26.299   2.543  0.00  0.00    +0.198 C 
ATOM     15  C   UNL     1     -33.665  26.496   5.420  0.00  0.00    +0.229 C 
ATOM     16  C   UNL     1     -33.026  27.496   3.249  0.00  0.00    +0.054 C 
ATOM     17  C   UNL     1     -33.063  27.573   4.591  0.00  0.00    +0.176 C 
ATOM     18  C   UNL     1     -32.465  28.548   2.330  0.00  0.00    +0.038 C 
ENDROOT
BRANCH  10  19
ATOM     19  O   UNL     1     -35.927  22.199   5.667  0.00  0.00    -0.506 OA
ATOM     20  H   UNL     1     -35.628  22.072   6.545  0.00  0.00    +0.292 HD
ENDBRANCH  10  19
BRANCH  17  21
ATOM     21  O   UNL     1     -32.554  28.629   5.322  0.00  0.00    -0.468 OA
ATOM     22  C   UNL     1     -31.172  28.450   5.562  0.00  0.00    +0.253 C 
ENDBRANCH  17  21
BRANCH   4  23
ATOM     23  C   UNL     1     -37.412  22.233   2.482  0.00  0.00    +0.122 C 
BRANCH  23  24
ATOM     24  O   UNL     1     -37.998  20.977   2.152  0.00  0.00    -0.384 OA
ATOM     25  H   UNL     1     -38.933  20.980   2.409  0.00  0.00    +0.210 HD
ENDBRANCH  23  24
BRANCH  23  26
ATOM     26  C   UNL     1     -37.737  23.246   1.383  0.00  0.00    +0.056 C 
BRANCH  26  27
ATOM     27  C   UNL     1     -38.978  24.036   1.708  0.00  0.00    -0.021 C 
ATOM     28  C   UNL     1     -39.044  25.176   2.420  0.00  0.00    +0.049 C 
ATOM     29  C   UNL     1     -37.886  25.853   3.091  0.00  0.00    +0.037 C 
BRANCH  28  31
ATOM     30  O   UNL     1     -41.368  25.530   1.864  0.00  0.00    -0.245 OA
ATOM     31  C   UNL     1     -40.400  25.775   2.567  0.00  0.00    +0.334 C 
BRANCH  31  32
ATOM     32  O   UNL     1     -40.427  26.650   3.601  0.00  0.00    -0.477 OA
ATOM     33  H   UNL     1     -39.649  26.811   4.098  0.00  0.00    +0.295 HD
ENDBRANCH  31  32
ENDBRANCH  28  31
ENDBRANCH  26  27
ENDBRANCH  23  26
ENDBRANCH   4  23
TORSDOF 8
ENDMDL
MODEL 5
REMARK VINA RESULT:      -6.3      2.962      6.595
REMARK  Name = 53387829
REMARK  8 active torsions:
REMARK  status: ('A' for Active; 'I' for Inactive)
REMARK    1  A    between atoms: C_4  and  C_23
REMARK    2  A    between atoms: C_10  and  O_19
REMARK    3  A    between atoms: C_17  and  O_21
REMARK    4  A    between atoms: C_23  and  O_24
REMARK    5  A    between atoms: C_23  and  C_26
REMARK    6  A    between atoms: C_26  and  C_27
REMARK    7  A    between atoms: C_28  and  C_31
REMARK    8  A    between atoms: C_31  and  O_32
REMARK                            x       y       z     vdW  Elec       q    Type
REMARK                         _______ _______ _______ _____ _____    ______ ____
ROOT
ATOM      1  O   UNL     1     -33.301  28.266   4.350  0.00  0.00    -0.479 OA
ATOM      2  O   UNL     1     -33.944  25.950   5.547  0.00  0.00    -0.287 OA
ATOM      3  O   UNL     1     -37.272  24.720   1.558  0.00  0.00    -0.283 OA
ATOM      4  C   UNL     1     -33.531  29.899   2.567  0.00  0.00    +0.086 C 
ATOM      5  C   UNL     1     -32.584  29.316   3.650  0.00  0.00    +0.172 C 
ATOM      6  C   UNL     1     -34.351  28.666   2.341  0.00  0.00    +0.051 C 
ATOM      7  C   UNL     1     -32.750  30.358   1.334  0.00  0.00    +0.011 C 
ATOM      8  C   UNL     1     -34.188  27.792   3.413  0.00  0.00    +0.141 C 
ATOM      9  C   UNL     1     -32.059  30.310   4.677  0.00  0.00    +0.048 C 
ATOM     10  C   UNL     1     -35.213  28.357   1.303  0.00  0.00    +0.133 C 
ATOM     11  C   UNL     1     -34.887  26.593   3.496  0.00  0.00    +0.076 C 
ATOM     12  C   UNL     1     -35.753  26.274   2.451  0.00  0.00    +0.051 C 
ATOM     13  C   UNL     1     -35.914  27.150   1.358  0.00  0.00    +0.040 C 
ATOM     14  C   UNL     1     -34.722  25.678   4.638  0.00  0.00    +0.198 C 
ATOM     15  C   UNL     1     -36.515  25.015   2.478  0.00  0.00    +0.229 C 
ATOM     16  C   UNL     1     -35.521  24.412   4.661  0.00  0.00    +0.054 C 
ATOM     17  C   UNL     1     -36.347  24.109   3.644  0.00  0.00    +0.176 C 
ATOM     18  C   UNL     1     -35.309  23.572   5.892  0.00  0.00    +0.038 C 
ENDROOT
BRANCH  10  19
ATOM     19  O   UNL     1     -35.377  29.176   0.233  0.00  0.00    -0.506 OA
ATOM     20  H   UNL     1     -34.680  29.286  -0.383  0.00  0.00    +0.292 HD
ENDBRANCH  10  19
BRANCH  17  21
ATOM     21  O   UNL     1     -37.100  22.954   3.574  0.00  0.00    -0.468 OA
ATOM     22  C   UNL     1     -36.374  21.921   2.938  0.00  0.00    +0.253 C 
ENDBRANCH  17  21
BRANCH   4  23
ATOM     23  C   UNL     1     -34.440  31.031   3.067  0.00  0.00    +0.122 C 
BRANCH  23  24
ATOM     24  O   UNL     1     -35.536  30.446   3.765  0.00  0.00    -0.384 OA
ATOM     25  H   UNL     1     -35.206  29.961   4.536  0.00  0.00    +0.210 HD
ENDBRANCH  23  24
BRANCH  23  26
ATOM     26  C   UNL     1     -34.971  31.859   1.897  0.00  0.00    +0.056 C 
BRANCH  26  27
ATOM     27  C   UNL     1     -36.475  31.956   1.924  0.00  0.00    -0.021 C 
ATOM     28  C   UNL     1     -37.224  32.990   1.498  0.00  0.00    +0.049 C 
ATOM     29  C   UNL     1     -36.695  34.289   0.968  0.00  0.00    +0.037 C 
BRANCH  28  31
ATOM     30  O   UNL     1     -39.336  31.852   1.209  0.00  0.00    -0.245 OA
ATOM     31  C   UNL     1     -38.700  32.814   1.609  0.00  0.00    +0.334 C 
BRANCH  31  32
ATOM     32  O   UNL     1     -39.264  33.885   2.219  0.00  0.00    -0.477 OA
ATOM     33  H   UNL     1     -39.981  34.331   1.813  0.00  0.00    +0.295 HD
ENDBRANCH  31  32
ENDBRANCH  28  31
ENDBRANCH  26  27
ENDBRANCH  23  26
ENDBRANCH   4  23
TORSDOF 8
ENDMDL
MODEL 6
REMARK VINA RESULT:      -6.3      2.827      8.051
REMARK  Name = 53387829
REMARK  8 active torsions:
REMARK  status: ('A' for Active; 'I' for Inactive)
REMARK    1  A    between atoms: C_4  and  C_23
REMARK    2  A    between atoms: C_10  and  O_19
REMARK    3  A    between atoms: C_17  and  O_21
REMARK    4  A    between atoms: C_23  and  O_24
REMARK    5  A    between atoms: C_23  and  C_26
REMARK    6  A    between atoms: C_26  and  C_27
REMARK    7  A    between atoms: C_28  and  C_31
REMARK    8  A    between atoms: C_31  and  O_32
REMARK                            x       y       z     vdW  Elec       q    Type
REMARK                         _______ _______ _______ _____ _____    ______ ____
ROOT
ATOM      1  O   UNL     1     -34.424  24.834   5.595  0.00  0.00    -0.479 OA
ATOM      2  O   UNL     1     -32.767  26.676   6.631  0.00  0.00    -0.287 OA
ATOM      3  O   UNL     1     -33.346  29.746   2.304  0.00  0.00    -0.283 OA
ATOM      4  C   UNL     1     -35.837  23.973   3.817  0.00  0.00    +0.086 C 
ATOM      5  C   UNL     1     -35.570  23.979   5.347  0.00  0.00    +0.172 C 
ATOM      6  C   UNL     1     -35.280  25.330   3.517  0.00  0.00    +0.051 C 
ATOM      7  C   UNL     1     -37.330  23.835   3.514  0.00  0.00    +0.011 C 
ATOM      8  C   UNL     1     -34.463  25.744   4.566  0.00  0.00    +0.141 C 
ATOM      9  C   UNL     1     -35.306  22.619   5.979  0.00  0.00    +0.048 C 
ATOM     10  C   UNL     1     -35.434  26.119   2.390  0.00  0.00    +0.133 C 
ATOM     11  C   UNL     1     -33.762  26.944   4.522  0.00  0.00    +0.076 C 
ATOM     12  C   UNL     1     -33.917  27.744   3.391  0.00  0.00    +0.051 C 
ATOM     13  C   UNL     1     -34.752  27.336   2.331  0.00  0.00    +0.040 C 
ATOM     14  C   UNL     1     -32.888  27.371   5.628  0.00  0.00    +0.198 C 
ATOM     15  C   UNL     1     -33.207  29.030   3.290  0.00  0.00    +0.229 C 
ATOM     16  C   UNL     1     -32.155  28.671   5.499  0.00  0.00    +0.054 C 
ATOM     17  C   UNL     1     -32.320  29.440   4.408  0.00  0.00    +0.176 C 
ATOM     18  C   UNL     1     -31.258  28.990   6.665  0.00  0.00    +0.038 C 
ENDROOT
BRANCH  10  19
ATOM     19  O   UNL     1     -36.241  25.755   1.361  0.00  0.00    -0.506 OA
ATOM     20  H   UNL     1     -36.621  24.899   1.344  0.00  0.00    +0.292 HD
ENDBRANCH  10  19
BRANCH  17  21
ATOM     21  O   UNL     1     -31.702  30.661   4.220  0.00  0.00    -0.468 OA
ATOM     22  C   UNL     1     -30.427  30.490   3.634  0.00  0.00    +0.253 C 
ENDBRANCH  17  21
BRANCH   4  23
ATOM     23  C   UNL     1     -35.041  22.912   3.042  0.00  0.00    +0.122 C 
BRANCH  23  24
ATOM     24  O   UNL     1     -34.420  23.547   1.929  0.00  0.00    -0.384 OA
ATOM     25  H   UNL     1     -33.512  23.794   2.162  0.00  0.00    +0.210 HD
ENDBRANCH  23  24
BRANCH  23  26
ATOM     26  C   UNL     1     -35.963  21.800   2.540  0.00  0.00    +0.056 C 
BRANCH  26  27
ATOM     27  C   UNL     1     -35.202  20.527   2.276  0.00  0.00    -0.021 C 
ATOM     28  C   UNL     1     -34.642  20.149   1.111  0.00  0.00    +0.049 C 
ATOM     29  C   UNL     1     -34.726  20.904  -0.181  0.00  0.00    +0.037 C 
BRANCH  28  31
ATOM     30  O   UNL     1     -32.770  18.678   1.520  0.00  0.00    -0.245 OA
ATOM     31  C   UNL     1     -33.914  18.849   1.130  0.00  0.00    +0.334 C 
BRANCH  31  32
ATOM     32  O   UNL     1     -34.697  17.857   0.643  0.00  0.00    -0.477 OA
ATOM     33  H   UNL     1     -34.823  17.771  -0.282  0.00  0.00    +0.295 HD
ENDBRANCH  31  32
ENDBRANCH  28  31
ENDBRANCH  26  27
ENDBRANCH  23  26
ENDBRANCH   4  23
TORSDOF 8
ENDMDL
MODEL 7
REMARK VINA RESULT:      -6.2      2.315      7.876
REMARK  Name = 53387829
REMARK  8 active torsions:
REMARK  status: ('A' for Active; 'I' for Inactive)
REMARK    1  A    between atoms: C_4  and  C_23
REMARK    2  A    between atoms: C_10  and  O_19
REMARK    3  A    between atoms: C_17  and  O_21
REMARK    4  A    between atoms: C_23  and  O_24
REMARK    5  A    between atoms: C_23  and  C_26
REMARK    6  A    between atoms: C_26  and  C_27
REMARK    7  A    between atoms: C_28  and  C_31
REMARK    8  A    between atoms: C_31  and  O_32
REMARK                            x       y       z     vdW  Elec       q    Type
REMARK                         _______ _______ _______ _____ _____    ______ ____
ROOT
ATOM      1  O   UNL     1     -33.616  25.929   5.499  0.00  0.00    -0.479 OA
ATOM      2  O   UNL     1     -31.578  27.287   6.603  0.00  0.00    -0.287 OA
ATOM      3  O   UNL     1     -32.190  31.237   3.065  0.00  0.00    -0.283 OA
ATOM      4  C   UNL     1     -35.350  25.645   3.823  0.00  0.00    +0.086 C 
ATOM      5  C   UNL     1     -34.903  25.299   5.269  0.00  0.00    +0.172 C 
ATOM      6  C   UNL     1     -34.629  26.952   3.704  0.00  0.00    +0.051 C 
ATOM      7  C   UNL     1     -36.873  25.767   3.727  0.00  0.00    +0.011 C 
ATOM      8  C   UNL     1     -33.636  27.031   4.677  0.00  0.00    +0.141 C 
ATOM      9  C   UNL     1     -34.779  23.816   5.589  0.00  0.00    +0.048 C 
ATOM     10  C   UNL     1     -34.793  27.970   2.781  0.00  0.00    +0.133 C 
ATOM     11  C   UNL     1     -32.767  28.113   4.755  0.00  0.00    +0.076 C 
ATOM     12  C   UNL     1     -32.931  29.144   3.830  0.00  0.00    +0.051 C 
ATOM     13  C   UNL     1     -33.942  29.075   2.850  0.00  0.00    +0.040 C 
ATOM     14  C   UNL     1     -31.709  28.185   5.778  0.00  0.00    +0.198 C 
ATOM     15  C   UNL     1     -32.047  30.320   3.867  0.00  0.00    +0.229 C 
ATOM     16  C   UNL     1     -30.804  29.378   5.787  0.00  0.00    +0.054 C 
ATOM     17  C   UNL     1     -30.977  30.371   4.897  0.00  0.00    +0.176 C 
ATOM     18  C   UNL     1     -29.734  29.330   6.844  0.00  0.00    +0.038 C 
ENDROOT
BRANCH  10  19
ATOM     19  O   UNL     1     -35.766  27.936   1.834  0.00  0.00    -0.506 OA
ATOM     20  H   UNL     1     -35.987  28.714   1.363  0.00  0.00    +0.292 HD
ENDBRANCH  10  19
BRANCH  17  21
ATOM     21  O   UNL     1     -30.204  31.515   4.852  0.00  0.00    -0.468 OA
ATOM     22  C   UNL     1     -29.035  31.297   4.087  0.00  0.00    +0.253 C 
ENDBRANCH  17  21
BRANCH   4  23
ATOM     23  C   UNL     1     -34.829  24.675   2.753  0.00  0.00    +0.122 C 
BRANCH  23  24
ATOM     24  O   UNL     1     -34.133  25.432   1.767  0.00  0.00    -0.384 OA
ATOM     25  H   UNL     1     -34.134  26.368   2.018  0.00  0.00    +0.210 HD
ENDBRANCH  23  24
BRANCH  23  26
ATOM     26  C   UNL     1     -35.986  23.926   2.090  0.00  0.00    +0.056 C 
BRANCH  26  27
ATOM     27  C   UNL     1     -35.869  22.437   2.290  0.00  0.00    -0.021 C 
ATOM     28  C   UNL     1     -35.072  21.592   1.610  0.00  0.00    +0.049 C 
ATOM     29  C   UNL     1     -34.183  21.967   0.462  0.00  0.00    +0.037 C 
BRANCH  28  31
ATOM     30  O   UNL     1     -34.207  19.363   1.956  0.00  0.00    -0.245 OA
ATOM     31  C   UNL     1     -35.125  20.164   2.032  0.00  0.00    +0.334 C 
BRANCH  31  32
ATOM     32  O   UNL     1     -36.351  19.856   2.519  0.00  0.00    -0.477 OA
ATOM     33  H   UNL     1     -37.084  20.406   2.323  0.00  0.00    +0.295 HD
ENDBRANCH  31  32
ENDBRANCH  28  31
ENDBRANCH  26  27
ENDBRANCH  23  26
ENDBRANCH   4  23
TORSDOF 8
ENDMDL
MODEL 8
REMARK VINA RESULT:      -6.2      3.557      7.191
REMARK  Name = 53387829
REMARK  8 active torsions:
REMARK  status: ('A' for Active; 'I' for Inactive)
REMARK    1  A    between atoms: C_4  and  C_23
REMARK    2  A    between atoms: C_10  and  O_19
REMARK    3  A    between atoms: C_17  and  O_21
REMARK    4  A    between atoms: C_23  and  O_24
REMARK    5  A    between atoms: C_23  and  C_26
REMARK    6  A    between atoms: C_26  and  C_27
REMARK    7  A    between atoms: C_28  and  C_31
REMARK    8  A    between atoms: C_31  and  O_32
REMARK                            x       y       z     vdW  Elec       q    Type
REMARK                         _______ _______ _______ _____ _____    ______ ____
ROOT
ATOM      1  O   UNL     1     -36.666  28.113   1.593  0.00  0.00    -0.479 OA
ATOM      2  O   UNL     1     -37.437  30.647   1.148  0.00  0.00    -0.287 OA
ATOM      3  O   UNL     1     -32.558  32.431   2.375  0.00  0.00    -0.283 OA
ATOM      4  C   UNL     1     -35.025  26.454   2.268  0.00  0.00    +0.086 C 
ATOM      5  C   UNL     1     -36.293  26.722   1.412  0.00  0.00    +0.172 C 
ATOM      6  C   UNL     1     -34.473  27.846   2.238  0.00  0.00    +0.051 C 
ATOM      7  C   UNL     1     -34.119  25.414   1.606  0.00  0.00    +0.011 C 
ATOM      8  C   UNL     1     -35.474  28.741   1.869  0.00  0.00    +0.141 C 
ATOM      9  C   UNL     1     -37.503  25.853   1.728  0.00  0.00    +0.048 C 
ATOM     10  C   UNL     1     -33.205  28.299   2.560  0.00  0.00    +0.133 C 
ATOM     11  C   UNL     1     -35.254  30.112   1.825  0.00  0.00    +0.076 C 
ATOM     12  C   UNL     1     -33.977  30.574   2.144  0.00  0.00    +0.051 C 
ATOM     13  C   UNL     1     -32.956  29.673   2.507  0.00  0.00    +0.040 C 
ATOM     14  C   UNL     1     -36.320  31.056   1.448  0.00  0.00    +0.198 C 
ATOM     15  C   UNL     1     -33.680  32.016   2.106  0.00  0.00    +0.229 C 
ATOM     16  C   UNL     1     -36.007  32.521   1.437  0.00  0.00    +0.054 C 
ATOM     17  C   UNL     1     -34.771  32.955   1.737  0.00  0.00    +0.176 C 
ATOM     18  C   UNL     1     -37.178  33.397   1.080  0.00  0.00    +0.038 C 
ENDROOT
BRANCH  10  19
ATOM     19  O   UNL     1     -32.201  27.452   2.901  0.00  0.00    -0.506 OA
ATOM     20  H   UNL     1     -31.331  27.780   3.014  0.00  0.00    +0.292 HD
ENDBRANCH  10  19
BRANCH  17  21
ATOM     21  O   UNL     1     -34.392  34.284   1.728  0.00  0.00    -0.468 OA
ATOM     22  C   UNL     1     -33.999  34.682   0.429  0.00  0.00    +0.253 C 
ENDBRANCH  17  21
BRANCH   4  23
ATOM     23  C   UNL     1     -35.319  26.053   3.721  0.00  0.00    +0.122 C 
BRANCH  23  24
ATOM     24  O   UNL     1     -35.495  27.242   4.484  0.00  0.00    -0.384 OA
ATOM     25  H   UNL     1     -35.408  28.015   3.904  0.00  0.00    +0.210 HD
ENDBRANCH  23  24
BRANCH  23  26
ATOM     26  C   UNL     1     -34.159  25.245   4.306  0.00  0.00    +0.056 C 
BRANCH  26  27
ATOM     27  C   UNL     1     -34.653  24.088   5.134  0.00  0.00    -0.021 C 
ATOM     28  C   UNL     1     -35.107  22.905   4.678  0.00  0.00    +0.049 C 
ATOM     29  C   UNL     1     -35.269  22.533   3.234  0.00  0.00    +0.037 C 
BRANCH  28  31
ATOM     30  O   UNL     1     -36.026  22.178   6.791  0.00  0.00    -0.245 OA
ATOM     31  C   UNL     1     -35.506  21.916   5.717  0.00  0.00    +0.334 C 
BRANCH  31  32
ATOM     32  O   UNL     1     -35.208  20.656   5.317  0.00  0.00    -0.477 OA
ATOM     33  H   UNL     1     -34.631  20.520   4.591  0.00  0.00    +0.295 HD
ENDBRANCH  31  32
ENDBRANCH  28  31
ENDBRANCH  26  27
ENDBRANCH  23  26
ENDBRANCH   4  23
TORSDOF 8
ENDMDL
MODEL 9
REMARK VINA RESULT:      -6.0      2.394      8.624
REMARK  Name = 53387829
REMARK  8 active torsions:
REMARK  status: ('A' for Active; 'I' for Inactive)
REMARK    1  A    between atoms: C_4  and  C_23
REMARK    2  A    between atoms: C_10  and  O_19
REMARK    3  A    between atoms: C_17  and  O_21
REMARK    4  A    between atoms: C_23  and  O_24
REMARK    5  A    between atoms: C_23  and  C_26
REMARK    6  A    between atoms: C_26  and  C_27
REMARK    7  A    between atoms: C_28  and  C_31
REMARK    8  A    between atoms: C_31  and  O_32
REMARK                            x       y       z     vdW  Elec       q    Type
REMARK                         _______ _______ _______ _____ _____    ______ ____
ROOT
ATOM      1  O   UNL     1     -34.876  26.406   1.767  0.00  0.00    -0.479 OA
ATOM      2  O   UNL     1     -32.933  28.227   2.119  0.00  0.00    -0.287 OA
ATOM      3  O   UNL     1     -32.649  27.035   7.315  0.00  0.00    -0.283 OA
ATOM      4  C   UNL     1     -36.422  24.727   2.596  0.00  0.00    +0.086 C 
ATOM      5  C   UNL     1     -35.616  25.224   1.366  0.00  0.00    +0.172 C 
ATOM      6  C   UNL     1     -35.502  25.250   3.656  0.00  0.00    +0.051 C 
ATOM      7  C   UNL     1     -36.559  23.203   2.592  0.00  0.00    +0.011 C 
ATOM      8  C   UNL     1     -34.667  26.223   3.113  0.00  0.00    +0.141 C 
ATOM      9  C   UNL     1     -36.436  25.564   0.129  0.00  0.00    +0.048 C 
ATOM     10  C   UNL     1     -35.437  24.936   5.002  0.00  0.00    +0.133 C 
ATOM     11  C   UNL     1     -33.754  26.925   3.892  0.00  0.00    +0.076 C 
ATOM     12  C   UNL     1     -33.681  26.609   5.248  0.00  0.00    +0.051 C 
ATOM     13  C   UNL     1     -34.516  25.617   5.801  0.00  0.00    +0.040 C 
ATOM     14  C   UNL     1     -32.882  27.964   3.316  0.00  0.00    +0.198 C 
ATOM     15  C   UNL     1     -32.728  27.313   6.122  0.00  0.00    +0.229 C 
ATOM     16  C   UNL     1     -31.934  28.685   4.224  0.00  0.00    +0.054 C 
ATOM     17  C   UNL     1     -31.865  28.366   5.528  0.00  0.00    +0.176 C 
ATOM     18  C   UNL     1     -31.123  29.754   3.542  0.00  0.00    +0.038 C 
ENDROOT
BRANCH  10  19
ATOM     19  O   UNL     1     -36.220  23.976   5.558  0.00  0.00    -0.506 OA
ATOM     20  H   UNL     1     -36.177  23.096   5.242  0.00  0.00    +0.292 HD
ENDBRANCH  10  19
BRANCH  17  21
ATOM     21  O   UNL     1     -31.004  28.965   6.428  0.00  0.00    -0.468 OA
ATOM     22  C   UNL     1     -29.719  28.382   6.352  0.00  0.00    +0.253 C 
ENDBRANCH  17  21
BRANCH   4  23
ATOM     23  C   UNL     1     -37.803  25.381   2.752  0.00  0.00    +0.122 C 
BRANCH  23  24
ATOM     24  O   UNL     1     -37.755  26.262   3.870  0.00  0.00    -0.384 OA
ATOM     25  H   UNL     1     -37.972  27.162   3.582  0.00  0.00    +0.210 HD
ENDBRANCH  23  24
BRANCH  23  26
ATOM     26  C   UNL     1     -38.881  24.323   2.989  0.00  0.00    +0.056 C 
BRANCH  26  27
ATOM     27  C   UNL     1     -40.045  24.498   2.048  0.00  0.00    -0.021 C 
ATOM     28  C   UNL     1     -41.060  25.374   2.175  0.00  0.00    +0.049 C 
ATOM     29  C   UNL     1     -41.262  26.312   3.328  0.00  0.00    +0.037 C 
BRANCH  28  31
ATOM     30  O   UNL     1     -42.559  26.349   0.551  0.00  0.00    -0.245 OA
ATOM     31  C   UNL     1     -42.070  25.363   1.080  0.00  0.00    +0.334 C 
BRANCH  31  32
ATOM     32  O   UNL     1     -42.393  24.092   0.741  0.00  0.00    -0.477 OA
ATOM     33  H   UNL     1     -43.261  23.890   0.454  0.00  0.00    +0.295 HD
ENDBRANCH  31  32
ENDBRANCH  28  31
ENDBRANCH  26  27
ENDBRANCH  23  26
ENDBRANCH   4  23
TORSDOF 8
ENDMDL
