MODEL 1
REMARK VINA RESULT:      -6.0      0.000      0.000
REMARK  Name = 5464190
REMARK  7 active torsions:
REMARK  status: ('A' for Active; 'I' for Inactive)
REMARK    1  A    between atoms: C_4  and  C_29
REMARK    2  A    between atoms: CA_6  and  N_11
REMARK    3  A    between atoms: CA_7  and  C_28
REMARK    4  A    between atoms: C_12  and  C_15
REMARK    5  A    between atoms: N_14  and  O_24
REMARK    6  A    between atoms: C_15  and  C_19
REMARK    7  A    between atoms: C_29  and  N_30
REMARK                            x       y       z     vdW  Elec       q    Type
REMARK                         _______ _______ _______ _____ _____    ______ ____
ROOT
ATOM      1  S   UNL     1     -35.081  24.646   0.466  0.00  0.00    -0.114 S 
ATOM      2  O   UNL     1     -36.200  22.639   4.510  0.00  0.00    -0.273 OA
ATOM      3  N   UNL     1     -36.169  22.930   2.172  0.00  0.00    -0.242 N 
ATOM      4  C   UNL     1     -35.679  21.910   0.100  0.00  0.00    -0.034 C 
ATOM      5  C   UNL     1     -36.408  24.253   1.629  0.00  0.00    +0.155 C 
ATOM      6  CA  UNL     1     -36.235  24.771   3.073  0.00  0.00    +0.179 C 
ATOM      7  CA  UNL     1     -35.963  21.818   1.421  0.00  0.00    +0.126 C 
ATOM      8  C   UNL     1     -35.473  23.236  -0.628  0.00  0.00    +0.081 C 
ATOM      9  C   UNL     1     -36.227  23.267   3.478  0.00  0.00    +0.251 C 
ENDROOT
BRANCH   6  11
ATOM     10  O   UNL     1     -35.715  26.471   5.425  0.00  0.00    -0.268 OA
ATOM     11  N   UNL     1     -35.002  25.475   3.422  0.00  0.00    -0.291 N 
ATOM     12  C   UNL     1     -34.880  26.250   4.562  0.00  0.00    +0.269 C 
ATOM     13  H   UNL     1     -34.227  25.397   2.820  0.00  0.00    +0.150 HD
BRANCH  12  15
ATOM     14  N   UNL     1     -33.044  27.149   5.884  0.00  0.00    -0.076 NA
ATOM     15  C   UNL     1     -33.518  26.878   4.705  0.00  0.00    +0.198 C 
BRANCH  15  19
ATOM     16  S   UNL     1     -31.594  28.429   1.606  0.00  0.00    -0.060 S 
ATOM     17  N   UNL     1     -31.916  26.236   2.936  0.00  0.00    -0.383 NA
ATOM     18  N   UNL     1     -30.429  26.092   1.104  0.00  0.00    -0.328 N 
ATOM     19  C   UNL     1     -32.702  27.205   3.530  0.00  0.00    +0.148 C 
ATOM     20  C   UNL     1     -32.660  28.455   2.950  0.00  0.00    +0.127 C 
ATOM     21  C   UNL     1     -31.288  26.768   1.912  0.00  0.00    +0.204 C 
ATOM     22  H   UNL     1     -29.992  26.554   0.353  0.00  0.00    +0.145 HD
ATOM     23  H   UNL     1     -30.245  25.140   1.270  0.00  0.00    +0.145 HD
ENDBRANCH  15  19
BRANCH  14  24
ATOM     24  O   UNL     1     -31.772  27.735   5.811  0.00  0.00    -0.373 OA
ATOM     25  C   UNL     1     -31.768  28.884   6.642  0.00  0.00    +0.288 C 
ENDBRANCH  14  24
ENDBRANCH  12  15
ENDBRANCH   6  11
BRANCH   7  28
ATOM     26  O   UNL     1     -37.110  19.846   1.970  0.00  0.00    -0.239 OA
ATOM     27  OXT UNL     1     -34.967  20.134   2.717  0.00  0.00    -0.239 OA
ATOM     28  C   UNL     1     -36.019  20.458   2.107  0.00  0.00    +0.401 C 
ENDBRANCH   7  28
BRANCH   4  29
ATOM     29  C   UNL     1     -35.460  20.731  -0.817  0.00  0.00    -0.048 C 
BRANCH  29  30
ATOM     30  N   UNL     1     -33.986  20.464  -1.079  0.00  0.00    +0.391 N 
ATOM     31  C   UNL     1     -33.686  18.953  -0.993  0.00  0.00    -0.073 C 
ATOM     32  C   UNL     1     -33.120  21.125   0.013  0.00  0.00    -0.073 C 
ATOM     33  C   UNL     1     -32.956  18.780   0.324  0.00  0.00    -0.024 C 
ATOM     34  C   UNL     1     -32.138  20.047   0.431  0.00  0.00    -0.024 C 
ATOM     35  C   UNL     1     -33.615  21.001  -2.452  0.00  0.00    -0.095 C 
ENDBRANCH  29  30
ENDBRANCH   4  29
TORSDOF 7
ENDMDL
MODEL 2
REMARK VINA RESULT:      -5.9      1.973      3.109
REMARK  Name = 5464190
REMARK  7 active torsions:
REMARK  status: ('A' for Active; 'I' for Inactive)
REMARK    1  A    between atoms: C_4  and  C_29
REMARK    2  A    between atoms: CA_6  and  N_11
REMARK    3  A    between atoms: CA_7  and  C_28
REMARK    4  A    between atoms: C_12  and  C_15
REMARK    5  A    between atoms: N_14  and  O_24
REMARK    6  A    between atoms: C_15  and  C_19
REMARK    7  A    between atoms: C_29  and  N_30
REMARK                            x       y       z     vdW  Elec       q    Type
REMARK                         _______ _______ _______ _____ _____    ______ ____
ROOT
ATOM      1  S   UNL     1     -36.415  24.833   2.005  0.00  0.00    -0.114 S 
ATOM      2  O   UNL     1     -35.043  21.424   4.856  0.00  0.00    -0.273 OA
ATOM      3  N   UNL     1     -36.267  22.426   3.109  0.00  0.00    -0.242 N 
ATOM      4  C   UNL     1     -36.826  22.303   0.819  0.00  0.00    -0.034 C 
ATOM      5  C   UNL     1     -36.892  23.713   3.342  0.00  0.00    +0.155 C 
ATOM      6  CA  UNL     1     -36.046  23.781   4.632  0.00  0.00    +0.179 C 
ATOM      7  CA  UNL     1     -36.368  21.722   1.952  0.00  0.00    +0.126 C 
ATOM      8  C   UNL     1     -37.170  23.787   0.711  0.00  0.00    +0.081 C 
ATOM      9  C   UNL     1     -35.671  22.303   4.314  0.00  0.00    +0.251 C 
ENDROOT
BRANCH   6  11
ATOM     10  O   UNL     1     -35.844  26.425   5.920  0.00  0.00    -0.268 OA
ATOM     11  N   UNL     1     -34.894  24.681   4.668  0.00  0.00    -0.291 N 
ATOM     12  C   UNL     1     -34.923  25.907   5.310  0.00  0.00    +0.269 C 
ATOM     13  H   UNL     1     -34.064  24.404   4.217  0.00  0.00    +0.150 HD
BRANCH  12  15
ATOM     14  N   UNL     1     -32.999  27.038   6.285  0.00  0.00    -0.076 NA
ATOM     15  C   UNL     1     -33.618  26.655   5.208  0.00  0.00    +0.198 C 
BRANCH  15  19
ATOM     16  S   UNL     1     -32.329  28.171   1.781  0.00  0.00    -0.060 S 
ATOM     17  N   UNL     1     -32.261  26.038   3.238  0.00  0.00    -0.383 NA
ATOM     18  N   UNL     1     -31.067  25.904   1.202  0.00  0.00    -0.328 N 
ATOM     19  C   UNL     1     -33.023  26.977   3.907  0.00  0.00    +0.148 C 
ATOM     20  C   UNL     1     -33.174  28.192   3.274  0.00  0.00    +0.127 C 
ATOM     21  C   UNL     1     -31.844  26.558   2.106  0.00  0.00    +0.204 C 
ATOM     22  H   UNL     1     -30.790  26.355   0.372  0.00  0.00    +0.145 HD
ATOM     23  H   UNL     1     -30.781  24.978   1.378  0.00  0.00    +0.145 HD
ENDBRANCH  15  19
BRANCH  14  24
ATOM     24  O   UNL     1     -31.813  27.723   5.987  0.00  0.00    -0.373 OA
ATOM     25  C   UNL     1     -31.809  28.936   6.721  0.00  0.00    +0.288 C 
ENDBRANCH  14  24
ENDBRANCH  12  15
ENDBRANCH   6  11
BRANCH   7  28
ATOM     26  O   UNL     1     -34.701  20.096   1.662  0.00  0.00    -0.239 OA
ATOM     27  OXT UNL     1     -36.817  19.435   2.228  0.00  0.00    -0.239 OA
ATOM     28  C   UNL     1     -35.915  20.266   1.947  0.00  0.00    +0.401 C 
ENDBRANCH   7  28
BRANCH   4  29
ATOM     29  C   UNL     1     -36.995  21.595  -0.504  0.00  0.00    -0.048 C 
BRANCH  29  30
ATOM     30  N   UNL     1     -38.393  21.021  -0.681  0.00  0.00    +0.391 N 
ATOM     31  C   UNL     1     -39.104  21.686  -1.877  0.00  0.00    -0.073 C 
ATOM     32  C   UNL     1     -39.262  21.338   0.553  0.00  0.00    -0.073 C 
ATOM     33  C   UNL     1     -40.123  22.617  -1.249  0.00  0.00    -0.024 C 
ATOM     34  C   UNL     1     -40.568  21.856  -0.019  0.00  0.00    -0.024 C 
ATOM     35  C   UNL     1     -38.294  19.518  -0.893  0.00  0.00    -0.095 C 
ENDBRANCH  29  30
ENDBRANCH   4  29
TORSDOF 7
ENDMDL
MODEL 3
REMARK VINA RESULT:      -5.8      2.755      4.661
REMARK  Name = 5464190
REMARK  7 active torsions:
REMARK  status: ('A' for Active; 'I' for Inactive)
REMARK    1  A    between atoms: C_4  and  C_29
REMARK    2  A    between atoms: CA_6  and  N_11
REMARK    3  A    between atoms: CA_7  and  C_28
REMARK    4  A    between atoms: C_12  and  C_15
REMARK    5  A    between atoms: N_14  and  O_24
REMARK    6  A    between atoms: C_15  and  C_19
REMARK    7  A    between atoms: C_29  and  N_30
REMARK                            x       y       z     vdW  Elec       q    Type
REMARK                         _______ _______ _______ _____ _____    ______ ____
ROOT
ATOM      1  S   UNL     1     -33.264  25.939   1.468  0.00  0.00    -0.114 S 
ATOM      2  O   UNL     1     -34.416  26.381   5.952  0.00  0.00    -0.273 OA
ATOM      3  N   UNL     1     -34.628  25.645   3.723  0.00  0.00    -0.242 N 
ATOM      4  C   UNL     1     -34.845  23.760   2.319  0.00  0.00    -0.034 C 
ATOM      5  C   UNL     1     -34.457  26.605   2.651  0.00  0.00    +0.155 C 
ATOM      6  CA  UNL     1     -33.900  27.562   3.727  0.00  0.00    +0.179 C 
ATOM      7  CA  UNL     1     -34.945  24.338   3.539  0.00  0.00    +0.126 C 
ATOM      8  C   UNL     1     -34.289  24.475   1.091  0.00  0.00    +0.081 C 
ATOM      9  C   UNL     1     -34.370  26.484   4.748  0.00  0.00    +0.251 C 
ENDROOT
BRANCH   6  11
ATOM     10  O   UNL     1     -32.453  29.631   5.249  0.00  0.00    -0.268 OA
ATOM     11  N   UNL     1     -32.460  27.813   3.764  0.00  0.00    -0.291 N 
ATOM     12  C   UNL     1     -31.896  28.823   4.523  0.00  0.00    +0.269 C 
ATOM     13  H   UNL     1     -31.867  27.240   3.226  0.00  0.00    +0.150 HD
BRANCH  12  15
ATOM     14  N   UNL     1     -29.848  29.164   3.251  0.00  0.00    -0.076 NA
ATOM     15  C   UNL     1     -30.395  28.887   4.397  0.00  0.00    +0.198 C 
BRANCH  15  19
ATOM     16  S   UNL     1     -28.129  28.909   7.648  0.00  0.00    -0.060 S 
ATOM     17  N   UNL     1     -29.013  27.369   5.770  0.00  0.00    -0.383 NA
ATOM     18  N   UNL     1     -27.611  26.318   7.357  0.00  0.00    -0.328 N 
ATOM     19  C   UNL     1     -29.521  28.634   5.547  0.00  0.00    +0.148 C 
ATOM     20  C   UNL     1     -29.153  29.601   6.458  0.00  0.00    +0.127 C 
ATOM     21  C   UNL     1     -28.265  27.396   6.850  0.00  0.00    +0.204 C 
ATOM     22  H   UNL     1     -27.067  26.410   8.172  0.00  0.00    +0.145 HD
ATOM     23  H   UNL     1     -27.682  25.444   6.909  0.00  0.00    +0.145 HD
ENDBRANCH  15  19
BRANCH  14  24
ATOM     24  O   UNL     1     -28.448  29.170   3.331  0.00  0.00    -0.373 OA
ATOM     25  C   UNL     1     -27.938  28.548   2.163  0.00  0.00    +0.288 C 
ENDBRANCH  14  24
ENDBRANCH  12  15
ENDBRANCH   6  11
BRANCH   7  28
ATOM     26  O   UNL     1     -34.444  22.938   5.355  0.00  0.00    -0.239 OA
ATOM     27  OXT UNL     1     -36.619  23.539   4.978  0.00  0.00    -0.239 OA
ATOM     28  C   UNL     1     -35.381  23.520   4.750  0.00  0.00    +0.401 C 
ENDBRANCH   7  28
BRANCH   4  29
ATOM     29  C   UNL     1     -35.199  22.324   2.016  0.00  0.00    -0.048 C 
BRANCH  29  30
ATOM     30  N   UNL     1     -36.500  22.198   1.237  0.00  0.00    +0.391 N 
ATOM     31  C   UNL     1     -37.347  23.478   1.388  0.00  0.00    -0.073 C 
ATOM     32  C   UNL     1     -37.361  21.055   1.815  0.00  0.00    -0.073 C 
ATOM     33  C   UNL     1     -38.470  23.087   2.328  0.00  0.00    -0.024 C 
ATOM     34  C   UNL     1     -38.750  21.650   1.948  0.00  0.00    -0.024 C 
ATOM     35  C   UNL     1     -36.184  21.940  -0.228  0.00  0.00    -0.095 C 
ENDBRANCH  29  30
ENDBRANCH   4  29
TORSDOF 7
ENDMDL
MODEL 4
REMARK VINA RESULT:      -5.8      3.661      9.108
REMARK  Name = 5464190
REMARK  7 active torsions:
REMARK  status: ('A' for Active; 'I' for Inactive)
REMARK    1  A    between atoms: C_4  and  C_29
REMARK    2  A    between atoms: CA_6  and  N_11
REMARK    3  A    between atoms: CA_7  and  C_28
REMARK    4  A    between atoms: C_12  and  C_15
REMARK    5  A    between atoms: N_14  and  O_24
REMARK    6  A    between atoms: C_15  and  C_19
REMARK    7  A    between atoms: C_29  and  N_30
REMARK                            x       y       z     vdW  Elec       q    Type
REMARK                         _______ _______ _______ _____ _____    ______ ____
ROOT
ATOM      1  S   UNL     1     -35.441  28.060   1.792  0.00  0.00    -0.114 S 
ATOM      2  O   UNL     1     -31.551  27.361   4.244  0.00  0.00    -0.273 OA
ATOM      3  N   UNL     1     -33.039  28.511   2.824  0.00  0.00    -0.242 N 
ATOM      4  C   UNL     1     -34.237  30.517   2.492  0.00  0.00    -0.034 C 
ATOM      5  C   UNL     1     -33.655  27.792   1.726  0.00  0.00    +0.155 C 
ATOM      6  CA  UNL     1     -33.125  26.506   2.399  0.00  0.00    +0.179 C 
ATOM      7  CA  UNL     1     -33.229  29.831   3.079  0.00  0.00    +0.126 C 
ATOM      8  C   UNL     1     -35.287  29.870   1.593  0.00  0.00    +0.081 C 
ATOM      9  C   UNL     1     -32.357  27.471   3.350  0.00  0.00    +0.251 C 
ENDROOT
BRANCH   6  11
ATOM     10  O   UNL     1     -34.290  23.967   1.456  0.00  0.00    -0.268 OA
ATOM     11  N   UNL     1     -34.075  25.637   3.093  0.00  0.00    -0.291 N 
ATOM     12  C   UNL     1     -34.553  24.461   2.541  0.00  0.00    +0.269 C 
ATOM     13  H   UNL     1     -34.388  25.899   3.989  0.00  0.00    +0.150 HD
BRANCH  12  15
ATOM     14  N   UNL     1     -35.086  23.076   4.472  0.00  0.00    -0.076 NA
ATOM     15  C   UNL     1     -35.521  23.739   3.443  0.00  0.00    +0.198 C 
BRANCH  15  19
ATOM     16  S   UNL     1     -39.285  23.205   2.322  0.00  0.00    -0.060 S 
ATOM     17  N   UNL     1     -37.765  24.723   3.759  0.00  0.00    -0.383 NA
ATOM     18  N   UNL     1     -40.057  25.304   3.760  0.00  0.00    -0.328 N 
ATOM     19  C   UNL     1     -36.964  23.757   3.181  0.00  0.00    +0.148 C 
ATOM     20  C   UNL     1     -37.608  22.847   2.370  0.00  0.00    +0.127 C 
ATOM     21  C   UNL     1     -39.007  24.531   3.376  0.00  0.00    +0.204 C 
ATOM     22  H   UNL     1     -40.964  25.102   3.434  0.00  0.00    +0.145 HD
ATOM     23  H   UNL     1     -39.910  26.067   4.365  0.00  0.00    +0.145 HD
ENDBRANCH  15  19
BRANCH  14  24
ATOM     24  O   UNL     1     -36.132  22.469   5.181  0.00  0.00    -0.373 OA
ATOM     25  C   UNL     1     -35.629  22.055   6.440  0.00  0.00    +0.288 C 
ENDBRANCH  14  24
ENDBRANCH  12  15
ENDBRANCH   6  11
BRANCH   7  28
ATOM     26  O   UNL     1     -32.710  30.511   5.264  0.00  0.00    -0.239 OA
ATOM     27  OXT UNL     1     -31.253  30.998   3.569  0.00  0.00    -0.239 OA
ATOM     28  C   UNL     1     -32.301  30.518   4.074  0.00  0.00    +0.401 C 
ENDBRANCH   7  28
BRANCH   4  29
ATOM     29  C   UNL     1     -34.509  31.988   2.695  0.00  0.00    -0.048 C 
BRANCH  29  30
ATOM     30  N   UNL     1     -33.826  32.855   1.648  0.00  0.00    +0.391 N 
ATOM     31  C   UNL     1     -32.836  33.832   2.317  0.00  0.00    -0.073 C 
ATOM     32  C   UNL     1     -34.862  33.739   0.925  0.00  0.00    -0.073 C 
ATOM     33  C   UNL     1     -33.522  35.183   2.244  0.00  0.00    -0.024 C 
ATOM     34  C   UNL     1     -34.249  35.126   0.919  0.00  0.00    -0.024 C 
ATOM     35  C   UNL     1     -33.099  31.962   0.656  0.00  0.00    -0.095 C 
ENDBRANCH  29  30
ENDBRANCH   4  29
TORSDOF 7
ENDMDL
MODEL 5
REMARK VINA RESULT:      -5.7      4.347      8.643
REMARK  Name = 5464190
REMARK  7 active torsions:
REMARK  status: ('A' for Active; 'I' for Inactive)
REMARK    1  A    between atoms: C_4  and  C_29
REMARK    2  A    between atoms: CA_6  and  N_11
REMARK    3  A    between atoms: CA_7  and  C_28
REMARK    4  A    between atoms: C_12  and  C_15
REMARK    5  A    between atoms: N_14  and  O_24
REMARK    6  A    between atoms: C_15  and  C_19
REMARK    7  A    between atoms: C_29  and  N_30
REMARK                            x       y       z     vdW  Elec       q    Type
REMARK                         _______ _______ _______ _____ _____    ______ ____
ROOT
ATOM      1  S   UNL     1     -36.566  27.598   0.911  0.00  0.00    -0.114 S 
ATOM      2  O   UNL     1     -33.267  28.641   4.019  0.00  0.00    -0.273 OA
ATOM      3  N   UNL     1     -34.708  28.995   2.189  0.00  0.00    -0.242 N 
ATOM      4  C   UNL     1     -36.384  30.391   1.286  0.00  0.00    -0.034 C 
ATOM      5  C   UNL     1     -34.816  27.965   1.174  0.00  0.00    +0.155 C 
ATOM      6  CA  UNL     1     -34.060  27.050   2.162  0.00  0.00    +0.179 C 
ATOM      7  CA  UNL     1     -35.357  30.186   2.144  0.00  0.00    +0.126 C 
ATOM      8  C   UNL     1     -36.958  29.302   0.383  0.00  0.00    +0.081 C 
ATOM      9  C   UNL     1     -33.858  28.341   3.008  0.00  0.00    +0.251 C 
ENDROOT
BRANCH   6  11
ATOM     10  O   UNL     1     -33.091  25.210   4.252  0.00  0.00    -0.268 OA
ATOM     11  N   UNL     1     -34.807  26.005   2.860  0.00  0.00    -0.291 N 
ATOM     12  C   UNL     1     -34.236  25.198   3.830  0.00  0.00    +0.269 C 
ATOM     13  H   UNL     1     -35.754  25.868   2.631  0.00  0.00    +0.150 HD
BRANCH  12  15
ATOM     14  N   UNL     1     -34.869  23.486   5.441  0.00  0.00    -0.076 NA
ATOM     15  C   UNL     1     -35.203  24.194   4.404  0.00  0.00    +0.198 C 
BRANCH  15  19
ATOM     16  S   UNL     1     -38.455  23.089   2.428  0.00  0.00    -0.060 S 
ATOM     17  N   UNL     1     -37.591  24.784   4.177  0.00  0.00    -0.383 NA
ATOM     18  N   UNL     1     -39.884  24.979   3.635  0.00  0.00    -0.328 N 
ATOM     19  C   UNL     1     -36.526  23.983   3.809  0.00  0.00    +0.148 C 
ATOM     20  C   UNL     1     -36.800  23.010   2.872  0.00  0.00    +0.127 C 
ATOM     21  C   UNL     1     -38.658  24.403   3.512  0.00  0.00    +0.204 C 
ATOM     22  H   UNL     1     -40.642  24.642   3.104  0.00  0.00    +0.145 HD
ATOM     23  H   UNL     1     -40.013  25.733   4.254  0.00  0.00    +0.145 HD
ENDBRANCH  15  19
BRANCH  14  24
ATOM     24  O   UNL     1     -35.892  22.606   5.821  0.00  0.00    -0.373 OA
ATOM     25  C   UNL     1     -35.321  21.320   6.004  0.00  0.00    +0.288 C 
ENDBRANCH  14  24
ENDBRANCH  12  15
ENDBRANCH   6  11
BRANCH   7  28
ATOM     26  O   UNL     1     -34.057  32.070   2.662  0.00  0.00    -0.239 OA
ATOM     27  OXT UNL     1     -35.504  31.249   4.232  0.00  0.00    -0.239 OA
ATOM     28  C   UNL     1     -34.929  31.282   3.113  0.00  0.00    +0.401 C 
ENDBRANCH   7  28
BRANCH   4  29
ATOM     29  C   UNL     1     -37.146  31.687   1.149  0.00  0.00    -0.048 C 
BRANCH  29  30
ATOM     30  N   UNL     1     -36.583  32.579   0.054  0.00  0.00    +0.391 N 
ATOM     31  C   UNL     1     -37.610  32.755  -1.083  0.00  0.00    -0.073 C 
ATOM     32  C   UNL     1     -35.349  31.918  -0.594  0.00  0.00    -0.073 C 
ATOM     33  C   UNL     1     -37.079  31.900  -2.217  0.00  0.00    -0.024 C 
ATOM     34  C   UNL     1     -35.580  32.055  -2.087  0.00  0.00    -0.024 C 
ATOM     35  C   UNL     1     -36.215  33.930   0.648  0.00  0.00    -0.095 C 
ENDBRANCH  29  30
ENDBRANCH   4  29
TORSDOF 7
ENDMDL
MODEL 6
REMARK VINA RESULT:      -5.7      2.348      3.953
REMARK  Name = 5464190
REMARK  7 active torsions:
REMARK  status: ('A' for Active; 'I' for Inactive)
REMARK    1  A    between atoms: C_4  and  C_29
REMARK    2  A    between atoms: CA_6  and  N_11
REMARK    3  A    between atoms: CA_7  and  C_28
REMARK    4  A    between atoms: C_12  and  C_15
REMARK    5  A    between atoms: N_14  and  O_24
REMARK    6  A    between atoms: C_15  and  C_19
REMARK    7  A    between atoms: C_29  and  N_30
REMARK                            x       y       z     vdW  Elec       q    Type
REMARK                         _______ _______ _______ _____ _____    ______ ____
ROOT
ATOM      1  S   UNL     1     -34.439  26.113   0.717  0.00  0.00    -0.114 S 
ATOM      2  O   UNL     1     -35.752  26.442   5.167  0.00  0.00    -0.273 OA
ATOM      3  N   UNL     1     -35.995  26.012   2.862  0.00  0.00    -0.242 N 
ATOM      4  C   UNL     1     -36.629  24.412   1.248  0.00  0.00    -0.034 C 
ATOM      5  C   UNL     1     -35.481  26.980   1.913  0.00  0.00    +0.155 C 
ATOM      6  CA  UNL     1     -34.759  27.629   3.114  0.00  0.00    +0.179 C 
ATOM      7  CA  UNL     1     -36.653  24.876   2.519  0.00  0.00    +0.126 C 
ATOM      8  C   UNL     1     -35.804  25.049   0.133  0.00  0.00    +0.081 C 
ATOM      9  C   UNL     1     -35.588  26.641   3.986  0.00  0.00    +0.251 C 
ENDROOT
BRANCH   6  11
ATOM     10  O   UNL     1     -32.835  29.339   4.552  0.00  0.00    -0.268 OA
ATOM     11  N   UNL     1     -33.313  27.450   3.242  0.00  0.00    -0.291 N 
ATOM     12  C   UNL     1     -32.511  28.329   3.949  0.00  0.00    +0.269 C 
ATOM     13  H   UNL     1     -32.893  26.673   2.807  0.00  0.00    +0.150 HD
BRANCH  12  15
ATOM     14  N   UNL     1     -30.635  27.012   3.126  0.00  0.00    -0.076 NA
ATOM     15  C   UNL     1     -31.055  27.936   3.937  0.00  0.00    +0.198 C 
BRANCH  15  19
ATOM     16  S   UNL     1     -28.393  30.166   5.846  0.00  0.00    -0.060 S 
ATOM     17  N   UNL     1     -29.771  27.988   6.047  0.00  0.00    -0.383 NA
ATOM     18  N   UNL     1     -28.360  28.458   7.884  0.00  0.00    -0.328 N 
ATOM     19  C   UNL     1     -30.087  28.573   4.835  0.00  0.00    +0.148 C 
ATOM     20  C   UNL     1     -29.440  29.757   4.551  0.00  0.00    +0.127 C 
ATOM     21  C   UNL     1     -28.888  28.740   6.664  0.00  0.00    +0.204 C 
ATOM     22  H   UNL     1     -27.701  29.067   8.289  0.00  0.00    +0.145 HD
ATOM     23  H   UNL     1     -28.636  27.644   8.363  0.00  0.00    +0.145 HD
ENDBRANCH  15  19
BRANCH  14  24
ATOM     24  O   UNL     1     -29.259  26.783   3.267  0.00  0.00    -0.373 OA
ATOM     25  C   UNL     1     -28.672  26.822   1.976  0.00  0.00    +0.288 C 
ENDBRANCH  14  24
ENDBRANCH  12  15
ENDBRANCH   6  11
BRANCH   7  28
ATOM     26  O   UNL     1     -36.696  23.242   4.203  0.00  0.00    -0.239 OA
ATOM     27  OXT UNL     1     -38.593  24.443   3.767  0.00  0.00    -0.239 OA
ATOM     28  C   UNL     1     -37.391  24.107   3.610  0.00  0.00    +0.401 C 
ENDBRANCH   7  28
BRANCH   4  29
ATOM     29  C   UNL     1     -37.349  23.174   0.770  0.00  0.00    -0.048 C 
BRANCH  29  30
ATOM     30  N   UNL     1     -36.400  22.015   0.503  0.00  0.00    +0.391 N 
ATOM     31  C   UNL     1     -37.034  20.682   0.948  0.00  0.00    -0.073 C 
ATOM     32  C   UNL     1     -35.117  22.170   1.345  0.00  0.00    -0.073 C 
ATOM     33  C   UNL     1     -36.304  20.315   2.224  0.00  0.00    -0.024 C 
ATOM     34  C   UNL     1     -34.896  20.803   1.964  0.00  0.00    -0.024 C 
ATOM     35  C   UNL     1     -36.065  21.974  -0.979  0.00  0.00    -0.095 C 
ENDBRANCH  29  30
ENDBRANCH   4  29
TORSDOF 7
ENDMDL
MODEL 7
REMARK VINA RESULT:      -5.6      1.421      2.474
REMARK  Name = 5464190
REMARK  7 active torsions:
REMARK  status: ('A' for Active; 'I' for Inactive)
REMARK    1  A    between atoms: C_4  and  C_29
REMARK    2  A    between atoms: CA_6  and  N_11
REMARK    3  A    between atoms: CA_7  and  C_28
REMARK    4  A    between atoms: C_12  and  C_15
REMARK    5  A    between atoms: N_14  and  O_24
REMARK    6  A    between atoms: C_15  and  C_19
REMARK    7  A    between atoms: C_29  and  N_30
REMARK                            x       y       z     vdW  Elec       q    Type
REMARK                         _______ _______ _______ _____ _____    ______ ____
ROOT
ATOM      1  S   UNL     1     -34.306  24.297   0.101  0.00  0.00    -0.114 S 
ATOM      2  O   UNL     1     -35.726  22.955   4.321  0.00  0.00    -0.273 OA
ATOM      3  N   UNL     1     -35.614  22.941   1.967  0.00  0.00    -0.242 N 
ATOM      4  C   UNL     1     -35.197  21.618   0.057  0.00  0.00    -0.034 C 
ATOM      5  C   UNL     1     -35.693  24.201   1.256  0.00  0.00    +0.155 C 
ATOM      6  CA  UNL     1     -35.494  24.878   2.630  0.00  0.00    +0.179 C 
ATOM      7  CA  UNL     1     -35.517  21.726   1.368  0.00  0.00    +0.126 C 
ATOM      8  C   UNL     1     -34.829  22.810  -0.822  0.00  0.00    +0.081 C 
ATOM      9  C   UNL     1     -35.662  23.446   3.218  0.00  0.00    +0.251 C 
ENDROOT
BRANCH   6  11
ATOM     10  O   UNL     1     -34.946  27.603   3.613  0.00  0.00    -0.268 OA
ATOM     11  N   UNL     1     -34.198  25.484   2.931  0.00  0.00    -0.291 N 
ATOM     12  C   UNL     1     -34.069  26.784   3.390  0.00  0.00    +0.269 C 
ATOM     13  H   UNL     1     -33.383  24.947   2.800  0.00  0.00    +0.150 HD
BRANCH  12  15
ATOM     14  N   UNL     1     -31.673  26.551   3.027  0.00  0.00    -0.076 NA
ATOM     15  C   UNL     1     -32.636  27.185   3.626  0.00  0.00    +0.198 C 
BRANCH  15  19
ATOM     16  S   UNL     1     -31.711  30.564   5.479  0.00  0.00    -0.060 S 
ATOM     17  N   UNL     1     -32.141  28.049   5.887  0.00  0.00    -0.383 NA
ATOM     18  N   UNL     1     -31.617  29.306   7.819  0.00  0.00    -0.328 N 
ATOM     19  C   UNL     1     -32.291  28.284   4.534  0.00  0.00    +0.148 C 
ATOM     20  C   UNL     1     -32.096  29.586   4.124  0.00  0.00    +0.127 C 
ATOM     21  C   UNL     1     -31.835  29.179   6.484  0.00  0.00    +0.204 C 
ATOM     22  H   UNL     1     -31.391  30.186   8.200  0.00  0.00    +0.145 HD
ATOM     23  H   UNL     1     -31.687  28.519   8.406  0.00  0.00    +0.145 HD
ENDBRANCH  15  19
BRANCH  14  24
ATOM     24  O   UNL     1     -30.415  27.062   3.378  0.00  0.00    -0.373 OA
ATOM     25  C   UNL     1     -29.583  27.009   2.231  0.00  0.00    +0.288 C 
ENDBRANCH  14  24
ENDBRANCH  12  15
ENDBRANCH   6  11
BRANCH   7  28
ATOM     26  O   UNL     1     -34.722  20.085   2.846  0.00  0.00    -0.239 OA
ATOM     27  OXT UNL     1     -36.907  20.015   2.172  0.00  0.00    -0.239 OA
ATOM     28  C   UNL     1     -35.738  20.479   2.217  0.00  0.00    +0.401 C 
ENDBRANCH   7  28
BRANCH   4  29
ATOM     29  C   UNL     1     -35.091  20.315  -0.698  0.00  0.00    -0.048 C 
BRANCH  29  30
ATOM     30  N   UNL     1     -33.648  19.905  -0.950  0.00  0.00    +0.391 N 
ATOM     31  C   UNL     1     -33.471  18.387  -0.739  0.00  0.00    -0.073 C 
ATOM     32  C   UNL     1     -32.712  20.582   0.072  0.00  0.00    -0.073 C 
ATOM     33  C   UNL     1     -32.735  18.266   0.581  0.00  0.00    -0.024 C 
ATOM     34  C   UNL     1     -31.814  19.465   0.570  0.00  0.00    -0.024 C 
ATOM     35  C   UNL     1     -33.259  20.291  -2.368  0.00  0.00    -0.095 C 
ENDBRANCH  29  30
ENDBRANCH   4  29
TORSDOF 7
ENDMDL
MODEL 8
REMARK VINA RESULT:      -5.6      2.419      3.852
REMARK  Name = 5464190
REMARK  7 active torsions:
REMARK  status: ('A' for Active; 'I' for Inactive)
REMARK    1  A    between atoms: C_4  and  C_29
REMARK    2  A    between atoms: CA_6  and  N_11
REMARK    3  A    between atoms: CA_7  and  C_28
REMARK    4  A    between atoms: C_12  and  C_15
REMARK    5  A    between atoms: N_14  and  O_24
REMARK    6  A    between atoms: C_15  and  C_19
REMARK    7  A    between atoms: C_29  and  N_30
REMARK                            x       y       z     vdW  Elec       q    Type
REMARK                         _______ _______ _______ _____ _____    ______ ____
ROOT
ATOM      1  S   UNL     1     -32.909  25.749   1.609  0.00  0.00    -0.114 S 
ATOM      2  O   UNL     1     -34.851  26.293   5.799  0.00  0.00    -0.273 OA
ATOM      3  N   UNL     1     -34.692  25.565   3.564  0.00  0.00    -0.242 N 
ATOM      4  C   UNL     1     -34.776  23.695   2.126  0.00  0.00    -0.034 C 
ATOM      5  C   UNL     1     -34.252  26.505   2.552  0.00  0.00    +0.155 C 
ATOM      6  CA  UNL     1     -33.840  27.423   3.723  0.00  0.00    +0.179 C 
ATOM      7  CA  UNL     1     -35.062  24.283   3.311  0.00  0.00    +0.126 C 
ATOM      8  C   UNL     1     -33.948  24.362   1.031  0.00  0.00    +0.081 C 
ATOM      9  C   UNL     1     -34.571  26.387   4.627  0.00  0.00    +0.251 C 
ENDROOT
BRANCH   6  11
ATOM     10  O   UNL     1     -32.541  29.492   5.374  0.00  0.00    -0.268 OA
ATOM     11  N   UNL     1     -32.419  27.569   4.033  0.00  0.00    -0.291 N 
ATOM     12  C   UNL     1     -31.927  28.591   4.826  0.00  0.00    +0.269 C 
ATOM     13  H   UNL     1     -31.785  26.913   3.661  0.00  0.00    +0.150 HD
BRANCH  12  15
ATOM     14  N   UNL     1     -29.901  28.726   6.170  0.00  0.00    -0.076 NA
ATOM     15  C   UNL     1     -30.431  28.533   4.999  0.00  0.00    +0.198 C 
BRANCH  15  19
ATOM     16  S   UNL     1     -27.993  28.548   1.875  0.00  0.00    -0.060 S 
ATOM     17  N   UNL     1     -29.242  26.972   3.498  0.00  0.00    -0.383 NA
ATOM     18  N   UNL     1     -27.941  25.890   1.847  0.00  0.00    -0.328 N 
ATOM     19  C   UNL     1     -29.541  28.271   3.863  0.00  0.00    +0.148 C 
ATOM     20  C   UNL     1     -28.958  29.261   3.101  0.00  0.00    +0.127 C 
ATOM     21  C   UNL     1     -28.434  26.998   2.462  0.00  0.00    +0.204 C 
ATOM     22  H   UNL     1     -27.339  25.983   1.073  0.00  0.00    +0.145 HD
ATOM     23  H   UNL     1     -28.187  24.995   2.175  0.00  0.00    +0.145 HD
ENDBRANCH  15  19
BRANCH  14  24
ATOM     24  O   UNL     1     -28.502  28.641   6.129  0.00  0.00    -0.373 OA
ATOM     25  C   UNL     1     -28.086  27.732   7.135  0.00  0.00    +0.288 C 
ENDBRANCH  14  24
ENDBRANCH  12  15
ENDBRANCH   6  11
BRANCH   7  28
ATOM     26  O   UNL     1     -37.026  23.651   4.429  0.00  0.00    -0.239 OA
ATOM     27  OXT UNL     1     -35.019  22.823   5.148  0.00  0.00    -0.239 OA
ATOM     28  C   UNL     1     -35.777  23.505   4.410  0.00  0.00    +0.401 C 
ENDBRANCH   7  28
BRANCH   4  29
ATOM     29  C   UNL     1     -35.170  22.287   1.748  0.00  0.00    -0.048 C 
BRANCH  29  30
ATOM     30  N   UNL     1     -36.512  22.230   1.034  0.00  0.00    +0.391 N 
ATOM     31  C   UNL     1     -36.338  21.706  -0.406  0.00  0.00    -0.073 C 
ATOM     32  C   UNL     1     -37.105  23.647   0.896  0.00  0.00    -0.073 C 
ATOM     33  C   UNL     1     -36.503  22.932  -1.284  0.00  0.00    -0.024 C 
ATOM     34  C   UNL     1     -37.553  23.737  -0.551  0.00  0.00    -0.024 C 
ATOM     35  C   UNL     1     -37.456  21.330   1.815  0.00  0.00    -0.095 C 
ENDBRANCH  29  30
ENDBRANCH   4  29
TORSDOF 7
ENDMDL
MODEL 9
REMARK VINA RESULT:      -5.5      3.025      8.257
REMARK  Name = 5464190
REMARK  7 active torsions:
REMARK  status: ('A' for Active; 'I' for Inactive)
REMARK    1  A    between atoms: C_4  and  C_29
REMARK    2  A    between atoms: CA_6  and  N_11
REMARK    3  A    between atoms: CA_7  and  C_28
REMARK    4  A    between atoms: C_12  and  C_15
REMARK    5  A    between atoms: N_14  and  O_24
REMARK    6  A    between atoms: C_15  and  C_19
REMARK    7  A    between atoms: C_29  and  N_30
REMARK                            x       y       z     vdW  Elec       q    Type
REMARK                         _______ _______ _______ _____ _____    ______ ____
ROOT
ATOM      1  S   UNL     1     -35.870  24.975   0.820  0.00  0.00    -0.114 S 
ATOM      2  O   UNL     1     -36.392  22.987   4.992  0.00  0.00    -0.273 OA
ATOM      3  N   UNL     1     -35.400  24.365   3.358  0.00  0.00    -0.242 N 
ATOM      4  C   UNL     1     -34.698  26.559   2.843  0.00  0.00    -0.034 C 
ATOM      5  C   UNL     1     -35.177  23.826   2.031  0.00  0.00    +0.155 C 
ATOM      6  CA  UNL     1     -36.080  22.651   2.462  0.00  0.00    +0.179 C 
ATOM      7  CA  UNL     1     -35.040  25.614   3.750  0.00  0.00    +0.126 C 
ATOM      8  C   UNL     1     -34.780  26.348   1.334  0.00  0.00    +0.081 C 
ATOM      9  C   UNL     1     -36.006  23.280   3.884  0.00  0.00    +0.251 C 
ENDROOT
BRANCH   6  11
ATOM     10  O   UNL     1     -37.333  20.431   0.980  0.00  0.00    -0.268 OA
ATOM     11  N   UNL     1     -37.439  22.577   1.926  0.00  0.00    -0.291 N 
ATOM     12  C   UNL     1     -37.914  21.472   1.242  0.00  0.00    +0.269 C 
ATOM     13  H   UNL     1     -38.040  23.347   2.055  0.00  0.00    +0.150 HD
BRANCH  12  15
ATOM     14  N   UNL     1     -40.060  20.586   0.507  0.00  0.00    -0.076 NA
ATOM     15  C   UNL     1     -39.341  21.633   0.783  0.00  0.00    +0.198 C 
BRANCH  15  19
ATOM     16  S   UNL     1     -40.751  25.168  -0.321  0.00  0.00    -0.060 S 
ATOM     17  N   UNL     1     -40.569  23.569   1.702  0.00  0.00    -0.383 NA
ATOM     18  N   UNL     1     -41.696  25.604   2.126  0.00  0.00    -0.328 N 
ATOM     19  C   UNL     1     -39.948  22.959   0.629  0.00  0.00    +0.148 C 
ATOM     20  C   UNL     1     -39.945  23.671  -0.551  0.00  0.00    +0.127 C 
ATOM     21  C   UNL     1     -41.029  24.739   1.317  0.00  0.00    +0.204 C 
ATOM     22  H   UNL     1     -42.014  26.465   1.771  0.00  0.00    +0.145 HD
ATOM     23  H   UNL     1     -41.862  25.369   3.067  0.00  0.00    +0.145 HD
ENDBRANCH  15  19
BRANCH  14  24
ATOM     24  O   UNL     1     -41.352  20.937   0.092  0.00  0.00    -0.373 OA
ATOM     25  C   UNL     1     -41.612  20.281  -1.139  0.00  0.00    +0.288 C 
ENDBRANCH  14  24
ENDBRANCH  12  15
ENDBRANCH   6  11
BRANCH   7  28
ATOM     26  O   UNL     1     -33.981  25.728   5.841  0.00  0.00    -0.239 OA
ATOM     27  OXT UNL     1     -36.166  26.382   5.661  0.00  0.00    -0.239 OA
ATOM     28  C   UNL     1     -35.065  25.942   5.239  0.00  0.00    +0.401 C 
ENDBRANCH   7  28
BRANCH   4  29
ATOM     29  C   UNL     1     -34.261  27.963   3.187  0.00  0.00    -0.048 C 
BRANCH  29  30
ATOM     30  N   UNL     1     -32.747  28.108   3.222  0.00  0.00    +0.391 N 
ATOM     31  C   UNL     1     -32.270  28.458   4.646  0.00  0.00    -0.073 C 
ATOM     32  C   UNL     1     -32.301  29.284   2.329  0.00  0.00    -0.073 C 
ATOM     33  C   UNL     1     -31.895  29.925   4.576  0.00  0.00    -0.024 C 
ATOM     34  C   UNL     1     -31.320  30.065   3.184  0.00  0.00    -0.024 C 
ATOM     35  C   UNL     1     -32.109  26.810   2.754  0.00  0.00    -0.095 C 
ENDBRANCH  29  30
ENDBRANCH   4  29
TORSDOF 7
ENDMDL
