MODEL 1
REMARK VINA RESULT:      -6.7      0.000      0.000
REMARK  Name = 60880
REMARK  5 active torsions:
REMARK  status: ('A' for Active; 'I' for Inactive)
REMARK    1  A    between atoms: C_3  and  O_28
REMARK    2  A    between atoms: C_4  and  N_13
REMARK    3  A    between atoms: C_11  and  C_31
REMARK    4  A    between atoms: N_14  and  C_20
REMARK    5  A    between atoms: N_15  and  C_27
REMARK                            x       y       z     vdW  Elec       q    Type
REMARK                         _______ _______ _______ _____ _____    ______ ____
ROOT
ATOM      1  O   UNL     1     -34.356  27.122   4.013  0.00  0.00    -0.480 OA
ATOM      2  C   UNL     1     -34.518  25.964   4.852  0.00  0.00    +0.160 C 
ATOM      3  C   UNL     1     -36.009  25.605   5.053  0.00  0.00    +0.173 C 
ATOM      4  C   UNL     1     -36.765  25.433   3.731  0.00  0.00    +0.162 C 
ATOM      5  C   UNL     1     -36.296  26.425   2.701  0.00  0.00    +0.037 C 
ATOM      6  C   UNL     1     -33.708  24.803   4.247  0.00  0.00    +0.046 C 
ATOM      7  C   UNL     1     -33.864  26.339   6.194  0.00  0.00    +0.046 C 
ATOM      8  C   UNL     1     -35.148  27.199   2.900  0.00  0.00    +0.136 C 
ATOM      9  C   UNL     1     -37.029  26.591   1.516  0.00  0.00    +0.011 C 
ATOM     10  C   UNL     1     -34.757  28.140   1.942  0.00  0.00    +0.037 C 
ATOM     11  C   UNL     1     -36.630  27.522   0.556  0.00  0.00    +0.068 C 
ATOM     12  C   UNL     1     -35.495  28.299   0.770  0.00  0.00    +0.013 C 
ENDROOT
BRANCH   4  13
ATOM     13  N   UNL     1     -36.611  24.048   3.265  0.00  0.00    -0.234 NA
ATOM     14  N   UNL     1     -37.795  22.070   2.609  0.00  0.00    -0.324 N 
ATOM     15  N   UNL     1     -38.954  24.074   3.172  0.00  0.00    -0.263 N 
ATOM     16  C   UNL     1     -37.691  23.397   2.997  0.00  0.00    +0.212 C 
ATOM     17  H   UNL     1     -38.680  21.662   2.749  0.00  0.00    +0.169 HD
ATOM     18  H   UNL     1     -39.096  24.714   3.908  0.00  0.00    +0.181 HD
BRANCH  14  20
ATOM     19 CL   UNL     1     -33.711  18.498   0.242  0.00  0.00    -0.082 Cl
ATOM     20  C   UNL     1     -36.820  21.218   2.045  0.00  0.00    +0.059 C 
ATOM     21  C   UNL     1     -35.632  20.973   2.728  0.00  0.00    +0.018 C 
ATOM     22  C   UNL     1     -37.051  20.624   0.806  0.00  0.00    +0.018 C 
ATOM     23  C   UNL     1     -34.669  20.131   2.171  0.00  0.00    +0.013 C 
ATOM     24  C   UNL     1     -36.089  19.782   0.247  0.00  0.00    +0.013 C 
ATOM     25  C   UNL     1     -34.898  19.536   0.931  0.00  0.00    +0.058 C 
ENDBRANCH  14  20
BRANCH  15  27
ATOM     26  N   UNL     1     -40.763  23.544   1.525  0.00  0.00    -0.171 NA
ATOM     27  C   UNL     1     -39.928  23.793   2.291  0.00  0.00    +0.184 C 
ENDBRANCH  15  27
ENDBRANCH   4  13
BRANCH   3  28
ATOM     28  O   UNL     1     -36.678  26.644   5.778  0.00  0.00    -0.379 OA
ATOM     29  H   UNL     1     -37.468  26.921   5.290  0.00  0.00    +0.211 HD
ENDBRANCH   3  28
BRANCH  11  31
ATOM     30  N   UNL     1     -37.997  27.800  -1.627  0.00  0.00    -0.191 NA
ATOM     31  C   UNL     1     -37.384  27.675  -0.648  0.00  0.00    +0.100 C 
ENDBRANCH  11  31
TORSDOF 5
ENDMDL
MODEL 2
REMARK VINA RESULT:      -6.2      3.626      7.192
REMARK  Name = 60880
REMARK  5 active torsions:
REMARK  status: ('A' for Active; 'I' for Inactive)
REMARK    1  A    between atoms: C_3  and  O_28
REMARK    2  A    between atoms: C_4  and  N_13
REMARK    3  A    between atoms: C_11  and  C_31
REMARK    4  A    between atoms: N_14  and  C_20
REMARK    5  A    between atoms: N_15  and  C_27
REMARK                            x       y       z     vdW  Elec       q    Type
REMARK                         _______ _______ _______ _____ _____    ______ ____
ROOT
ATOM      1  O   UNL     1     -38.317  21.190  -0.412  0.00  0.00    -0.480 OA
ATOM      2  C   UNL     1     -38.860  22.322   0.292  0.00  0.00    +0.160 C 
ATOM      3  C   UNL     1     -38.780  22.137   1.826  0.00  0.00    +0.173 C 
ATOM      4  C   UNL     1     -37.363  21.817   2.314  0.00  0.00    +0.162 C 
ATOM      5  C   UNL     1     -36.640  20.920   1.345  0.00  0.00    +0.037 C 
ATOM      6  C   UNL     1     -38.134  23.592  -0.188  0.00  0.00    +0.046 C 
ATOM      7  C   UNL     1     -40.326  22.421  -0.167  0.00  0.00    +0.046 C 
ATOM      8  C   UNL     1     -37.151  20.660   0.069  0.00  0.00    +0.136 C 
ATOM      9  C   UNL     1     -35.432  20.318   1.728  0.00  0.00    +0.011 C 
ATOM     10  C   UNL     1     -36.477  19.792  -0.797  0.00  0.00    +0.037 C 
ATOM     11  C   UNL     1     -34.754  19.463   0.858  0.00  0.00    +0.068 C 
ATOM     12  C   UNL     1     -35.279  19.198  -0.404  0.00  0.00    +0.013 C 
ENDROOT
BRANCH   4  13
ATOM     13  N   UNL     1     -36.637  23.073   2.541  0.00  0.00    -0.234 NA
ATOM     14  N   UNL     1     -35.542  24.419   4.195  0.00  0.00    -0.324 N 
ATOM     15  N   UNL     1     -36.440  22.281   4.740  0.00  0.00    -0.263 N 
ATOM     16  C   UNL     1     -36.192  23.285   3.733  0.00  0.00    +0.212 C 
ATOM     17  H   UNL     1     -35.555  24.540   5.172  0.00  0.00    +0.169 HD
ATOM     18  H   UNL     1     -37.281  21.769   4.758  0.00  0.00    +0.181 HD
BRANCH  14  20
ATOM     19 CL   UNL     1     -32.703  28.640   1.166  0.00  0.00    -0.082 Cl
ATOM     20  C   UNL     1     -34.865  25.426   3.472  0.00  0.00    +0.059 C 
ATOM     21  C   UNL     1     -35.383  26.719   3.431  0.00  0.00    +0.018 C 
ATOM     22  C   UNL     1     -33.681  25.125   2.803  0.00  0.00    +0.018 C 
ATOM     23  C   UNL     1     -34.714  27.714   2.717  0.00  0.00    +0.013 C 
ATOM     24  C   UNL     1     -33.011  26.119   2.090  0.00  0.00    +0.013 C 
ATOM     25  C   UNL     1     -33.528  27.413   2.047  0.00  0.00    +0.058 C 
ENDBRANCH  14  20
BRANCH  15  27
ATOM     26  N   UNL     1     -34.635  21.904   6.433  0.00  0.00    -0.171 NA
ATOM     27  C   UNL     1     -35.475  22.076   5.651  0.00  0.00    +0.184 C 
ENDBRANCH  15  27
ENDBRANCH   4  13
BRANCH   3  28
ATOM     28  O   UNL     1     -39.615  21.049   2.240  0.00  0.00    -0.379 OA
ATOM     29  H   UNL     1     -40.546  21.295   2.128  0.00  0.00    +0.211 HD
ENDBRANCH   3  28
BRANCH  11  31
ATOM     30  N   UNL     1     -32.520  18.375   1.588  0.00  0.00    -0.191 NA
ATOM     31  C   UNL     1     -33.522  18.863   1.260  0.00  0.00    +0.100 C 
ENDBRANCH  11  31
TORSDOF 5
ENDMDL
MODEL 3
REMARK VINA RESULT:      -6.2      1.583      1.935
REMARK  Name = 60880
REMARK  5 active torsions:
REMARK  status: ('A' for Active; 'I' for Inactive)
REMARK    1  A    between atoms: C_3  and  O_28
REMARK    2  A    between atoms: C_4  and  N_13
REMARK    3  A    between atoms: C_11  and  C_31
REMARK    4  A    between atoms: N_14  and  C_20
REMARK    5  A    between atoms: N_15  and  C_27
REMARK                            x       y       z     vdW  Elec       q    Type
REMARK                         _______ _______ _______ _____ _____    ______ ____
ROOT
ATOM      1  O   UNL     1     -34.991  26.879   3.913  0.00  0.00    -0.480 OA
ATOM      2  C   UNL     1     -34.569  25.715   4.649  0.00  0.00    +0.160 C 
ATOM      3  C   UNL     1     -35.732  24.717   4.859  0.00  0.00    +0.173 C 
ATOM      4  C   UNL     1     -36.419  24.317   3.549  0.00  0.00    +0.162 C 
ATOM      5  C   UNL     1     -36.505  25.482   2.600  0.00  0.00    +0.037 C 
ATOM      6  C   UNL     1     -33.372  25.080   3.918  0.00  0.00    +0.046 C 
ATOM      7  C   UNL     1     -34.062  26.250   6.000  0.00  0.00    +0.046 C 
ATOM      8  C   UNL     1     -35.806  26.670   2.835  0.00  0.00    +0.136 C 
ATOM      9  C   UNL     1     -37.313  25.385   1.456  0.00  0.00    +0.011 C 
ATOM     10  C   UNL     1     -35.935  27.750   1.955  0.00  0.00    +0.037 C 
ATOM     11  C   UNL     1     -37.430  26.459   0.573  0.00  0.00    +0.068 C 
ATOM     12  C   UNL     1     -36.743  27.643   0.824  0.00  0.00    +0.013 C 
ENDROOT
BRANCH   4  13
ATOM     13  N   UNL     1     -35.701  23.181   2.956  0.00  0.00    -0.234 NA
ATOM     14  N   UNL     1     -35.943  20.956   2.099  0.00  0.00    -0.324 N 
ATOM     15  N   UNL     1     -37.832  22.209   2.834  0.00  0.00    -0.263 N 
ATOM     16  C   UNL     1     -36.406  22.158   2.612  0.00  0.00    +0.212 C 
ATOM     17  H   UNL     1     -36.564  20.197   2.187  0.00  0.00    +0.169 HD
ATOM     18  H   UNL     1     -38.212  22.655   3.625  0.00  0.00    +0.181 HD
BRANCH  14  20
ATOM     19 CL   UNL     1     -30.792  19.713  -0.542  0.00  0.00    -0.082 Cl
ATOM     20  C   UNL     1     -34.714  20.660   1.469  0.00  0.00    +0.059 C 
ATOM     21  C   UNL     1     -34.063  19.460   1.747  0.00  0.00    +0.018 C 
ATOM     22  C   UNL     1     -34.157  21.567   0.570  0.00  0.00    +0.018 C 
ATOM     23  C   UNL     1     -32.849  19.167   1.125  0.00  0.00    +0.013 C 
ATOM     24  C   UNL     1     -32.943  21.275  -0.053  0.00  0.00    +0.013 C 
ATOM     25  C   UNL     1     -32.290  20.074   0.225  0.00  0.00    +0.058 C 
ENDBRANCH  14  20
BRANCH  15  27
ATOM     26  N   UNL     1     -39.293  21.118   1.118  0.00  0.00    -0.171 NA
ATOM     27  C   UNL     1     -38.616  21.619   1.917  0.00  0.00    +0.184 C 
ENDBRANCH  15  27
ENDBRANCH   4  13
BRANCH   3  28
ATOM     28  O   UNL     1     -36.741  25.297   5.694  0.00  0.00    -0.379 OA
ATOM     29  H   UNL     1     -37.350  25.820   5.149  0.00  0.00    +0.211 HD
ENDBRANCH   3  28
BRANCH  11  31
ATOM     30  N   UNL     1     -38.920  26.248  -1.536  0.00  0.00    -0.191 NA
ATOM     31  C   UNL     1     -38.251  26.343  -0.590  0.00  0.00    +0.100 C 
ENDBRANCH  11  31
TORSDOF 5
ENDMDL
MODEL 4
REMARK VINA RESULT:      -6.0      3.570      6.513
REMARK  Name = 60880
REMARK  5 active torsions:
REMARK  status: ('A' for Active; 'I' for Inactive)
REMARK    1  A    between atoms: C_3  and  O_28
REMARK    2  A    between atoms: C_4  and  N_13
REMARK    3  A    between atoms: C_11  and  C_31
REMARK    4  A    between atoms: N_14  and  C_20
REMARK    5  A    between atoms: N_15  and  C_27
REMARK                            x       y       z     vdW  Elec       q    Type
REMARK                         _______ _______ _______ _____ _____    ______ ____
ROOT
ATOM      1  O   UNL     1     -38.015  25.034   0.255  0.00  0.00    -0.480 OA
ATOM      2  C   UNL     1     -38.335  25.859   1.390  0.00  0.00    +0.160 C 
ATOM      3  C   UNL     1     -38.468  25.025   2.687  0.00  0.00    +0.173 C 
ATOM      4  C   UNL     1     -37.234  24.161   2.969  0.00  0.00    +0.162 C 
ATOM      5  C   UNL     1     -36.654  23.605   1.696  0.00  0.00    +0.037 C 
ATOM      6  C   UNL     1     -37.273  26.966   1.508  0.00  0.00    +0.046 C 
ATOM      7  C   UNL     1     -39.674  26.532   1.039  0.00  0.00    +0.046 C 
ATOM      8  C   UNL     1     -37.073  24.059   0.442  0.00  0.00    +0.136 C 
ATOM      9  C   UNL     1     -35.678  22.598   1.762  0.00  0.00    +0.011 C 
ATOM     10  C   UNL     1     -36.543  23.497  -0.725  0.00  0.00    +0.037 C 
ATOM     11  C   UNL     1     -35.142  22.048   0.598  0.00  0.00    +0.068 C 
ATOM     12  C   UNL     1     -35.578  22.496  -0.647  0.00  0.00    +0.013 C 
ENDROOT
BRANCH   4  13
ATOM     13  N   UNL     1     -36.251  24.957   3.716  0.00  0.00    -0.234 NA
ATOM     14  N   UNL     1     -34.936  25.050   5.718  0.00  0.00    -0.324 N 
ATOM     15  N   UNL     1     -36.312  23.167   5.231  0.00  0.00    -0.263 N 
ATOM     16  C   UNL     1     -35.810  24.457   4.820  0.00  0.00    +0.212 C 
ATOM     17  H   UNL     1     -34.954  24.676   6.628  0.00  0.00    +0.169 HD
ATOM     18  H   UNL     1     -37.248  22.905   5.068  0.00  0.00    +0.181 HD
BRANCH  14  20
ATOM     19 CL   UNL     1     -31.114  29.495   4.890  0.00  0.00    -0.082 Cl
ATOM     20  C   UNL     1     -34.024  26.110   5.520  0.00  0.00    +0.059 C 
ATOM     21  C   UNL     1     -33.312  26.625   6.602  0.00  0.00    +0.018 C 
ATOM     22  C   UNL     1     -33.838  26.638   4.245  0.00  0.00    +0.018 C 
ATOM     23  C   UNL     1     -32.412  27.672   6.407  0.00  0.00    +0.013 C 
ATOM     24  C   UNL     1     -32.938  27.686   4.048  0.00  0.00    +0.013 C 
ATOM     25  C   UNL     1     -32.225  28.202   5.131  0.00  0.00    +0.058 C 
ENDBRANCH  14  20
BRANCH  15  27
ATOM     26  N   UNL     1     -34.712  21.619   6.375  0.00  0.00    -0.171 NA
ATOM     27  C   UNL     1     -35.451  22.341   5.846  0.00  0.00    +0.184 C 
ENDBRANCH  15  27
ENDBRANCH   4  13
BRANCH   3  28
ATOM     28  O   UNL     1     -39.584  24.132   2.592  0.00  0.00    -0.379 OA
ATOM     29  H   UNL     1     -40.383  24.576   2.917  0.00  0.00    +0.211 HD
ENDBRANCH   3  28
BRANCH  11  31
ATOM     30  N   UNL     1     -33.335  20.199   0.750  0.00  0.00    -0.191 NA
ATOM     31  C   UNL     1     -34.146  21.028   0.682  0.00  0.00    +0.100 C 
ENDBRANCH  11  31
TORSDOF 5
ENDMDL
MODEL 5
REMARK VINA RESULT:      -5.9      3.180      6.863
REMARK  Name = 60880
REMARK  5 active torsions:
REMARK  status: ('A' for Active; 'I' for Inactive)
REMARK    1  A    between atoms: C_3  and  O_28
REMARK    2  A    between atoms: C_4  and  N_13
REMARK    3  A    between atoms: C_11  and  C_31
REMARK    4  A    between atoms: N_14  and  C_20
REMARK    5  A    between atoms: N_15  and  C_27
REMARK                            x       y       z     vdW  Elec       q    Type
REMARK                         _______ _______ _______ _____ _____    ______ ____
ROOT
ATOM      1  O   UNL     1     -40.493  23.881   1.566  0.00  0.00    -0.480 OA
ATOM      2  C   UNL     1     -40.469  25.296   1.829  0.00  0.00    +0.160 C 
ATOM      3  C   UNL     1     -39.756  25.620   3.163  0.00  0.00    +0.173 C 
ATOM      4  C   UNL     1     -38.346  25.024   3.244  0.00  0.00    +0.162 C 
ATOM      5  C   UNL     1     -38.288  23.667   2.597  0.00  0.00    +0.037 C 
ATOM      6  C   UNL     1     -39.824  26.007   0.626  0.00  0.00    +0.046 C 
ATOM      7  C   UNL     1     -41.947  25.724   1.886  0.00  0.00    +0.046 C 
ATOM      8  C   UNL     1     -39.344  23.183   1.818  0.00  0.00    +0.136 C 
ATOM      9  C   UNL     1     -37.157  22.858   2.784  0.00  0.00    +0.011 C 
ATOM     10  C   UNL     1     -39.279  21.902   1.259  0.00  0.00    +0.037 C 
ATOM     11  C   UNL     1     -37.089  21.585   2.215  0.00  0.00    +0.068 C 
ATOM     12  C   UNL     1     -38.152  21.106   1.455  0.00  0.00    +0.013 C 
ENDROOT
BRANCH   4  13
ATOM     13  N   UNL     1     -37.392  25.961   2.636  0.00  0.00    -0.234 NA
ATOM     14  N   UNL     1     -35.563  27.444   3.084  0.00  0.00    -0.324 N 
ATOM     15  N   UNL     1     -36.537  26.127   4.814  0.00  0.00    -0.263 N 
ATOM     16  C   UNL     1     -36.514  26.492   3.417  0.00  0.00    +0.212 C 
ATOM     17  H   UNL     1     -35.198  27.954   3.844  0.00  0.00    +0.169 HD
ATOM     18  H   UNL     1     -37.385  25.965   5.288  0.00  0.00    +0.181 HD
BRANCH  14  20
ATOM     19 CL   UNL     1     -33.376  28.900  -2.221  0.00  0.00    -0.082 Cl
ATOM     20  C   UNL     1     -35.041  27.792   1.818  0.00  0.00    +0.059 C 
ATOM     21  C   UNL     1     -35.661  28.782   1.060  0.00  0.00    +0.018 C 
ATOM     22  C   UNL     1     -33.908  27.143   1.332  0.00  0.00    +0.018 C 
ATOM     23  C   UNL     1     -35.146  29.125  -0.191  0.00  0.00    +0.013 C 
ATOM     24  C   UNL     1     -33.392  27.486   0.083  0.00  0.00    +0.013 C 
ATOM     25  C   UNL     1     -34.012  28.477  -0.678  0.00  0.00    +0.058 C 
ENDBRANCH  14  20
BRANCH  15  27
ATOM     26  N   UNL     1     -34.328  25.937   5.975  0.00  0.00    -0.171 NA
ATOM     27  C   UNL     1     -35.354  26.022   5.440  0.00  0.00    +0.184 C 
ENDBRANCH  15  27
ENDBRANCH   4  13
BRANCH   3  28
ATOM     28  O   UNL     1     -40.495  25.084   4.266  0.00  0.00    -0.379 OA
ATOM     29  H   UNL     1     -40.456  24.115   4.241  0.00  0.00    +0.211 HD
ENDBRANCH   3  28
BRANCH  11  31
ATOM     30  N   UNL     1     -34.983  20.118   2.569  0.00  0.00    -0.191 NA
ATOM     31  C   UNL     1     -35.928  20.776   2.410  0.00  0.00    +0.100 C 
ENDBRANCH  11  31
TORSDOF 5
ENDMDL
MODEL 6
REMARK VINA RESULT:      -5.9      3.229      4.851
REMARK  Name = 60880
REMARK  5 active torsions:
REMARK  status: ('A' for Active; 'I' for Inactive)
REMARK    1  A    between atoms: C_3  and  O_28
REMARK    2  A    between atoms: C_4  and  N_13
REMARK    3  A    between atoms: C_11  and  C_31
REMARK    4  A    between atoms: N_14  and  C_20
REMARK    5  A    between atoms: N_15  and  C_27
REMARK                            x       y       z     vdW  Elec       q    Type
REMARK                         _______ _______ _______ _____ _____    ______ ____
ROOT
ATOM      1  O   UNL     1     -36.987  24.724   4.439  0.00  0.00    -0.480 OA
ATOM      2  C   UNL     1     -35.622  24.279   4.543  0.00  0.00    +0.160 C 
ATOM      3  C   UNL     1     -35.512  22.738   4.469  0.00  0.00    +0.173 C 
ATOM      4  C   UNL     1     -36.185  22.152   3.223  0.00  0.00    +0.162 C 
ATOM      5  C   UNL     1     -37.447  22.898   2.881  0.00  0.00    +0.037 C 
ATOM      6  C   UNL     1     -34.793  24.982   3.453  0.00  0.00    +0.046 C 
ATOM      7  C   UNL     1     -35.130  24.793   5.908  0.00  0.00    +0.046 C 
ATOM      8  C   UNL     1     -37.770  24.110   3.500  0.00  0.00    +0.136 C 
ATOM      9  C   UNL     1     -38.330  22.365   1.930  0.00  0.00    +0.011 C 
ATOM     10  C   UNL     1     -38.968  24.763   3.190  0.00  0.00    +0.037 C 
ATOM     11  C   UNL     1     -39.519  23.024   1.613  0.00  0.00    +0.068 C 
ATOM     12  C   UNL     1     -39.839  24.222   2.246  0.00  0.00    +0.013 C 
ENDROOT
BRANCH   4  13
ATOM     13  N   UNL     1     -35.227  22.161   2.110  0.00  0.00    -0.234 NA
ATOM     14  N   UNL     1     -34.214  20.820   0.400  0.00  0.00    -0.324 N 
ATOM     15  N   UNL     1     -35.896  19.929   1.834  0.00  0.00    -0.263 N 
ATOM     16  C   UNL     1     -35.097  21.066   1.441  0.00  0.00    +0.212 C 
ATOM     17  H   UNL     1     -34.033  19.868   0.222  0.00  0.00    +0.169 HD
ATOM     18  H   UNL     1     -36.099  19.748   2.781  0.00  0.00    +0.181 HD
BRANCH  14  20
ATOM     19 CL   UNL     1     -31.374  24.636  -3.123  0.00  0.00    -0.082 Cl
ATOM     20  C   UNL     1     -33.537  21.730  -0.440  0.00  0.00    +0.059 C 
ATOM     21  C   UNL     1     -34.262  22.634  -1.214  0.00  0.00    +0.018 C 
ATOM     22  C   UNL     1     -32.145  21.723  -0.493  0.00  0.00    +0.018 C 
ATOM     23  C   UNL     1     -33.593  23.533  -2.044  0.00  0.00    +0.013 C 
ATOM     24  C   UNL     1     -31.474  22.622  -1.323  0.00  0.00    +0.013 C 
ATOM     25  C   UNL     1     -32.200  23.527  -2.098  0.00  0.00    +0.058 C 
ENDBRANCH  14  20
BRANCH  15  27
ATOM     26  N   UNL     1     -36.746  18.434   0.015  0.00  0.00    -0.171 NA
ATOM     27  C   UNL     1     -36.349  19.130   0.855  0.00  0.00    +0.184 C 
ENDBRANCH  15  27
ENDBRANCH   4  13
BRANCH   3  28
ATOM     28  O   UNL     1     -36.151  22.139   5.603  0.00  0.00    -0.379 OA
ATOM     29  H   UNL     1     -35.508  22.045   6.323  0.00  0.00    +0.211 HD
ENDBRANCH   3  28
BRANCH  11  31
ATOM     30  N   UNL     1     -41.125  22.022  -0.155  0.00  0.00    -0.191 NA
ATOM     31  C   UNL     1     -40.405  22.471   0.638  0.00  0.00    +0.100 C 
ENDBRANCH  11  31
TORSDOF 5
ENDMDL
MODEL 7
REMARK VINA RESULT:      -5.8      4.016      5.636
REMARK  Name = 60880
REMARK  5 active torsions:
REMARK  status: ('A' for Active; 'I' for Inactive)
REMARK    1  A    between atoms: C_3  and  O_28
REMARK    2  A    between atoms: C_4  and  N_13
REMARK    3  A    between atoms: C_11  and  C_31
REMARK    4  A    between atoms: N_14  and  C_20
REMARK    5  A    between atoms: N_15  and  C_27
REMARK                            x       y       z     vdW  Elec       q    Type
REMARK                         _______ _______ _______ _____ _____    ______ ____
ROOT
ATOM      1  O   UNL     1     -30.455  29.506   4.320  0.00  0.00    -0.480 OA
ATOM      2  C   UNL     1     -31.714  29.646   5.003  0.00  0.00    +0.160 C 
ATOM      3  C   UNL     1     -32.883  29.870   4.015  0.00  0.00    +0.173 C 
ATOM      4  C   UNL     1     -32.965  28.787   2.934  0.00  0.00    +0.162 C 
ATOM      5  C   UNL     1     -31.593  28.351   2.492  0.00  0.00    +0.037 C 
ATOM      6  C   UNL     1     -31.927  28.412   5.898  0.00  0.00    +0.046 C 
ATOM      7  C   UNL     1     -31.543  30.867   5.926  0.00  0.00    +0.046 C 
ATOM      8  C   UNL     1     -30.444  28.732   3.192  0.00  0.00    +0.136 C 
ATOM      9  C   UNL     1     -31.456  27.553   1.346  0.00  0.00    +0.011 C 
ATOM     10  C   UNL     1     -29.179  28.344   2.736  0.00  0.00    +0.037 C 
ATOM     11  C   UNL     1     -30.195  27.156   0.900  0.00  0.00    +0.068 C 
ATOM     12  C   UNL     1     -29.056  27.554   1.595  0.00  0.00    +0.013 C 
ENDROOT
BRANCH   4  13
ATOM     13  N   UNL     1     -33.759  27.660   3.441  0.00  0.00    -0.234 NA
ATOM     14  N   UNL     1     -35.967  26.737   3.576  0.00  0.00    -0.324 N 
ATOM     15  N   UNL     1     -35.539  28.744   2.365  0.00  0.00    -0.263 N 
ATOM     16  C   UNL     1     -35.016  27.654   3.155  0.00  0.00    +0.212 C 
ATOM     17  H   UNL     1     -36.900  27.050   3.528  0.00  0.00    +0.169 HD
ATOM     18  H   UNL     1     -35.201  29.663   2.471  0.00  0.00    +0.181 HD
BRANCH  14  20
ATOM     19 CL   UNL     1     -35.252  21.227   5.621  0.00  0.00    -0.082 Cl
ATOM     20  C   UNL     1     -35.796  25.422   4.064  0.00  0.00    +0.059 C 
ATOM     21  C   UNL     1     -35.975  24.336   3.210  0.00  0.00    +0.018 C 
ATOM     22  C   UNL     1     -35.450  25.216   5.397  0.00  0.00    +0.018 C 
ATOM     23  C   UNL     1     -35.806  23.038   3.692  0.00  0.00    +0.013 C 
ATOM     24  C   UNL     1     -35.281  23.918   5.880  0.00  0.00    +0.013 C 
ATOM     25  C   UNL     1     -35.459  22.829   5.026  0.00  0.00    +0.058 C 
ENDBRANCH  14  20
BRANCH  15  27
ATOM     26  N   UNL     1     -37.347  28.192   0.724  0.00  0.00    -0.171 NA
ATOM     27  C   UNL     1     -36.507  28.451   1.481  0.00  0.00    +0.184 C 
ENDBRANCH  15  27
ENDBRANCH   4  13
BRANCH   3  28
ATOM     28  O   UNL     1     -32.726  31.121   3.334  0.00  0.00    -0.379 OA
ATOM     29  H   UNL     1     -33.591  31.430   3.023  0.00  0.00    +0.211 HD
ENDBRANCH   3  28
BRANCH  11  31
ATOM     30  N   UNL     1     -29.973  25.675  -1.214  0.00  0.00    -0.191 NA
ATOM     31  C   UNL     1     -30.073  26.340  -0.265  0.00  0.00    +0.100 C 
ENDBRANCH  11  31
TORSDOF 5
ENDMDL
MODEL 8
REMARK VINA RESULT:      -5.8      3.894      6.517
REMARK  Name = 60880
REMARK  5 active torsions:
REMARK  status: ('A' for Active; 'I' for Inactive)
REMARK    1  A    between atoms: C_3  and  O_28
REMARK    2  A    between atoms: C_4  and  N_13
REMARK    3  A    between atoms: C_11  and  C_31
REMARK    4  A    between atoms: N_14  and  C_20
REMARK    5  A    between atoms: N_15  and  C_27
REMARK                            x       y       z     vdW  Elec       q    Type
REMARK                         _______ _______ _______ _____ _____    ______ ____
ROOT
ATOM      1  O   UNL     1     -41.983  23.891  -0.037  0.00  0.00    -0.480 OA
ATOM      2  C   UNL     1     -40.709  23.433  -0.528  0.00  0.00    +0.160 C 
ATOM      3  C   UNL     1     -39.765  24.612  -0.861  0.00  0.00    +0.173 C 
ATOM      4  C   UNL     1     -39.583  25.581   0.312  0.00  0.00    +0.162 C 
ATOM      5  C   UNL     1     -40.865  25.754   1.081  0.00  0.00    +0.037 C 
ATOM      6  C   UNL     1     -40.103  22.467   0.506  0.00  0.00    +0.046 C 
ATOM      7  C   UNL     1     -41.030  22.620  -1.795  0.00  0.00    +0.046 C 
ATOM      8  C   UNL     1     -41.968  24.921   0.863  0.00  0.00    +0.136 C 
ATOM      9  C   UNL     1     -40.969  26.780   2.033  0.00  0.00    +0.011 C 
ATOM     10  C   UNL     1     -43.159  25.130   1.565  0.00  0.00    +0.037 C 
ATOM     11  C   UNL     1     -42.154  26.978   2.742  0.00  0.00    +0.068 C 
ATOM     12  C   UNL     1     -43.251  26.154   2.506  0.00  0.00    +0.013 C 
ENDROOT
BRANCH   4  13
ATOM     13  N   UNL     1     -38.493  25.098   1.170  0.00  0.00    -0.234 NA
ATOM     14  N   UNL     1     -36.273  25.562   1.946  0.00  0.00    -0.324 N 
ATOM     15  N   UNL     1     -37.422  27.078   0.512  0.00  0.00    -0.263 N 
ATOM     16  C   UNL     1     -37.443  25.842   1.256  0.00  0.00    +0.212 C 
ATOM     17  H   UNL     1     -35.484  26.074   1.655  0.00  0.00    +0.169 HD
ATOM     18  H   UNL     1     -37.837  27.148  -0.379  0.00  0.00    +0.181 HD
BRANCH  14  20
ATOM     19 CL   UNL     1     -35.321  21.751   6.375  0.00  0.00    -0.082 Cl
ATOM     20  C   UNL     1     -36.046  24.653   3.003  0.00  0.00    +0.059 C 
ATOM     21  C   UNL     1     -35.861  23.300   2.727  0.00  0.00    +0.018 C 
ATOM     22  C   UNL     1     -36.007  25.111   4.318  0.00  0.00    +0.018 C 
ATOM     23  C   UNL     1     -35.636  22.402   3.770  0.00  0.00    +0.013 C 
ATOM     24  C   UNL     1     -35.782  24.214   5.362  0.00  0.00    +0.013 C 
ATOM     25  C   UNL     1     -35.597  22.859   5.087  0.00  0.00    +0.058 C 
ENDBRANCH  14  20
BRANCH  15  27
ATOM     26  N   UNL     1     -36.292  29.041   1.578  0.00  0.00    -0.171 NA
ATOM     27  C   UNL     1     -36.811  28.129   1.084  0.00  0.00    +0.184 C 
ENDBRANCH  15  27
ENDBRANCH   4  13
BRANCH   3  28
ATOM     28  O   UNL     1     -40.292  25.379  -1.951  0.00  0.00    -0.379 OA
ATOM     29  H   UNL     1     -40.004  24.988  -2.790  0.00  0.00    +0.211 HD
ENDBRANCH   3  28
BRANCH  11  31
ATOM     30  N   UNL     1     -42.313  28.874   4.500  0.00  0.00    -0.191 NA
ATOM     31  C   UNL     1     -42.241  28.024   3.712  0.00  0.00    +0.100 C 
ENDBRANCH  11  31
TORSDOF 5
ENDMDL
MODEL 9
REMARK VINA RESULT:      -5.8      3.140      5.145
REMARK  Name = 60880
REMARK  5 active torsions:
REMARK  status: ('A' for Active; 'I' for Inactive)
REMARK    1  A    between atoms: C_3  and  O_28
REMARK    2  A    between atoms: C_4  and  N_13
REMARK    3  A    between atoms: C_11  and  C_31
REMARK    4  A    between atoms: N_14  and  C_20
REMARK    5  A    between atoms: N_15  and  C_27
REMARK                            x       y       z     vdW  Elec       q    Type
REMARK                         _______ _______ _______ _____ _____    ______ ____
ROOT
ATOM      1  O   UNL     1     -37.838  24.153   3.763  0.00  0.00    -0.480 OA
ATOM      2  C   UNL     1     -38.023  23.469   2.510  0.00  0.00    +0.160 C 
ATOM      3  C   UNL     1     -37.559  24.329   1.311  0.00  0.00    +0.173 C 
ATOM      4  C   UNL     1     -36.116  24.825   1.456  0.00  0.00    +0.162 C 
ATOM      5  C   UNL     1     -35.801  25.178   2.885  0.00  0.00    +0.037 C 
ATOM      6  C   UNL     1     -37.296  22.113   2.579  0.00  0.00    +0.046 C 
ATOM      7  C   UNL     1     -39.533  23.183   2.421  0.00  0.00    +0.046 C 
ATOM      8  C   UNL     1     -36.663  24.834   3.931  0.00  0.00    +0.136 C 
ATOM      9  C   UNL     1     -34.621  25.878   3.181  0.00  0.00    +0.011 C 
ATOM     10  C   UNL     1     -36.362  25.208   5.245  0.00  0.00    +0.037 C 
ATOM     11  C   UNL     1     -34.317  26.239   4.494  0.00  0.00    +0.068 C 
ATOM     12  C   UNL     1     -35.190  25.906   5.526  0.00  0.00    +0.013 C 
ENDROOT
BRANCH   4  13
ATOM     13  N   UNL     1     -35.201  23.803   0.930  0.00  0.00    -0.234 NA
ATOM     14  N   UNL     1     -33.523  23.355  -0.721  0.00  0.00    -0.324 N 
ATOM     15  N   UNL     1     -34.497  25.519  -0.506  0.00  0.00    -0.263 N 
ATOM     16  C   UNL     1     -34.416  24.158  -0.029  0.00  0.00    +0.212 C 
ATOM     17  H   UNL     1     -33.245  23.700  -1.601  0.00  0.00    +0.169 HD
ATOM     18  H   UNL     1     -35.357  25.996  -0.553  0.00  0.00    +0.181 HD
BRANCH  14  20
ATOM     19 CL   UNL     1     -31.135  18.163   0.826  0.00  0.00    -0.082 Cl
ATOM     20  C   UNL     1     -32.953  22.116  -0.352  0.00  0.00    +0.059 C 
ATOM     21  C   UNL     1     -31.654  21.804  -0.746  0.00  0.00    +0.018 C 
ATOM     22  C   UNL     1     -33.692  21.210   0.406  0.00  0.00    +0.018 C 
ATOM     23  C   UNL     1     -31.091  20.581  -0.382  0.00  0.00    +0.013 C 
ATOM     24  C   UNL     1     -33.130  19.986   0.771  0.00  0.00    +0.013 C 
ATOM     25  C   UNL     1     -31.829  19.673   0.377  0.00  0.00    +0.058 C 
ENDBRANCH  14  20
BRANCH  15  27
ATOM     26  N   UNL     1     -32.354  26.610  -1.201  0.00  0.00    -0.171 NA
ATOM     27  C   UNL     1     -33.349  26.105  -0.884  0.00  0.00    +0.184 C 
ENDBRANCH  15  27
ENDBRANCH   4  13
BRANCH   3  28
ATOM     28  O   UNL     1     -38.385  25.494   1.186  0.00  0.00    -0.379 OA
ATOM     29  H   UNL     1     -39.192  25.266   0.699  0.00  0.00    +0.211 HD
ENDBRANCH   3  28
BRANCH  11  31
ATOM     30  N   UNL     1     -32.127  27.522   5.012  0.00  0.00    -0.191 NA
ATOM     31  C   UNL     1     -33.109  26.946   4.779  0.00  0.00    +0.100 C 
ENDBRANCH  11  31
TORSDOF 5
ENDMDL
