MODEL 1
REMARK VINA RESULT:      -6.3      0.000      0.000
REMARK  Name = 192604
REMARK  16 active torsions:
REMARK  status: ('A' for Active; 'I' for Inactive)
REMARK    1  A    between atoms: N_3  and  C_32
REMARK    2  A    between atoms: C_4  and  C_6
REMARK    3  A    between atoms: C_5  and  C_17
REMARK    4  A    between atoms: C_6  and  C_7
REMARK    5  A    between atoms: C_7  and  CA_8
REMARK    6  A    between atoms: CA_8  and  N_9
REMARK    7  A    between atoms: CA_8  and  C_14
REMARK    8  A    between atoms: C_14  and  O_15
REMARK    9  A    between atoms: C_17  and  N_18
REMARK   10  A    between atoms: C_17  and  C_22
REMARK   11  A    between atoms: C_22  and  S_23
REMARK   12  A    between atoms: S_23  and  C_24
REMARK   13  A    between atoms: C_24  and  C_25
REMARK   14  A    between atoms: C_32  and  C_33
REMARK   15  A    between atoms: C_33  and  C_35
REMARK   16  A    between atoms: C_35  and  O_36
REMARK                            x       y       z     vdW  Elec       q    Type
REMARK                         _______ _______ _______ _____ _____    ______ ____
ROOT
ATOM      1  O   UNL     1     -33.572  26.168   5.624  0.00  0.00    -0.274 OA
ATOM      2  O   UNL     1     -36.404  26.249   2.591  0.00  0.00    -0.277 OA
ATOM      3  N   UNL     1     -35.474  25.346   4.538  0.00  0.00    -0.231 N 
ATOM      4  C   UNL     1     -34.385  26.243   4.698  0.00  0.00    +0.231 C 
ATOM      5  C   UNL     1     -36.422  25.404   3.490  0.00  0.00    +0.212 C 
ENDROOT
BRANCH   4   6
ATOM      6  C   UNL     1     -34.252  27.334   3.641  0.00  0.00    +0.084 C 
BRANCH   6   7
ATOM      7  C   UNL     1     -32.788  27.663   3.327  0.00  0.00    -0.001 C 
BRANCH   7   8
ATOM      8  CA  UNL     1     -32.352  29.042   3.839  0.00  0.00    +0.036 C 
BRANCH   8   9
ATOM      9  N   UNL     1     -32.470  29.143   5.293  0.00  0.00    +0.389 N 
ATOM     10  H1  UNL     1     -32.306  28.227   5.712  0.00  0.00    -0.088 HD
ATOM     11  H2  UNL     1     -33.407  29.465   5.536  0.00  0.00    -0.088 HD
ATOM     12  H3  UNL     1     -31.781  29.807   5.645  0.00  0.00    -0.088 HD
ENDBRANCH   8   9
BRANCH   8  14
ATOM     13  OXT UNL     1     -33.333  30.386   2.045  0.00  0.00    -0.253 OA
ATOM     14  C   UNL     1     -33.230  30.119   3.234  0.00  0.00    +0.293 C 
BRANCH  14  15
ATOM     15  O   UNL     1     -33.919  30.771   4.206  0.00  0.00    -0.482 OA
ATOM     16  H   UNL     1     -34.571  31.403   3.975  0.00  0.00    +0.295 HD
ENDBRANCH  14  15
ENDBRANCH   8  14
ENDBRANCH   7   8
ENDBRANCH   6   7
ENDBRANCH   4   6
BRANCH   5  17
ATOM     17  C   UNL     1     -37.549  24.361   3.526  0.00  0.00    +0.024 C 
BRANCH  17  18
ATOM     18  N   UNL     1     -38.793  25.095   3.766  0.00  0.00    +0.388 N 
ATOM     19  H   UNL     1     -38.595  25.926   4.325  0.00  0.00    -0.089 HD
ATOM     20  H   UNL     1     -39.450  24.497   4.269  0.00  0.00    -0.089 HD
ATOM     21  H   UNL     1     -39.200  25.374   2.874  0.00  0.00    -0.089 HD
ENDBRANCH  17  18
BRANCH  17  22
ATOM     22  C   UNL     1     -37.665  23.622   2.186  0.00  0.00    +0.045 C 
BRANCH  22  23
ATOM     23  S   UNL     1     -36.804  22.018   2.229  0.00  0.00    -0.137 S 
BRANCH  23  24
ATOM     24  C   UNL     1     -35.594  22.340   0.927  0.00  0.00    +0.084 C 
BRANCH  24  25
ATOM     25  C   UNL     1     -34.515  21.294   0.884  0.00  0.00    -0.011 C 
ATOM     26  C   UNL     1     -33.353  21.520   0.148  0.00  0.00    -0.004 C 
ATOM     27  C   UNL     1     -34.678  20.096   1.580  0.00  0.00    -0.004 C 
ATOM     28  C   UNL     1     -32.515  19.350   0.803  0.00  0.00    -0.022 C 
ATOM     29  C   UNL     1     -32.353  20.548   0.108  0.00  0.00    -0.005 C 
ATOM     30  C   UNL     1     -33.678  19.124   1.539  0.00  0.00    -0.005 C 
ATOM     31  C   UNL     1     -31.446  18.311   0.760  0.00  0.00    +0.031 C 
ENDBRANCH  24  25
ENDBRANCH  23  24
ENDBRANCH  22  23
ENDBRANCH  17  22
ENDBRANCH   5  17
BRANCH   3  32
ATOM     32  C   UNL     1     -35.567  24.287   5.543  0.00  0.00    +0.112 C 
BRANCH  32  33
ATOM     33  C   UNL     1     -34.670  23.101   5.211  0.00  0.00    +0.131 C 
BRANCH  33  35
ATOM     34  O   UNL     1     -35.000  20.689   5.104  0.00  0.00    -0.250 OA
ATOM     35  C   UNL     1     -35.280  21.772   5.599  0.00  0.00    +0.316 C 
BRANCH  35  36
ATOM     36  O   UNL     1     -36.195  21.918   6.593  0.00  0.00    -0.480 OA
ATOM     37  H   UNL     1     -36.725  21.191   6.854  0.00  0.00    +0.295 HD
ENDBRANCH  35  36
ENDBRANCH  33  35
ENDBRANCH  32  33
ENDBRANCH   3  32
TORSDOF 16
ENDMDL
MODEL 2
REMARK VINA RESULT:      -6.2      1.511      1.968
REMARK  Name = 192604
REMARK  16 active torsions:
REMARK  status: ('A' for Active; 'I' for Inactive)
REMARK    1  A    between atoms: N_3  and  C_32
REMARK    2  A    between atoms: C_4  and  C_6
REMARK    3  A    between atoms: C_5  and  C_17
REMARK    4  A    between atoms: C_6  and  C_7
REMARK    5  A    between atoms: C_7  and  CA_8
REMARK    6  A    between atoms: CA_8  and  N_9
REMARK    7  A    between atoms: CA_8  and  C_14
REMARK    8  A    between atoms: C_14  and  O_15
REMARK    9  A    between atoms: C_17  and  N_18
REMARK   10  A    between atoms: C_17  and  C_22
REMARK   11  A    between atoms: C_22  and  S_23
REMARK   12  A    between atoms: S_23  and  C_24
REMARK   13  A    between atoms: C_24  and  C_25
REMARK   14  A    between atoms: C_32  and  C_33
REMARK   15  A    between atoms: C_33  and  C_35
REMARK   16  A    between atoms: C_35  and  O_36
REMARK                            x       y       z     vdW  Elec       q    Type
REMARK                         _______ _______ _______ _____ _____    ______ ____
ROOT
ATOM      1  O   UNL     1     -33.232  26.225   6.075  0.00  0.00    -0.274 OA
ATOM      2  O   UNL     1     -35.629  26.903   2.754  0.00  0.00    -0.277 OA
ATOM      3  N   UNL     1     -35.060  25.734   4.698  0.00  0.00    -0.231 N 
ATOM      4  C   UNL     1     -33.908  26.475   5.072  0.00  0.00    +0.231 C 
ATOM      5  C   UNL     1     -35.855  25.993   3.558  0.00  0.00    +0.212 C 
ENDROOT
BRANCH   4   6
ATOM      6  C   UNL     1     -33.522  27.627   4.150  0.00  0.00    +0.084 C 
BRANCH   6   7
ATOM      7  C   UNL     1     -32.125  28.177   4.461  0.00  0.00    -0.001 C 
BRANCH   7   8
ATOM      8  CA  UNL     1     -32.066  28.976   5.770  0.00  0.00    +0.036 C 
BRANCH   8   9
ATOM      9  N   UNL     1     -32.286  30.403   5.546  0.00  0.00    +0.389 N 
ATOM     10  H1  UNL     1     -33.250  30.640   5.779  0.00  0.00    -0.088 HD
ATOM     11  H2  UNL     1     -32.110  30.624   4.566  0.00  0.00    -0.088 HD
ATOM     12  H3  UNL     1     -31.651  30.942   6.135  0.00  0.00    -0.088 HD
ENDBRANCH   8   9
BRANCH   8  14
ATOM     13  OXT UNL     1     -29.862  29.696   6.551  0.00  0.00    -0.253 OA
ATOM     14  C   UNL     1     -30.701  28.818   6.409  0.00  0.00    +0.293 C 
BRANCH  14  15
ATOM     15  O   UNL     1     -30.517  27.538   6.826  0.00  0.00    -0.482 OA
ATOM     16  H   UNL     1     -31.134  27.142   7.410  0.00  0.00    +0.295 HD
ENDBRANCH  14  15
ENDBRANCH   8  14
ENDBRANCH   7   8
ENDBRANCH   6   7
ENDBRANCH   4   6
BRANCH   5  17
ATOM     17  C   UNL     1     -37.084  25.095   3.360  0.00  0.00    +0.024 C 
BRANCH  17  18
ATOM     18  N   UNL     1     -38.261  25.938   3.588  0.00  0.00    +0.388 N 
ATOM     19  H   UNL     1     -37.966  26.836   3.974  0.00  0.00    -0.089 HD
ATOM     20  H   UNL     1     -38.887  25.476   4.247  0.00  0.00    -0.089 HD
ATOM     21  H   UNL     1     -38.746  26.090   2.705  0.00  0.00    -0.089 HD
ENDBRANCH  17  18
BRANCH  17  22
ATOM     22  C   UNL     1     -37.145  24.545   1.928  0.00  0.00    +0.045 C 
BRANCH  22  23
ATOM     23  S   UNL     1     -35.543  23.853   1.409  0.00  0.00    -0.137 S 
BRANCH  23  24
ATOM     24  C   UNL     1     -35.946  22.102   1.599  0.00  0.00    +0.084 C 
BRANCH  24  25
ATOM     25  C   UNL     1     -34.776  21.213   1.281  0.00  0.00    -0.011 C 
ATOM     26  C   UNL     1     -33.779  21.654   0.412  0.00  0.00    -0.004 C 
ATOM     27  C   UNL     1     -34.688  19.944   1.857  0.00  0.00    -0.004 C 
ATOM     28  C   UNL     1     -32.607  19.560   0.692  0.00  0.00    -0.022 C 
ATOM     29  C   UNL     1     -32.695  20.827   0.118  0.00  0.00    -0.005 C 
ATOM     30  C   UNL     1     -33.603  19.118   1.562  0.00  0.00    -0.005 C 
ATOM     31  C   UNL     1     -31.447  18.676   0.378  0.00  0.00    +0.031 C 
ENDBRANCH  24  25
ENDBRANCH  23  24
ENDBRANCH  22  23
ENDBRANCH  17  22
ENDBRANCH   5  17
BRANCH   3  32
ATOM     32  C   UNL     1     -35.396  24.612   5.577  0.00  0.00    +0.112 C 
BRANCH  32  33
ATOM     33  C   UNL     1     -34.791  23.302   5.091  0.00  0.00    +0.131 C 
BRANCH  33  35
ATOM     34  O   UNL     1     -36.178  22.115   6.706  0.00  0.00    -0.250 OA
ATOM     35  C   UNL     1     -35.362  22.090   5.796  0.00  0.00    +0.316 C 
BRANCH  35  36
ATOM     36  O   UNL     1     -34.857  20.937   5.283  0.00  0.00    -0.480 OA
ATOM     37  H   UNL     1     -35.301  20.125   5.430  0.00  0.00    +0.295 HD
ENDBRANCH  35  36
ENDBRANCH  33  35
ENDBRANCH  32  33
ENDBRANCH   3  32
TORSDOF 16
ENDMDL
MODEL 3
REMARK VINA RESULT:      -6.2      2.437      2.951
REMARK  Name = 192604
REMARK  16 active torsions:
REMARK  status: ('A' for Active; 'I' for Inactive)
REMARK    1  A    between atoms: N_3  and  C_32
REMARK    2  A    between atoms: C_4  and  C_6
REMARK    3  A    between atoms: C_5  and  C_17
REMARK    4  A    between atoms: C_6  and  C_7
REMARK    5  A    between atoms: C_7  and  CA_8
REMARK    6  A    between atoms: CA_8  and  N_9
REMARK    7  A    between atoms: CA_8  and  C_14
REMARK    8  A    between atoms: C_14  and  O_15
REMARK    9  A    between atoms: C_17  and  N_18
REMARK   10  A    between atoms: C_17  and  C_22
REMARK   11  A    between atoms: C_22  and  S_23
REMARK   12  A    between atoms: S_23  and  C_24
REMARK   13  A    between atoms: C_24  and  C_25
REMARK   14  A    between atoms: C_32  and  C_33
REMARK   15  A    between atoms: C_33  and  C_35
REMARK   16  A    between atoms: C_35  and  O_36
REMARK                            x       y       z     vdW  Elec       q    Type
REMARK                         _______ _______ _______ _____ _____    ______ ____
ROOT
ATOM      1  O   UNL     1     -32.935  25.734   3.370  0.00  0.00    -0.274 OA
ATOM      2  O   UNL     1     -36.304  24.548   1.255  0.00  0.00    -0.277 OA
ATOM      3  N   UNL     1     -34.872  24.450   3.103  0.00  0.00    -0.231 N 
ATOM      4  C   UNL     1     -33.921  25.422   2.696  0.00  0.00    +0.231 C 
ATOM      5  C   UNL     1     -36.011  24.070   2.356  0.00  0.00    +0.212 C 
ENDROOT
BRANCH   4   6
ATOM      6  C   UNL     1     -34.171  26.083   1.344  0.00  0.00    +0.084 C 
BRANCH   6   7
ATOM      7  C   UNL     1     -33.913  27.594   1.380  0.00  0.00    -0.001 C 
BRANCH   7   8
ATOM      8  CA  UNL     1     -35.064  28.392   2.007  0.00  0.00    +0.036 C 
BRANCH   8   9
ATOM      9  N   UNL     1     -35.098  28.243   3.461  0.00  0.00    +0.389 N 
ATOM     10  H1  UNL     1     -34.665  29.057   3.897  0.00  0.00    -0.088 HD
ATOM     11  H2  UNL     1     -34.587  27.402   3.728  0.00  0.00    -0.088 HD
ATOM     12  H3  UNL     1     -36.066  28.166   3.772  0.00  0.00    -0.088 HD
ENDBRANCH   8   9
BRANCH   8  14
ATOM     13  OXT UNL     1     -36.791  28.013   0.316  0.00  0.00    -0.253 OA
ATOM     14  C   UNL     1     -36.390  27.897   1.465  0.00  0.00    +0.293 C 
BRANCH  14  15
ATOM     15  O   UNL     1     -37.102  27.281   2.445  0.00  0.00    -0.482 OA
ATOM     16  H   UNL     1     -37.611  27.790   3.045  0.00  0.00    +0.295 HD
ENDBRANCH  14  15
ENDBRANCH   8  14
ENDBRANCH   7   8
ENDBRANCH   6   7
ENDBRANCH   4   6
BRANCH   5  17
ATOM     17  C   UNL     1     -36.937  23.026   2.998  0.00  0.00    +0.024 C 
BRANCH  17  18
ATOM     18  N   UNL     1     -38.266  23.636   3.076  0.00  0.00    +0.388 N 
ATOM     19  H   UNL     1     -38.178  24.651   3.025  0.00  0.00    -0.089 HD
ATOM     20  H   UNL     1     -38.707  23.378   3.959  0.00  0.00    -0.089 HD
ATOM     21  H   UNL     1     -38.838  23.305   2.300  0.00  0.00    -0.089 HD
ENDBRANCH  17  18
BRANCH  17  22
ATOM     22  C   UNL     1     -37.027  21.759   2.136  0.00  0.00    +0.045 C 
BRANCH  22  23
ATOM     23  S   UNL     1     -35.627  20.637   2.449  0.00  0.00    -0.137 S 
BRANCH  23  24
ATOM     24  C   UNL     1     -34.769  20.852   0.874  0.00  0.00    +0.084 C 
BRANCH  24  25
ATOM     25  C   UNL     1     -33.504  20.042   0.802  0.00  0.00    -0.011 C 
ATOM     26  C   UNL     1     -33.434  18.799   1.430  0.00  0.00    -0.004 C 
ATOM     27  C   UNL     1     -32.399  20.536   0.107  0.00  0.00    -0.004 C 
ATOM     28  C   UNL     1     -31.155  18.543   0.669  0.00  0.00    -0.022 C 
ATOM     29  C   UNL     1     -32.260  18.050   1.363  0.00  0.00    -0.005 C 
ATOM     30  C   UNL     1     -31.225  19.786   0.040  0.00  0.00    -0.005 C 
ATOM     31  C   UNL     1     -29.899  17.741   0.597  0.00  0.00    +0.031 C 
ENDBRANCH  24  25
ENDBRANCH  23  24
ENDBRANCH  22  23
ENDBRANCH  17  22
ENDBRANCH   5  17
BRANCH   3  32
ATOM     32  C   UNL     1     -34.598  23.803   4.386  0.00  0.00    +0.112 C 
BRANCH  32  33
ATOM     33  C   UNL     1     -35.548  24.272   5.480  0.00  0.00    +0.131 C 
BRANCH  33  35
ATOM     34  O   UNL     1     -34.601  26.441   6.065  0.00  0.00    -0.250 OA
ATOM     35  C   UNL     1     -35.544  25.775   5.662  0.00  0.00    +0.316 C 
BRANCH  35  36
ATOM     36  O   UNL     1     -36.738  26.319   5.308  0.00  0.00    -0.480 OA
ATOM     37  H   UNL     1     -37.397  25.785   4.910  0.00  0.00    +0.295 HD
ENDBRANCH  35  36
ENDBRANCH  33  35
ENDBRANCH  32  33
ENDBRANCH   3  32
TORSDOF 16
ENDMDL
MODEL 4
REMARK VINA RESULT:      -6.1      1.885      2.286
REMARK  Name = 192604
REMARK  16 active torsions:
REMARK  status: ('A' for Active; 'I' for Inactive)
REMARK    1  A    between atoms: N_3  and  C_32
REMARK    2  A    between atoms: C_4  and  C_6
REMARK    3  A    between atoms: C_5  and  C_17
REMARK    4  A    between atoms: C_6  and  C_7
REMARK    5  A    between atoms: C_7  and  CA_8
REMARK    6  A    between atoms: CA_8  and  N_9
REMARK    7  A    between atoms: CA_8  and  C_14
REMARK    8  A    between atoms: C_14  and  O_15
REMARK    9  A    between atoms: C_17  and  N_18
REMARK   10  A    between atoms: C_17  and  C_22
REMARK   11  A    between atoms: C_22  and  S_23
REMARK   12  A    between atoms: S_23  and  C_24
REMARK   13  A    between atoms: C_24  and  C_25
REMARK   14  A    between atoms: C_32  and  C_33
REMARK   15  A    between atoms: C_33  and  C_35
REMARK   16  A    between atoms: C_35  and  O_36
REMARK                            x       y       z     vdW  Elec       q    Type
REMARK                         _______ _______ _______ _____ _____    ______ ____
ROOT
ATOM      1  O   UNL     1     -34.572  26.709   5.247  0.00  0.00    -0.274 OA
ATOM      2  O   UNL     1     -36.644  25.401   1.897  0.00  0.00    -0.277 OA
ATOM      3  N   UNL     1     -35.918  25.170   4.108  0.00  0.00    -0.231 N 
ATOM      4  C   UNL     1     -35.170  26.372   4.221  0.00  0.00    +0.231 C 
ATOM      5  C   UNL     1     -36.613  24.756   2.949  0.00  0.00    +0.212 C 
ENDROOT
BRANCH   4   6
ATOM      6  C   UNL     1     -35.127  27.256   2.979  0.00  0.00    +0.084 C 
BRANCH   6   7
ATOM      7  C   UNL     1     -33.704  27.716   2.642  0.00  0.00    -0.001 C 
BRANCH   7   8
ATOM      8  CA  UNL     1     -33.133  27.049   1.383  0.00  0.00    +0.036 C 
BRANCH   8   9
ATOM      9  N   UNL     1     -34.118  26.186   0.731  0.00  0.00    +0.389 N 
ATOM     10  H1  UNL     1     -33.637  25.511   0.137  0.00  0.00    -0.088 HD
ATOM     11  H2  UNL     1     -34.743  26.756   0.162  0.00  0.00    -0.088 HD
ATOM     12  H3  UNL     1     -34.659  25.692   1.440  0.00  0.00    -0.088 HD
ENDBRANCH   8   9
BRANCH   8  14
ATOM     13  OXT UNL     1     -31.186  25.626   0.970  0.00  0.00    -0.253 OA
ATOM     14  C   UNL     1     -31.942  26.188   1.750  0.00  0.00    +0.293 C 
BRANCH  14  15
ATOM     15  O   UNL     1     -31.806  26.117   3.100  0.00  0.00    -0.482 OA
ATOM     16  H   UNL     1     -32.561  26.191   3.651  0.00  0.00    +0.295 HD
ENDBRANCH  14  15
ENDBRANCH   8  14
ENDBRANCH   7   8
ENDBRANCH   6   7
ENDBRANCH   4   6
BRANCH   5  17
ATOM     17  C   UNL     1     -37.397  23.439   3.052  0.00  0.00    +0.024 C 
BRANCH  17  18
ATOM     18  N   UNL     1     -38.817  23.789   2.976  0.00  0.00    +0.388 N 
ATOM     19  H   UNL     1     -39.284  23.506   3.839  0.00  0.00    -0.089 HD
ATOM     20  H   UNL     1     -39.245  23.306   2.186  0.00  0.00    -0.089 HD
ATOM     21  H   UNL     1     -38.913  24.796   2.853  0.00  0.00    -0.089 HD
ENDBRANCH  17  18
BRANCH  17  22
ATOM     22  C   UNL     1     -37.059  22.499   1.887  0.00  0.00    +0.045 C 
BRANCH  22  23
ATOM     23  S   UNL     1     -35.260  22.305   1.685  0.00  0.00    -0.137 S 
BRANCH  23  24
ATOM     24  C   UNL     1     -35.214  20.509   1.498  0.00  0.00    +0.084 C 
BRANCH  24  25
ATOM     25  C   UNL     1     -33.851  20.014   1.100  0.00  0.00    -0.011 C 
ATOM     26  C   UNL     1     -33.033  20.800   0.289  0.00  0.00    -0.004 C 
ATOM     27  C   UNL     1     -33.406  18.767   1.540  0.00  0.00    -0.004 C 
ATOM     28  C   UNL     1     -31.324  19.093   0.360  0.00  0.00    -0.022 C 
ATOM     29  C   UNL     1     -31.769  20.339  -0.080  0.00  0.00    -0.005 C 
ATOM     30  C   UNL     1     -32.142  18.307   1.170  0.00  0.00    -0.005 C 
ATOM     31  C   UNL     1     -29.973  18.601  -0.036  0.00  0.00    +0.031 C 
ENDBRANCH  24  25
ENDBRANCH  23  24
ENDBRANCH  22  23
ENDBRANCH  17  22
ENDBRANCH   5  17
BRANCH   3  32
ATOM     32  C   UNL     1     -35.921  24.320   5.299  0.00  0.00    +0.112 C 
BRANCH  32  33
ATOM     33  C   UNL     1     -34.809  23.280   5.264  0.00  0.00    +0.131 C 
BRANCH  33  35
ATOM     34  O   UNL     1     -34.928  20.855   5.049  0.00  0.00    -0.250 OA
ATOM     35  C   UNL     1     -35.292  21.885   5.598  0.00  0.00    +0.316 C 
BRANCH  35  36
ATOM     36  O   UNL     1     -36.197  21.905   6.612  0.00  0.00    -0.480 OA
ATOM     37  H   UNL     1     -36.155  22.576   7.265  0.00  0.00    +0.295 HD
ENDBRANCH  35  36
ENDBRANCH  33  35
ENDBRANCH  32  33
ENDBRANCH   3  32
TORSDOF 16
ENDMDL
MODEL 5
REMARK VINA RESULT:      -5.9      5.215      8.365
REMARK  Name = 192604
REMARK  16 active torsions:
REMARK  status: ('A' for Active; 'I' for Inactive)
REMARK    1  A    between atoms: N_3  and  C_32
REMARK    2  A    between atoms: C_4  and  C_6
REMARK    3  A    between atoms: C_5  and  C_17
REMARK    4  A    between atoms: C_6  and  C_7
REMARK    5  A    between atoms: C_7  and  CA_8
REMARK    6  A    between atoms: CA_8  and  N_9
REMARK    7  A    between atoms: CA_8  and  C_14
REMARK    8  A    between atoms: C_14  and  O_15
REMARK    9  A    between atoms: C_17  and  N_18
REMARK   10  A    between atoms: C_17  and  C_22
REMARK   11  A    between atoms: C_22  and  S_23
REMARK   12  A    between atoms: S_23  and  C_24
REMARK   13  A    between atoms: C_24  and  C_25
REMARK   14  A    between atoms: C_32  and  C_33
REMARK   15  A    between atoms: C_33  and  C_35
REMARK   16  A    between atoms: C_35  and  O_36
REMARK                            x       y       z     vdW  Elec       q    Type
REMARK                         _______ _______ _______ _____ _____    ______ ____
ROOT
ATOM      1  O   UNL     1     -37.127  22.157   2.696  0.00  0.00    -0.274 OA
ATOM      2  O   UNL     1     -38.245  26.131   3.131  0.00  0.00    -0.277 OA
ATOM      3  N   UNL     1     -38.713  23.877   2.716  0.00  0.00    -0.231 N 
ATOM      4  C   UNL     1     -37.399  23.353   2.837  0.00  0.00    +0.231 C 
ATOM      5  C   UNL     1     -39.059  25.239   2.871  0.00  0.00    +0.212 C 
ENDROOT
BRANCH   4   6
ATOM      6  C   UNL     1     -36.300  24.362   3.152  0.00  0.00    +0.084 C 
BRANCH   6   7
ATOM      7  C   UNL     1     -35.725  24.174   4.561  0.00  0.00    -0.001 C 
BRANCH   7   8
ATOM      8  CA  UNL     1     -35.452  25.499   5.286  0.00  0.00    +0.036 C 
BRANCH   8   9
ATOM      9  N   UNL     1     -36.671  26.287   5.456  0.00  0.00    +0.389 N 
ATOM     10  H1  UNL     1     -36.456  27.141   5.970  0.00  0.00    -0.088 HD
ATOM     11  H2  UNL     1     -37.358  25.741   5.976  0.00  0.00    -0.088 HD
ATOM     12  H3  UNL     1     -37.051  26.528   4.540  0.00  0.00    -0.088 HD
ENDBRANCH   8   9
BRANCH   8  14
ATOM     13  OXT UNL     1     -33.320  26.038   4.214  0.00  0.00    -0.253 OA
ATOM     14  C   UNL     1     -34.475  26.334   4.484  0.00  0.00    +0.293 C 
BRANCH  14  15
ATOM     15  O   UNL     1     -35.061  27.492   4.081  0.00  0.00    -0.482 OA
ATOM     16  H   UNL     1     -34.621  28.054   3.473  0.00  0.00    +0.295 HD
ENDBRANCH  14  15
ENDBRANCH   8  14
ENDBRANCH   7   8
ENDBRANCH   6   7
ENDBRANCH   4   6
BRANCH   5  17
ATOM     17  C   UNL     1     -40.548  25.589   2.739  0.00  0.00    +0.024 C 
BRANCH  17  18
ATOM     18  N   UNL     1     -40.911  26.342   3.942  0.00  0.00    +0.388 N 
ATOM     19  H   UNL     1     -41.523  27.118   3.686  0.00  0.00    -0.089 HD
ATOM     20  H   UNL     1     -40.066  26.708   4.382  0.00  0.00    -0.089 HD
ATOM     21  H   UNL     1     -41.396  25.727   4.595  0.00  0.00    -0.089 HD
ENDBRANCH  17  18
BRANCH  17  22
ATOM     22  C   UNL     1     -40.805  26.472   1.511  0.00  0.00    +0.045 C 
BRANCH  22  23
ATOM     23  S   UNL     1     -42.374  27.385   1.660  0.00  0.00    -0.137 S 
BRANCH  23  24
ATOM     24  C   UNL     1     -43.493  26.055   1.168  0.00  0.00    +0.084 C 
BRANCH  24  25
ATOM     25  C   UNL     1     -44.522  25.758   2.224  0.00  0.00    -0.011 C 
ATOM     26  C   UNL     1     -45.458  24.745   2.021  0.00  0.00    -0.004 C 
ATOM     27  C   UNL     1     -44.539  26.498   3.407  0.00  0.00    -0.004 C 
ATOM     28  C   UNL     1     -46.430  25.211   4.184  0.00  0.00    -0.022 C 
ATOM     29  C   UNL     1     -46.412  24.471   3.002  0.00  0.00    -0.005 C 
ATOM     30  C   UNL     1     -45.493  26.224   4.387  0.00  0.00    -0.005 C 
ATOM     31  C   UNL     1     -47.450  24.918   5.232  0.00  0.00    +0.031 C 
ENDBRANCH  24  25
ENDBRANCH  23  24
ENDBRANCH  22  23
ENDBRANCH  17  22
ENDBRANCH   5  17
BRANCH   3  32
ATOM     32  C   UNL     1     -39.749  22.899   2.381  0.00  0.00    +0.112 C 
BRANCH  32  33
ATOM     33  C   UNL     1     -39.810  22.617   0.886  0.00  0.00    +0.131 C 
BRANCH  33  35
ATOM     34  O   UNL     1     -41.176  20.726   0.182  0.00  0.00    -0.250 OA
ATOM     35  C   UNL     1     -40.104  21.166   0.569  0.00  0.00    +0.316 C 
BRANCH  35  36
ATOM     36  O   UNL     1     -39.007  20.387   0.760  0.00  0.00    -0.480 OA
ATOM     37  H   UNL     1     -38.831  19.674   0.178  0.00  0.00    +0.295 HD
ENDBRANCH  35  36
ENDBRANCH  33  35
ENDBRANCH  32  33
ENDBRANCH   3  32
TORSDOF 16
ENDMDL
MODEL 6
REMARK VINA RESULT:      -5.8      2.615      5.293
REMARK  Name = 192604
REMARK  16 active torsions:
REMARK  status: ('A' for Active; 'I' for Inactive)
REMARK    1  A    between atoms: N_3  and  C_32
REMARK    2  A    between atoms: C_4  and  C_6
REMARK    3  A    between atoms: C_5  and  C_17
REMARK    4  A    between atoms: C_6  and  C_7
REMARK    5  A    between atoms: C_7  and  CA_8
REMARK    6  A    between atoms: CA_8  and  N_9
REMARK    7  A    between atoms: CA_8  and  C_14
REMARK    8  A    between atoms: C_14  and  O_15
REMARK    9  A    between atoms: C_17  and  N_18
REMARK   10  A    between atoms: C_17  and  C_22
REMARK   11  A    between atoms: C_22  and  S_23
REMARK   12  A    between atoms: S_23  and  C_24
REMARK   13  A    between atoms: C_24  and  C_25
REMARK   14  A    between atoms: C_32  and  C_33
REMARK   15  A    between atoms: C_33  and  C_35
REMARK   16  A    between atoms: C_35  and  O_36
REMARK                            x       y       z     vdW  Elec       q    Type
REMARK                         _______ _______ _______ _____ _____    ______ ____
ROOT
ATOM      1  O   UNL     1     -37.788  26.608   0.825  0.00  0.00    -0.274 OA
ATOM      2  O   UNL     1     -38.195  23.060   2.939  0.00  0.00    -0.277 OA
ATOM      3  N   UNL     1     -36.968  24.915   2.216  0.00  0.00    -0.231 N 
ATOM      4  C   UNL     1     -37.969  25.550   1.434  0.00  0.00    +0.231 C 
ATOM      5  C   UNL     1     -37.142  23.704   2.925  0.00  0.00    +0.212 C 
ENDROOT
BRANCH   4   6
ATOM      6  C   UNL     1     -39.319  24.844   1.369  0.00  0.00    +0.084 C 
BRANCH   6   7
ATOM      7  C   UNL     1     -40.476  25.764   1.773  0.00  0.00    -0.001 C 
BRANCH   7   8
ATOM      8  CA  UNL     1     -40.418  26.203   3.243  0.00  0.00    +0.036 C 
BRANCH   8   9
ATOM      9  N   UNL     1     -40.198  25.068   4.139  0.00  0.00    +0.389 N 
ATOM     10  H1  UNL     1     -40.589  25.280   5.057  0.00  0.00    -0.088 HD
ATOM     11  H2  UNL     1     -39.197  24.896   4.227  0.00  0.00    -0.088 HD
ATOM     12  H3  UNL     1     -40.654  24.240   3.757  0.00  0.00    -0.088 HD
ENDBRANCH   8   9
BRANCH   8  14
ATOM     13  OXT UNL     1     -42.844  26.521   3.263  0.00  0.00    -0.253 OA
ATOM     14  C   UNL     1     -41.729  26.851   3.639  0.00  0.00    +0.293 C 
BRANCH  14  15
ATOM     15  O   UNL     1     -41.508  27.879   4.500  0.00  0.00    -0.482 OA
ATOM     16  H   UNL     1     -42.190  28.164   5.076  0.00  0.00    +0.295 HD
ENDBRANCH  14  15
ENDBRANCH   8  14
ENDBRANCH   7   8
ENDBRANCH   6   7
ENDBRANCH   4   6
BRANCH   5  17
ATOM     17  C   UNL     1     -35.941  23.210   3.745  0.00  0.00    +0.024 C 
BRANCH  17  18
ATOM     18  N   UNL     1     -36.354  23.234   5.150  0.00  0.00    +0.388 N 
ATOM     19  H   UNL     1     -36.142  24.148   5.551  0.00  0.00    -0.089 HD
ATOM     20  H   UNL     1     -35.849  22.513   5.665  0.00  0.00    -0.089 HD
ATOM     21  H   UNL     1     -37.356  23.059   5.213  0.00  0.00    -0.089 HD
ENDBRANCH  17  18
BRANCH  17  22
ATOM     22  C   UNL     1     -35.565  21.771   3.367  0.00  0.00    +0.045 C 
BRANCH  22  23
ATOM     23  S   UNL     1     -35.199  21.620   1.590  0.00  0.00    -0.137 S 
BRANCH  23  24
ATOM     24  C   UNL     1     -34.855  19.847   1.548  0.00  0.00    +0.084 C 
BRANCH  24  25
ATOM     25  C   UNL     1     -33.455  19.551   1.088  0.00  0.00    -0.011 C 
ATOM     26  C   UNL     1     -32.831  18.363   1.469  0.00  0.00    -0.004 C 
ATOM     27  C   UNL     1     -32.779  20.466   0.279  0.00  0.00    -0.004 C 
ATOM     28  C   UNL     1     -30.855  19.005   0.234  0.00  0.00    -0.022 C 
ATOM     29  C   UNL     1     -31.531  18.091   1.042  0.00  0.00    -0.005 C 
ATOM     30  C   UNL     1     -31.479  20.192  -0.147  0.00  0.00    -0.005 C 
ATOM     31  C   UNL     1     -29.466  18.713  -0.222  0.00  0.00    +0.031 C 
ENDBRANCH  24  25
ENDBRANCH  23  24
ENDBRANCH  22  23
ENDBRANCH  17  22
ENDBRANCH   5  17
BRANCH   3  32
ATOM     32  C   UNL     1     -35.670  25.590   2.240  0.00  0.00    +0.112 C 
BRANCH  32  33
ATOM     33  C   UNL     1     -35.542  26.545   3.419  0.00  0.00    +0.131 C 
BRANCH  33  35
ATOM     34  O   UNL     1     -33.371  25.689   4.121  0.00  0.00    -0.250 OA
ATOM     35  C   UNL     1     -34.130  26.633   3.959  0.00  0.00    +0.316 C 
BRANCH  35  36
ATOM     36  O   UNL     1     -33.789  27.917   4.243  0.00  0.00    -0.480 OA
ATOM     37  H   UNL     1     -34.294  28.412   4.858  0.00  0.00    +0.295 HD
ENDBRANCH  35  36
ENDBRANCH  33  35
ENDBRANCH  32  33
ENDBRANCH   3  32
TORSDOF 16
ENDMDL
MODEL 7
REMARK VINA RESULT:      -5.7      2.773      5.434
REMARK  Name = 192604
REMARK  16 active torsions:
REMARK  status: ('A' for Active; 'I' for Inactive)
REMARK    1  A    between atoms: N_3  and  C_32
REMARK    2  A    between atoms: C_4  and  C_6
REMARK    3  A    between atoms: C_5  and  C_17
REMARK    4  A    between atoms: C_6  and  C_7
REMARK    5  A    between atoms: C_7  and  CA_8
REMARK    6  A    between atoms: CA_8  and  N_9
REMARK    7  A    between atoms: CA_8  and  C_14
REMARK    8  A    between atoms: C_14  and  O_15
REMARK    9  A    between atoms: C_17  and  N_18
REMARK   10  A    between atoms: C_17  and  C_22
REMARK   11  A    between atoms: C_22  and  S_23
REMARK   12  A    between atoms: S_23  and  C_24
REMARK   13  A    between atoms: C_24  and  C_25
REMARK   14  A    between atoms: C_32  and  C_33
REMARK   15  A    between atoms: C_33  and  C_35
REMARK   16  A    between atoms: C_35  and  O_36
REMARK                            x       y       z     vdW  Elec       q    Type
REMARK                         _______ _______ _______ _____ _____    ______ ____
ROOT
ATOM      1  O   UNL     1     -38.290  26.668   2.566  0.00  0.00    -0.274 OA
ATOM      2  O   UNL     1     -38.132  22.556   3.106  0.00  0.00    -0.277 OA
ATOM      3  N   UNL     1     -37.172  24.689   3.123  0.00  0.00    -0.231 N 
ATOM      4  C   UNL     1     -38.303  25.442   2.710  0.00  0.00    +0.231 C 
ATOM      5  C   UNL     1     -37.154  23.286   3.297  0.00  0.00    +0.212 C 
ENDROOT
BRANCH   4   6
ATOM      6  C   UNL     1     -39.576  24.648   2.436  0.00  0.00    +0.084 C 
BRANCH   6   7
ATOM      7  C   UNL     1     -39.999  24.718   0.964  0.00  0.00    -0.001 C 
BRANCH   7   8
ATOM      8  CA  UNL     1     -39.987  23.352   0.264  0.00  0.00    +0.036 C 
BRANCH   8   9
ATOM      9  N   UNL     1     -40.427  22.281   1.156  0.00  0.00    +0.389 N 
ATOM     10  H1  UNL     1     -40.277  21.378   0.705  0.00  0.00    -0.088 HD
ATOM     11  H2  UNL     1     -41.420  22.396   1.362  0.00  0.00    -0.088 HD
ATOM     12  H3  UNL     1     -39.894  22.320   2.024  0.00  0.00    -0.088 HD
ENDBRANCH   8   9
BRANCH   8  14
ATOM     13  OXT UNL     1     -37.804  23.775  -0.756  0.00  0.00    -0.253 OA
ATOM     14  C   UNL     1     -38.581  23.018  -0.192  0.00  0.00    +0.293 C 
BRANCH  14  15
ATOM     15  O   UNL     1     -38.276  21.731   0.117  0.00  0.00    -0.482 OA
ATOM     16  H   UNL     1     -37.898  21.170  -0.532  0.00  0.00    +0.295 HD
ENDBRANCH  14  15
ENDBRANCH   8  14
ENDBRANCH   7   8
ENDBRANCH   6   7
ENDBRANCH   4   6
BRANCH   5  17
ATOM     17  C   UNL     1     -35.836  22.673   3.791  0.00  0.00    +0.024 C 
BRANCH  17  18
ATOM     18  N   UNL     1     -36.019  22.371   5.212  0.00  0.00    +0.388 N 
ATOM     19  H   UNL     1     -35.142  22.026   5.603  0.00  0.00    -0.089 HD
ATOM     20  H   UNL     1     -36.741  21.659   5.319  0.00  0.00    -0.089 HD
ATOM     21  H   UNL     1     -36.300  23.218   5.706  0.00  0.00    -0.089 HD
ENDBRANCH  17  18
BRANCH  17  22
ATOM     22  C   UNL     1     -35.518  21.368   3.049  0.00  0.00    +0.045 C 
BRANCH  22  23
ATOM     23  S   UNL     1     -34.984  21.685   1.337  0.00  0.00    -0.137 S 
BRANCH  23  24
ATOM     24  C   UNL     1     -34.839  19.969   0.791  0.00  0.00    +0.084 C 
BRANCH  24  25
ATOM     25  C   UNL     1     -33.406  19.525   0.691  0.00  0.00    -0.011 C 
ATOM     26  C   UNL     1     -32.474  20.317   0.021  0.00  0.00    -0.004 C 
ATOM     27  C   UNL     1     -33.009  18.318   1.270  0.00  0.00    -0.004 C 
ATOM     28  C   UNL     1     -30.748  18.697   0.506  0.00  0.00    -0.022 C 
ATOM     29  C   UNL     1     -31.145  19.902  -0.071  0.00  0.00    -0.005 C 
ATOM     30  C   UNL     1     -31.679  17.905   1.177  0.00  0.00    -0.005 C 
ATOM     31  C   UNL     1     -29.327  18.254   0.407  0.00  0.00    +0.031 C 
ENDBRANCH  24  25
ENDBRANCH  23  24
ENDBRANCH  22  23
ENDBRANCH  17  22
ENDBRANCH   5  17
BRANCH   3  32
ATOM     32  C   UNL     1     -35.952  25.465   3.349  0.00  0.00    +0.112 C 
BRANCH  32  33
ATOM     33  C   UNL     1     -35.821  25.917   4.797  0.00  0.00    +0.131 C 
BRANCH  33  35
ATOM     34  O   UNL     1     -33.847  26.863   5.871  0.00  0.00    -0.250 OA
ATOM     35  C   UNL     1     -34.387  25.937   5.283  0.00  0.00    +0.316 C 
BRANCH  35  36
ATOM     36  O   UNL     1     -33.751  24.771   4.992  0.00  0.00    -0.480 OA
ATOM     37  H   UNL     1     -33.521  24.571   4.107  0.00  0.00    +0.295 HD
ENDBRANCH  35  36
ENDBRANCH  33  35
ENDBRANCH  32  33
ENDBRANCH   3  32
TORSDOF 16
ENDMDL
MODEL 8
REMARK VINA RESULT:      -5.6      2.965      4.768
REMARK  Name = 192604
REMARK  16 active torsions:
REMARK  status: ('A' for Active; 'I' for Inactive)
REMARK    1  A    between atoms: N_3  and  C_32
REMARK    2  A    between atoms: C_4  and  C_6
REMARK    3  A    between atoms: C_5  and  C_17
REMARK    4  A    between atoms: C_6  and  C_7
REMARK    5  A    between atoms: C_7  and  CA_8
REMARK    6  A    between atoms: CA_8  and  N_9
REMARK    7  A    between atoms: CA_8  and  C_14
REMARK    8  A    between atoms: C_14  and  O_15
REMARK    9  A    between atoms: C_17  and  N_18
REMARK   10  A    between atoms: C_17  and  C_22
REMARK   11  A    between atoms: C_22  and  S_23
REMARK   12  A    between atoms: S_23  and  C_24
REMARK   13  A    between atoms: C_24  and  C_25
REMARK   14  A    between atoms: C_32  and  C_33
REMARK   15  A    between atoms: C_33  and  C_35
REMARK   16  A    between atoms: C_35  and  O_36
REMARK                            x       y       z     vdW  Elec       q    Type
REMARK                         _______ _______ _______ _____ _____    ______ ____
ROOT
ATOM      1  O   UNL     1     -38.847  24.678   3.895  0.00  0.00    -0.274 OA
ATOM      2  O   UNL     1     -35.439  25.134   1.570  0.00  0.00    -0.277 OA
ATOM      3  N   UNL     1     -37.586  24.293   1.962  0.00  0.00    -0.231 N 
ATOM      4  C   UNL     1     -37.808  24.849   3.249  0.00  0.00    +0.231 C 
ATOM      5  C   UNL     1     -36.410  24.469   1.196  0.00  0.00    +0.212 C 
ENDROOT
BRANCH   4   6
ATOM      6  C   UNL     1     -36.673  25.690   3.823  0.00  0.00    +0.084 C 
BRANCH   6   7
ATOM      7  C   UNL     1     -36.309  25.275   5.253  0.00  0.00    -0.001 C 
BRANCH   7   8
ATOM      8  CA  UNL     1     -35.083  24.355   5.324  0.00  0.00    +0.036 C 
BRANCH   8   9
ATOM      9  N   UNL     1     -34.210  24.524   4.164  0.00  0.00    +0.389 N 
ATOM     10  H1  UNL     1     -34.777  24.608   3.321  0.00  0.00    -0.088 HD
ATOM     11  H2  UNL     1     -33.596  23.713   4.081  0.00  0.00    -0.088 HD
ATOM     12  H3  UNL     1     -33.647  25.366   4.281  0.00  0.00    -0.088 HD
ENDBRANCH   8   9
BRANCH   8  14
ATOM     13  OXT UNL     1     -35.892  22.282   6.342  0.00  0.00    -0.253 OA
ATOM     14  C   UNL     1     -35.527  22.906   5.356  0.00  0.00    +0.293 C 
BRANCH  14  15
ATOM     15  O   UNL     1     -35.473  22.367   4.110  0.00  0.00    -0.482 OA
ATOM     16  H   UNL     1     -36.172  21.824   3.803  0.00  0.00    +0.295 HD
ENDBRANCH  14  15
ENDBRANCH   8  14
ENDBRANCH   7   8
ENDBRANCH   6   7
ENDBRANCH   4   6
BRANCH   5  17
ATOM     17  C   UNL     1     -36.390  23.814  -0.192  0.00  0.00    +0.024 C 
BRANCH  17  18
ATOM     18  N   UNL     1     -36.646  24.879  -1.164  0.00  0.00    +0.388 N 
ATOM     19  H   UNL     1     -36.224  25.748  -0.835  0.00  0.00    -0.089 HD
ATOM     20  H   UNL     1     -37.652  25.010  -1.268  0.00  0.00    -0.089 HD
ATOM     21  H   UNL     1     -36.240  24.624  -2.063  0.00  0.00    -0.089 HD
ENDBRANCH  17  18
BRANCH  17  22
ATOM     22  C   UNL     1     -35.019  23.193  -0.493  0.00  0.00    +0.045 C 
BRANCH  22  23
ATOM     23  S   UNL     1     -35.164  21.432  -0.933  0.00  0.00    -0.137 S 
BRANCH  23  24
ATOM     24  C   UNL     1     -34.813  20.731   0.695  0.00  0.00    +0.084 C 
BRANCH  24  25
ATOM     25  C   UNL     1     -33.522  19.961   0.714  0.00  0.00    -0.011 C 
ATOM     26  C   UNL     1     -32.402  20.458   0.049  0.00  0.00    -0.004 C 
ATOM     27  C   UNL     1     -33.445  18.746   1.398  0.00  0.00    -0.004 C 
ATOM     28  C   UNL     1     -31.128  18.528   0.750  0.00  0.00    -0.022 C 
ATOM     29  C   UNL     1     -31.205  19.741   0.067  0.00  0.00    -0.005 C 
ATOM     30  C   UNL     1     -32.248  18.030   1.416  0.00  0.00    -0.005 C 
ATOM     31  C   UNL     1     -29.848  17.762   0.770  0.00  0.00    +0.031 C 
ENDBRANCH  24  25
ENDBRANCH  23  24
ENDBRANCH  22  23
ENDBRANCH  17  22
ENDBRANCH   5  17
BRANCH   3  32
ATOM     32  C   UNL     1     -38.673  23.462   1.441  0.00  0.00    +0.112 C 
BRANCH  32  33
ATOM     33  C   UNL     1     -38.527  22.003   1.852  0.00  0.00    +0.131 C 
BRANCH  33  35
ATOM     34  O   UNL     1     -38.577  20.348   0.063  0.00  0.00    -0.250 OA
ATOM     35  C   UNL     1     -39.172  21.046   0.872  0.00  0.00    +0.316 C 
BRANCH  35  36
ATOM     36  O   UNL     1     -40.524  21.042   1.003  0.00  0.00    -0.480 OA
ATOM     37  H   UNL     1     -41.049  20.513   0.435  0.00  0.00    +0.295 HD
ENDBRANCH  35  36
ENDBRANCH  33  35
ENDBRANCH  32  33
ENDBRANCH   3  32
TORSDOF 16
ENDMDL
MODEL 9
REMARK VINA RESULT:      -5.6      2.562      4.582
REMARK  Name = 192604
REMARK  16 active torsions:
REMARK  status: ('A' for Active; 'I' for Inactive)
REMARK    1  A    between atoms: N_3  and  C_32
REMARK    2  A    between atoms: C_4  and  C_6
REMARK    3  A    between atoms: C_5  and  C_17
REMARK    4  A    between atoms: C_6  and  C_7
REMARK    5  A    between atoms: C_7  and  CA_8
REMARK    6  A    between atoms: CA_8  and  N_9
REMARK    7  A    between atoms: CA_8  and  C_14
REMARK    8  A    between atoms: C_14  and  O_15
REMARK    9  A    between atoms: C_17  and  N_18
REMARK   10  A    between atoms: C_17  and  C_22
REMARK   11  A    between atoms: C_22  and  S_23
REMARK   12  A    between atoms: S_23  and  C_24
REMARK   13  A    between atoms: C_24  and  C_25
REMARK   14  A    between atoms: C_32  and  C_33
REMARK   15  A    between atoms: C_33  and  C_35
REMARK   16  A    between atoms: C_35  and  O_36
REMARK                            x       y       z     vdW  Elec       q    Type
REMARK                         _______ _______ _______ _____ _____    ______ ____
ROOT
ATOM      1  O   UNL     1     -36.812  27.268   1.701  0.00  0.00    -0.274 OA
ATOM      2  O   UNL     1     -35.291  23.415   1.438  0.00  0.00    -0.277 OA
ATOM      3  N   UNL     1     -36.934  25.029   1.032  0.00  0.00    -0.231 N 
ATOM      4  C   UNL     1     -36.309  26.141   1.654  0.00  0.00    +0.231 C 
ATOM      5  C   UNL     1     -36.386  23.728   0.960  0.00  0.00    +0.212 C 
ENDROOT
BRANCH   4   6
ATOM      6  C   UNL     1     -34.947  25.878   2.289  0.00  0.00    +0.084 C 
BRANCH   6   7
ATOM      7  C   UNL     1     -34.938  26.185   3.791  0.00  0.00    -0.001 C 
BRANCH   7   8
ATOM      8  CA  UNL     1     -36.167  25.636   4.530  0.00  0.00    +0.036 C 
BRANCH   8   9
ATOM      9  N   UNL     1     -36.447  26.391   5.750  0.00  0.00    +0.389 N 
ATOM     10  H1  UNL     1     -36.961  25.800   6.404  0.00  0.00    -0.088 HD
ATOM     11  H2  UNL     1     -37.008  27.211   5.520  0.00  0.00    -0.088 HD
ATOM     12  H3  UNL     1     -35.570  26.687   6.176  0.00  0.00    -0.088 HD
ENDBRANCH   8   9
BRANCH   8  14
ATOM     13  OXT UNL     1     -35.075  23.789   5.705  0.00  0.00    -0.253 OA
ATOM     14  C   UNL     1     -35.928  24.194   4.929  0.00  0.00    +0.293 C 
BRANCH  14  15
ATOM     15  O   UNL     1     -36.812  23.376   4.300  0.00  0.00    -0.482 OA
ATOM     16  H   UNL     1     -37.029  22.544   4.674  0.00  0.00    +0.295 HD
ENDBRANCH  14  15
ENDBRANCH   8  14
ENDBRANCH   7   8
ENDBRANCH   6   7
ENDBRANCH   4   6
BRANCH   5  17
ATOM     17  C   UNL     1     -37.210  22.676   0.204  0.00  0.00    +0.024 C 
BRANCH  17  18
ATOM     18  N   UNL     1     -36.427  22.296  -0.974  0.00  0.00    +0.388 N 
ATOM     19  H   UNL     1     -36.173  23.134  -1.498  0.00  0.00    -0.089 HD
ATOM     20  H   UNL     1     -36.981  21.679  -1.568  0.00  0.00    -0.089 HD
ATOM     21  H   UNL     1     -35.580  21.812  -0.677  0.00  0.00    -0.089 HD
ENDBRANCH  17  18
BRANCH  17  22
ATOM     22  C   UNL     1     -37.441  21.426   1.065  0.00  0.00    +0.045 C 
BRANCH  22  23
ATOM     23  S   UNL     1     -36.498  20.000   0.438  0.00  0.00    -0.137 S 
BRANCH  23  24
ATOM     24  C   UNL     1     -35.256  19.918   1.747  0.00  0.00    +0.084 C 
BRANCH  24  25
ATOM     25  C   UNL     1     -33.868  19.727   1.201  0.00  0.00    -0.011 C 
ATOM     26  C   UNL     1     -33.153  18.568   1.501  0.00  0.00    -0.004 C 
ATOM     27  C   UNL     1     -33.295  20.712   0.395  0.00  0.00    -0.004 C 
ATOM     28  C   UNL     1     -31.292  19.377   0.188  0.00  0.00    -0.022 C 
ATOM     29  C   UNL     1     -31.865  18.393   0.994  0.00  0.00    -0.005 C 
ATOM     30  C   UNL     1     -32.007  20.536  -0.111  0.00  0.00    -0.005 C 
ATOM     31  C   UNL     1     -29.914  19.190  -0.353  0.00  0.00    +0.031 C 
ENDBRANCH  24  25
ENDBRANCH  23  24
ENDBRANCH  22  23
ENDBRANCH  17  22
ENDBRANCH   5  17
BRANCH   3  32
ATOM     32  C   UNL     1     -38.254  25.293   0.457  0.00  0.00    +0.112 C 
BRANCH  32  33
ATOM     33  C   UNL     1     -39.373  24.665   1.277  0.00  0.00    +0.131 C 
BRANCH  33  35
ATOM     34  O   UNL     1     -39.424  24.581   3.713  0.00  0.00    -0.250 OA
ATOM     35  C   UNL     1     -39.468  25.231   2.678  0.00  0.00    +0.316 C 
BRANCH  35  36
ATOM     36  O   UNL     1     -39.603  26.583   2.657  0.00  0.00    -0.480 OA
ATOM     37  H   UNL     1     -39.894  27.038   3.423  0.00  0.00    +0.295 HD
ENDBRANCH  35  36
ENDBRANCH  33  35
ENDBRANCH  32  33
ENDBRANCH   3  32
TORSDOF 16
ENDMDL
