MODEL 1
REMARK VINA RESULT:      -6.3      0.000      0.000
REMARK  Name = 53462148
REMARK  7 active torsions:
REMARK  status: ('A' for Active; 'I' for Inactive)
REMARK    1  A    between atoms: C_3  and  C_12
REMARK    2  A    between atoms: C_4  and  O_24
REMARK    3  A    between atoms: C_8  and  O_26
REMARK    4  A    between atoms: C_11  and  O_28
REMARK    5  A    between atoms: C_15  and  O_18
REMARK    6  A    between atoms: C_16  and  O_20
REMARK    7  A    between atoms: C_17  and  O_22
REMARK                            x       y       z     vdW  Elec       q    Type
REMARK                         _______ _______ _______ _____ _____    ______ ____
ROOT
ATOM      1  O   UNL     1     -34.842  23.802   3.315  0.00  0.00    -0.471 OA
ATOM      2  O   UNL     1     -38.905  24.376   3.345  0.00  0.00    -0.288 OA
ATOM      3  C   UNL     1     -35.456  24.732   4.220  0.00  0.00    +0.222 C 
ATOM      4  C   UNL     1     -36.714  25.352   3.609  0.00  0.00    +0.217 C 
ATOM      5  C   UNL     1     -37.689  24.244   3.276  0.00  0.00    +0.209 C 
ATOM      6  C   UNL     1     -37.084  22.978   2.818  0.00  0.00    +0.105 C 
ATOM      7  C   UNL     1     -35.695  22.837   2.849  0.00  0.00    +0.148 C 
ATOM      8  C   UNL     1     -37.889  21.944   2.332  0.00  0.00    +0.142 C 
ATOM      9  C   UNL     1     -35.108  21.669   2.359  0.00  0.00    +0.074 C 
ATOM     10  C   UNL     1     -37.297  20.771   1.861  0.00  0.00    +0.073 C 
ATOM     11  C   UNL     1     -35.909  20.635   1.870  0.00  0.00    +0.140 C 
ENDROOT
BRANCH   3  12
ATOM     12  C   UNL     1     -34.416  25.783   4.557  0.00  0.00    +0.026 C 
ATOM     13  C   UNL     1     -33.848  26.553   3.542  0.00  0.00    +0.040 C 
ATOM     14  C   UNL     1     -34.028  25.982   5.882  0.00  0.00    +0.039 C 
ATOM     15  C   UNL     1     -32.892  27.520   3.851  0.00  0.00    +0.175 C 
ATOM     16  C   UNL     1     -33.072  26.949   6.192  0.00  0.00    +0.170 C 
ATOM     17  C   UNL     1     -32.504  27.718   5.176  0.00  0.00    +0.202 C 
BRANCH  15  18
ATOM     18  O   UNL     1     -32.344  28.265   2.850  0.00  0.00    -0.468 OA
ATOM     19  C   UNL     1     -33.142  29.322   2.322  0.00  0.00    +0.253 C 
ENDBRANCH  15  18
BRANCH  16  20
ATOM     20  O   UNL     1     -32.703  27.133   7.491  0.00  0.00    -0.503 OA
ATOM     21  H   UNL     1     -31.931  27.626   7.693  0.00  0.00    +0.292 HD
ENDBRANCH  16  20
BRANCH  17  22
ATOM     22  O   UNL     1     -31.570  28.664   5.480  0.00  0.00    -0.501 OA
ATOM     23  H   UNL     1     -31.169  28.671   6.327  0.00  0.00    +0.292 HD
ENDBRANCH  17  22
ENDBRANCH   3  12
BRANCH   4  24
ATOM     24  O   UNL     1     -37.333  26.221   4.542  0.00  0.00    -0.374 OA
ATOM     25  H   UNL     1     -37.954  26.804   4.076  0.00  0.00    +0.211 HD
ENDBRANCH   4  24
BRANCH   8  26
ATOM     26  O   UNL     1     -39.248  22.030   2.283  0.00  0.00    -0.505 OA
ATOM     27  H   UNL     1     -39.672  22.287   1.487  0.00  0.00    +0.292 HD
ENDBRANCH   8  26
BRANCH  11  28
ATOM     28  O   UNL     1     -35.334  19.494   1.403  0.00  0.00    -0.505 OA
ATOM     29  H   UNL     1     -34.544  19.173   1.792  0.00  0.00    +0.292 HD
ENDBRANCH  11  28
TORSDOF 7
ENDMDL
MODEL 2
REMARK VINA RESULT:      -6.1      2.874      7.964
REMARK  Name = 53462148
REMARK  7 active torsions:
REMARK  status: ('A' for Active; 'I' for Inactive)
REMARK    1  A    between atoms: C_3  and  C_12
REMARK    2  A    between atoms: C_4  and  O_24
REMARK    3  A    between atoms: C_8  and  O_26
REMARK    4  A    between atoms: C_11  and  O_28
REMARK    5  A    between atoms: C_15  and  O_18
REMARK    6  A    between atoms: C_16  and  O_20
REMARK    7  A    between atoms: C_17  and  O_22
REMARK                            x       y       z     vdW  Elec       q    Type
REMARK                         _______ _______ _______ _____ _____    ______ ____
ROOT
ATOM      1  O   UNL     1     -37.616  23.271   2.315  0.00  0.00    -0.471 OA
ATOM      2  O   UNL     1     -35.157  20.624   4.260  0.00  0.00    -0.288 OA
ATOM      3  C   UNL     1     -37.834  21.854   2.232  0.00  0.00    +0.222 C 
ATOM      4  C   UNL     1     -36.514  21.085   2.318  0.00  0.00    +0.217 C 
ATOM      5  C   UNL     1     -35.839  21.423   3.630  0.00  0.00    +0.209 C 
ATOM      6  C   UNL     1     -36.021  22.809   4.103  0.00  0.00    +0.105 C 
ATOM      7  C   UNL     1     -36.887  23.657   3.408  0.00  0.00    +0.148 C 
ATOM      8  C   UNL     1     -35.315  23.277   5.214  0.00  0.00    +0.142 C 
ATOM      9  C   UNL     1     -37.018  24.989   3.807  0.00  0.00    +0.074 C 
ATOM     10  C   UNL     1     -35.466  24.604   5.620  0.00  0.00    +0.073 C 
ATOM     11  C   UNL     1     -36.312  25.460   4.915  0.00  0.00    +0.140 C 
ENDROOT
BRANCH   3  12
ATOM     12  C   UNL     1     -38.557  21.586   0.927  0.00  0.00    +0.026 C 
ATOM     13  C   UNL     1     -37.876  21.699  -0.285  0.00  0.00    +0.040 C 
ATOM     14  C   UNL     1     -39.905  21.226   0.937  0.00  0.00    +0.039 C 
ATOM     15  C   UNL     1     -38.542  21.453  -1.485  0.00  0.00    +0.175 C 
ATOM     16  C   UNL     1     -40.571  20.979  -0.263  0.00  0.00    +0.170 C 
ATOM     17  C   UNL     1     -39.889  21.092  -1.474  0.00  0.00    +0.202 C 
BRANCH  15  18
ATOM     18  O   UNL     1     -37.864  21.567  -2.662  0.00  0.00    -0.468 OA
ATOM     19  C   UNL     1     -36.971  20.507  -2.999  0.00  0.00    +0.253 C 
ENDBRANCH  15  18
BRANCH  16  20
ATOM     20  O   UNL     1     -41.887  20.627  -0.238  0.00  0.00    -0.503 OA
ATOM     21  H   UNL     1     -42.146  19.807   0.137  0.00  0.00    +0.292 HD
ENDBRANCH  16  20
BRANCH  17  22
ATOM     22  O   UNL     1     -40.540  20.850  -2.647  0.00  0.00    -0.501 OA
ATOM     23  H   UNL     1     -41.387  21.222  -2.799  0.00  0.00    +0.292 HD
ENDBRANCH  17  22
ENDBRANCH   3  12
BRANCH   4  24
ATOM     24  O   UNL     1     -36.759  19.690   2.294  0.00  0.00    -0.374 OA
ATOM     25  H   UNL     1     -37.651  19.525   1.949  0.00  0.00    +0.211 HD
ENDBRANCH   4  24
BRANCH   8  26
ATOM     26  O   UNL     1     -34.461  22.492   5.928  0.00  0.00    -0.505 OA
ATOM     27  H   UNL     1     -33.549  22.705   5.966  0.00  0.00    +0.292 HD
ENDBRANCH   8  26
BRANCH  11  28
ATOM     28  O   UNL     1     -36.451  26.755   5.308  0.00  0.00    -0.505 OA
ATOM     29  H   UNL     1     -36.959  27.350   4.792  0.00  0.00    +0.292 HD
ENDBRANCH  11  28
TORSDOF 7
ENDMDL
MODEL 3
REMARK VINA RESULT:      -6.0      1.300      7.146
REMARK  Name = 53462148
REMARK  7 active torsions:
REMARK  status: ('A' for Active; 'I' for Inactive)
REMARK    1  A    between atoms: C_3  and  C_12
REMARK    2  A    between atoms: C_4  and  O_24
REMARK    3  A    between atoms: C_8  and  O_26
REMARK    4  A    between atoms: C_11  and  O_28
REMARK    5  A    between atoms: C_15  and  O_18
REMARK    6  A    between atoms: C_16  and  O_20
REMARK    7  A    between atoms: C_17  and  O_22
REMARK                            x       y       z     vdW  Elec       q    Type
REMARK                         _______ _______ _______ _____ _____    ______ ____
ROOT
ATOM      1  O   UNL     1     -34.926  25.060   4.358  0.00  0.00    -0.471 OA
ATOM      2  O   UNL     1     -32.955  27.123   1.409  0.00  0.00    -0.288 OA
ATOM      3  C   UNL     1     -34.777  24.513   3.039  0.00  0.00    +0.222 C 
ATOM      4  C   UNL     1     -34.752  25.618   1.980  0.00  0.00    +0.217 C 
ATOM      5  C   UNL     1     -33.600  26.551   2.280  0.00  0.00    +0.209 C 
ATOM      6  C   UNL     1     -33.310  26.769   3.710  0.00  0.00    +0.105 C 
ATOM      7  C   UNL     1     -34.002  26.022   4.666  0.00  0.00    +0.148 C 
ATOM      8  C   UNL     1     -32.376  27.732   4.105  0.00  0.00    +0.142 C 
ATOM      9  C   UNL     1     -33.782  26.265   6.024  0.00  0.00    +0.074 C 
ATOM     10  C   UNL     1     -32.147  27.955   5.463  0.00  0.00    +0.073 C 
ATOM     11  C   UNL     1     -32.852  27.227   6.421  0.00  0.00    +0.140 C 
ENDROOT
BRANCH   3  12
ATOM     12  C   UNL     1     -35.927  23.549   2.820  0.00  0.00    +0.026 C 
ATOM     13  C   UNL     1     -37.227  24.035   2.675  0.00  0.00    +0.040 C 
ATOM     14  C   UNL     1     -35.686  22.176   2.764  0.00  0.00    +0.039 C 
ATOM     15  C   UNL     1     -38.284  23.149   2.473  0.00  0.00    +0.175 C 
ATOM     16  C   UNL     1     -36.744  21.290   2.563  0.00  0.00    +0.170 C 
ATOM     17  C   UNL     1     -38.043  21.776   2.417  0.00  0.00    +0.202 C 
BRANCH  15  18
ATOM     18  O   UNL     1     -39.549  23.636   2.333  0.00  0.00    -0.468 OA
ATOM     19  C   UNL     1     -39.884  24.794   3.095  0.00  0.00    +0.253 C 
ENDBRANCH  15  18
BRANCH  16  20
ATOM     20  O   UNL     1     -36.495  19.951   2.509  0.00  0.00    -0.503 OA
ATOM     21  H   UNL     1     -35.966  19.601   1.818  0.00  0.00    +0.292 HD
ENDBRANCH  16  20
BRANCH  17  22
ATOM     22  O   UNL     1     -39.076  20.909   2.219  0.00  0.00    -0.501 OA
ATOM     23  H   UNL     1     -39.089  20.085   2.665  0.00  0.00    +0.292 HD
ENDBRANCH  17  22
ENDBRANCH   3  12
BRANCH   4  24
ATOM     24  O   UNL     1     -34.547  25.058   0.695  0.00  0.00    -0.374 OA
ATOM     25  H   UNL     1     -35.167  25.460   0.065  0.00  0.00    +0.211 HD
ENDBRANCH   4  24
BRANCH   8  26
ATOM     26  O   UNL     1     -31.673  28.484   3.213  0.00  0.00    -0.505 OA
ATOM     27  H   UNL     1     -31.665  28.250   2.306  0.00  0.00    +0.292 HD
ENDBRANCH   8  26
BRANCH  11  28
ATOM     28  O   UNL     1     -32.633  27.453   7.745  0.00  0.00    -0.505 OA
ATOM     29  H   UNL     1     -32.923  28.253   8.139  0.00  0.00    +0.292 HD
ENDBRANCH  11  28
TORSDOF 7
ENDMDL
MODEL 4
REMARK VINA RESULT:      -5.9      2.447      6.797
REMARK  Name = 53462148
REMARK  7 active torsions:
REMARK  status: ('A' for Active; 'I' for Inactive)
REMARK    1  A    between atoms: C_3  and  C_12
REMARK    2  A    between atoms: C_4  and  O_24
REMARK    3  A    between atoms: C_8  and  O_26
REMARK    4  A    between atoms: C_11  and  O_28
REMARK    5  A    between atoms: C_15  and  O_18
REMARK    6  A    between atoms: C_16  and  O_20
REMARK    7  A    between atoms: C_17  and  O_22
REMARK                            x       y       z     vdW  Elec       q    Type
REMARK                         _______ _______ _______ _____ _____    ______ ____
ROOT
ATOM      1  O   UNL     1     -35.637  26.683   2.576  0.00  0.00    -0.471 OA
ATOM      2  O   UNL     1     -32.776  28.810   4.608  0.00  0.00    -0.288 OA
ATOM      3  C   UNL     1     -35.111  26.215   3.827  0.00  0.00    +0.222 C 
ATOM      4  C   UNL     1     -33.653  26.642   4.009  0.00  0.00    +0.217 C 
ATOM      5  C   UNL     1     -33.579  28.153   3.956  0.00  0.00    +0.209 C 
ATOM      6  C   UNL     1     -34.524  28.806   3.028  0.00  0.00    +0.105 C 
ATOM      7  C   UNL     1     -35.487  28.030   2.380  0.00  0.00    +0.148 C 
ATOM      8  C   UNL     1     -34.436  30.178   2.779  0.00  0.00    +0.142 C 
ATOM      9  C   UNL     1     -36.344  28.625   1.452  0.00  0.00    +0.074 C 
ATOM     10  C   UNL     1     -35.309  30.771   1.865  0.00  0.00    +0.073 C 
ATOM     11  C   UNL     1     -36.258  29.995   1.199  0.00  0.00    +0.140 C 
ENDROOT
BRANCH   3  12
ATOM     12  C   UNL     1     -35.261  24.706   3.842  0.00  0.00    +0.026 C 
ATOM     13  C   UNL     1     -35.062  23.973   2.672  0.00  0.00    +0.040 C 
ATOM     14  C   UNL     1     -35.599  24.050   5.026  0.00  0.00    +0.039 C 
ATOM     15  C   UNL     1     -35.200  22.586   2.685  0.00  0.00    +0.175 C 
ATOM     16  C   UNL     1     -35.737  22.662   5.039  0.00  0.00    +0.170 C 
ATOM     17  C   UNL     1     -35.538  21.930   3.869  0.00  0.00    +0.202 C 
BRANCH  15  18
ATOM     18  O   UNL     1     -35.003  21.882   1.535  0.00  0.00    -0.468 OA
ATOM     19  C   UNL     1     -34.327  22.554   0.474  0.00  0.00    +0.253 C 
ENDBRANCH  15  18
BRANCH  16  20
ATOM     20  O   UNL     1     -36.066  22.034   6.203  0.00  0.00    -0.503 OA
ATOM     21  H   UNL     1     -35.635  22.270   7.001  0.00  0.00    +0.292 HD
ENDBRANCH  16  20
BRANCH  17  22
ATOM     22  O   UNL     1     -35.672  20.574   3.883  0.00  0.00    -0.501 OA
ATOM     23  H   UNL     1     -35.260  20.069   4.558  0.00  0.00    +0.292 HD
ENDBRANCH  17  22
ENDBRANCH   3  12
BRANCH   4  24
ATOM     24  O   UNL     1     -33.174  26.220   5.274  0.00  0.00    -0.374 OA
ATOM     25  H   UNL     1     -32.282  26.575   5.416  0.00  0.00    +0.211 HD
ENDBRANCH   4  24
BRANCH   8  26
ATOM     26  O   UNL     1     -33.517  30.980   3.386  0.00  0.00    -0.505 OA
ATOM     27  H   UNL     1     -32.880  31.435   2.871  0.00  0.00    +0.292 HD
ENDBRANCH   8  26
BRANCH  11  28
ATOM     28  O   UNL     1     -37.101  30.574   0.302  0.00  0.00    -0.505 OA
ATOM     29  H   UNL     1     -37.447  31.429   0.467  0.00  0.00    +0.292 HD
ENDBRANCH  11  28
TORSDOF 7
ENDMDL
MODEL 5
REMARK VINA RESULT:      -5.9      2.253      7.528
REMARK  Name = 53462148
REMARK  7 active torsions:
REMARK  status: ('A' for Active; 'I' for Inactive)
REMARK    1  A    between atoms: C_3  and  C_12
REMARK    2  A    between atoms: C_4  and  O_24
REMARK    3  A    between atoms: C_8  and  O_26
REMARK    4  A    between atoms: C_11  and  O_28
REMARK    5  A    between atoms: C_15  and  O_18
REMARK    6  A    between atoms: C_16  and  O_20
REMARK    7  A    between atoms: C_17  and  O_22
REMARK                            x       y       z     vdW  Elec       q    Type
REMARK                         _______ _______ _______ _____ _____    ______ ____
ROOT
ATOM      1  O   UNL     1     -33.216  26.666   4.849  0.00  0.00    -0.471 OA
ATOM      2  O   UNL     1     -33.769  29.795   2.251  0.00  0.00    -0.288 OA
ATOM      3  C   UNL     1     -33.567  26.440   3.475  0.00  0.00    +0.222 C 
ATOM      4  C   UNL     1     -34.435  27.577   2.930  0.00  0.00    +0.217 C 
ATOM      5  C   UNL     1     -33.668  28.875   3.055  0.00  0.00    +0.209 C 
ATOM      6  C   UNL     1     -32.801  28.993   4.243  0.00  0.00    +0.105 C 
ATOM      7  C   UNL     1     -32.638  27.886   5.079  0.00  0.00    +0.148 C 
ATOM      8  C   UNL     1     -32.172  30.205   4.544  0.00  0.00    +0.142 C 
ATOM      9  C   UNL     1     -31.871  28.004   6.240  0.00  0.00    +0.074 C 
ATOM     10  C   UNL     1     -31.392  30.310   5.696  0.00  0.00    +0.073 C 
ATOM     11  C   UNL     1     -31.245  29.213   6.545  0.00  0.00    +0.140 C 
ENDROOT
BRANCH   3  12
ATOM     12  C   UNL     1     -34.282  25.105   3.408  0.00  0.00    +0.026 C 
ATOM     13  C   UNL     1     -34.910  24.591   4.543  0.00  0.00    +0.040 C 
ATOM     14  C   UNL     1     -34.312  24.388   2.211  0.00  0.00    +0.039 C 
ATOM     15  C   UNL     1     -35.568  23.363   4.481  0.00  0.00    +0.175 C 
ATOM     16  C   UNL     1     -34.970  23.160   2.149  0.00  0.00    +0.170 C 
ATOM     17  C   UNL     1     -35.597  22.647   3.284  0.00  0.00    +0.202 C 
BRANCH  15  18
ATOM     18  O   UNL     1     -36.177  22.873   5.597  0.00  0.00    -0.468 OA
ATOM     19  C   UNL     1     -35.369  22.113   6.494  0.00  0.00    +0.253 C 
ENDBRANCH  15  18
BRANCH  16  20
ATOM     20  O   UNL     1     -34.992  22.471   0.973  0.00  0.00    -0.503 OA
ATOM     21  H   UNL     1     -34.412  22.712   0.278  0.00  0.00    +0.292 HD
ENDBRANCH  16  20
BRANCH  17  22
ATOM     22  O   UNL     1     -36.241  21.447   3.223  0.00  0.00    -0.501 OA
ATOM     23  H   UNL     1     -35.770  20.675   2.978  0.00  0.00    +0.292 HD
ENDBRANCH  17  22
ENDBRANCH   3  12
BRANCH   4  24
ATOM     24  O   UNL     1     -34.719  27.361   1.559  0.00  0.00    -0.374 OA
ATOM     25  H   UNL     1     -34.427  26.471   1.305  0.00  0.00    +0.211 HD
ENDBRANCH   4  24
BRANCH   8  26
ATOM     26  O   UNL     1     -32.296  31.312   3.761  0.00  0.00    -0.505 OA
ATOM     27  H   UNL     1     -31.959  31.308   2.887  0.00  0.00    +0.292 HD
ENDBRANCH   8  26
BRANCH  11  28
ATOM     28  O   UNL     1     -30.490  29.321   7.672  0.00  0.00    -0.505 OA
ATOM     29  H   UNL     1     -30.903  29.384   8.510  0.00  0.00    +0.292 HD
ENDBRANCH  11  28
TORSDOF 7
ENDMDL
MODEL 6
REMARK VINA RESULT:      -5.9      2.955      8.110
REMARK  Name = 53462148
REMARK  7 active torsions:
REMARK  status: ('A' for Active; 'I' for Inactive)
REMARK    1  A    between atoms: C_3  and  C_12
REMARK    2  A    between atoms: C_4  and  O_24
REMARK    3  A    between atoms: C_8  and  O_26
REMARK    4  A    between atoms: C_11  and  O_28
REMARK    5  A    between atoms: C_15  and  O_18
REMARK    6  A    between atoms: C_16  and  O_20
REMARK    7  A    between atoms: C_17  and  O_22
REMARK                            x       y       z     vdW  Elec       q    Type
REMARK                         _______ _______ _______ _____ _____    ______ ____
ROOT
ATOM      1  O   UNL     1     -37.370  23.257   2.161  0.00  0.00    -0.471 OA
ATOM      2  O   UNL     1     -35.161  20.586   4.357  0.00  0.00    -0.288 OA
ATOM      3  C   UNL     1     -37.597  21.843   2.061  0.00  0.00    +0.222 C 
ATOM      4  C   UNL     1     -36.304  21.057   2.285  0.00  0.00    +0.217 C 
ATOM      5  C   UNL     1     -35.764  21.391   3.658  0.00  0.00    +0.209 C 
ATOM      6  C   UNL     1     -35.975  22.782   4.106  0.00  0.00    +0.105 C 
ATOM      7  C   UNL     1     -36.752  23.638   3.322  0.00  0.00    +0.148 C 
ATOM      8  C   UNL     1     -35.380  23.245   5.283  0.00  0.00    +0.142 C 
ATOM      9  C   UNL     1     -36.906  24.973   3.702  0.00  0.00    +0.074 C 
ATOM     10  C   UNL     1     -35.554  24.575   5.667  0.00  0.00    +0.073 C 
ATOM     11  C   UNL     1     -36.312  25.439   4.876  0.00  0.00    +0.140 C 
ENDROOT
BRANCH   3  12
ATOM     12  C   UNL     1     -38.186  21.579   0.689  0.00  0.00    +0.026 C 
ATOM     13  C   UNL     1     -39.416  20.931   0.569  0.00  0.00    +0.040 C 
ATOM     14  C   UNL     1     -37.498  21.984  -0.456  0.00  0.00    +0.039 C 
ATOM     15  C   UNL     1     -39.957  20.688  -0.693  0.00  0.00    +0.175 C 
ATOM     16  C   UNL     1     -38.040  21.741  -1.718  0.00  0.00    +0.170 C 
ATOM     17  C   UNL     1     -39.269  21.093  -1.836  0.00  0.00    +0.202 C 
BRANCH  15  18
ATOM     18  O   UNL     1     -41.158  20.053  -0.795  0.00  0.00    -0.468 OA
ATOM     19  C   UNL     1     -42.323  20.877  -0.830  0.00  0.00    +0.253 C 
ENDBRANCH  15  18
BRANCH  16  20
ATOM     20  O   UNL     1     -37.358  22.143  -2.827  0.00  0.00    -0.503 OA
ATOM     21  H   UNL     1     -36.684  22.791  -2.754  0.00  0.00    +0.292 HD
ENDBRANCH  16  20
BRANCH  17  22
ATOM     22  O   UNL     1     -39.798  20.857  -3.070  0.00  0.00    -0.501 OA
ATOM     23  H   UNL     1     -39.312  21.083  -3.840  0.00  0.00    +0.292 HD
ENDBRANCH  17  22
ENDBRANCH   3  12
BRANCH   4  24
ATOM     24  O   UNL     1     -36.564  19.665   2.239  0.00  0.00    -0.374 OA
ATOM     25  H   UNL     1     -36.602  19.313   3.143  0.00  0.00    +0.211 HD
ENDBRANCH   4  24
BRANCH   8  26
ATOM     26  O   UNL     1     -34.616  22.451   6.083  0.00  0.00    -0.505 OA
ATOM     27  H   UNL     1     -33.750  22.721   6.321  0.00  0.00    +0.292 HD
ENDBRANCH   8  26
BRANCH  11  28
ATOM     28  O   UNL     1     -36.473  26.738   5.249  0.00  0.00    -0.505 OA
ATOM     29  H   UNL     1     -37.140  26.970   5.864  0.00  0.00    +0.292 HD
ENDBRANCH  11  28
TORSDOF 7
ENDMDL
MODEL 7
REMARK VINA RESULT:      -5.8      3.369      6.365
REMARK  Name = 53462148
REMARK  7 active torsions:
REMARK  status: ('A' for Active; 'I' for Inactive)
REMARK    1  A    between atoms: C_3  and  C_12
REMARK    2  A    between atoms: C_4  and  O_24
REMARK    3  A    between atoms: C_8  and  O_26
REMARK    4  A    between atoms: C_11  and  O_28
REMARK    5  A    between atoms: C_15  and  O_18
REMARK    6  A    between atoms: C_16  and  O_20
REMARK    7  A    between atoms: C_17  and  O_22
REMARK                            x       y       z     vdW  Elec       q    Type
REMARK                         _______ _______ _______ _____ _____    ______ ____
ROOT
ATOM      1  O   UNL     1     -33.712  19.688   1.448  0.00  0.00    -0.471 OA
ATOM      2  O   UNL     1     -36.658  17.651  -0.555  0.00  0.00    -0.288 OA
ATOM      3  C   UNL     1     -35.101  19.907   1.742  0.00  0.00    +0.222 C 
ATOM      4  C   UNL     1     -35.968  19.711   0.497  0.00  0.00    +0.217 C 
ATOM      5  C   UNL     1     -35.770  18.301  -0.015  0.00  0.00    +0.209 C 
ATOM      6  C   UNL     1     -34.410  17.750   0.141  0.00  0.00    +0.105 C 
ATOM      7  C   UNL     1     -33.456  18.484   0.850  0.00  0.00    +0.148 C 
ATOM      8  C   UNL     1     -34.072  16.523  -0.438  0.00  0.00    +0.142 C 
ATOM      9  C   UNL     1     -32.148  18.003   0.950  0.00  0.00    +0.074 C 
ATOM     10  C   UNL     1     -32.768  16.040  -0.318  0.00  0.00    +0.073 C 
ATOM     11  C   UNL     1     -31.807  16.780   0.371  0.00  0.00    +0.140 C 
ENDROOT
BRANCH   3  12
ATOM     12  C   UNL     1     -35.226  21.312   2.299  0.00  0.00    +0.026 C 
ATOM     13  C   UNL     1     -35.619  21.505   3.624  0.00  0.00    +0.040 C 
ATOM     14  C   UNL     1     -34.948  22.412   1.487  0.00  0.00    +0.039 C 
ATOM     15  C   UNL     1     -35.734  22.797   4.136  0.00  0.00    +0.175 C 
ATOM     16  C   UNL     1     -35.064  23.704   1.999  0.00  0.00    +0.170 C 
ATOM     17  C   UNL     1     -35.457  23.896   3.324  0.00  0.00    +0.202 C 
BRANCH  15  18
ATOM     18  O   UNL     1     -36.119  22.972   5.431  0.00  0.00    -0.468 OA
ATOM     19  C   UNL     1     -35.470  22.167   6.413  0.00  0.00    +0.253 C 
ENDBRANCH  15  18
BRANCH  16  20
ATOM     20  O   UNL     1     -34.788  24.770   1.196  0.00  0.00    -0.503 OA
ATOM     21  H   UNL     1     -34.241  25.463   1.509  0.00  0.00    +0.292 HD
ENDBRANCH  16  20
BRANCH  17  22
ATOM     22  O   UNL     1     -35.568  25.160   3.824  0.00  0.00    -0.501 OA
ATOM     23  H   UNL     1     -34.830  25.568   4.233  0.00  0.00    +0.292 HD
ENDBRANCH  17  22
ENDBRANCH   3  12
BRANCH   4  24
ATOM     24  O   UNL     1     -37.337  19.874   0.824  0.00  0.00    -0.374 OA
ATOM     25  H   UNL     1     -37.421  20.514   1.549  0.00  0.00    +0.211 HD
ENDBRANCH   4  24
BRANCH   8  26
ATOM     26  O   UNL     1     -34.964  15.768  -1.137  0.00  0.00    -0.505 OA
ATOM     27  H   UNL     1     -35.541  15.185  -0.682  0.00  0.00    +0.292 HD
ENDBRANCH   8  26
BRANCH  11  28
ATOM     28  O   UNL     1     -30.535  16.309   0.479  0.00  0.00    -0.505 OA
ATOM     29  H   UNL     1     -30.085  16.358   1.299  0.00  0.00    +0.292 HD
ENDBRANCH  11  28
TORSDOF 7
ENDMDL
MODEL 8
REMARK VINA RESULT:      -5.8      1.576      7.093
REMARK  Name = 53462148
REMARK  7 active torsions:
REMARK  status: ('A' for Active; 'I' for Inactive)
REMARK    1  A    between atoms: C_3  and  C_12
REMARK    2  A    between atoms: C_4  and  O_24
REMARK    3  A    between atoms: C_8  and  O_26
REMARK    4  A    between atoms: C_11  and  O_28
REMARK    5  A    between atoms: C_15  and  O_18
REMARK    6  A    between atoms: C_16  and  O_20
REMARK    7  A    between atoms: C_17  and  O_22
REMARK                            x       y       z     vdW  Elec       q    Type
REMARK                         _______ _______ _______ _____ _____    ______ ____
ROOT
ATOM      1  O   UNL     1     -34.255  24.617   2.269  0.00  0.00    -0.471 OA
ATOM      2  O   UNL     1     -34.226  25.924   6.159  0.00  0.00    -0.288 OA
ATOM      3  C   UNL     1     -35.231  24.156   3.216  0.00  0.00    +0.222 C 
ATOM      4  C   UNL     1     -34.649  24.104   4.630  0.00  0.00    +0.217 C 
ATOM      5  C   UNL     1     -34.179  25.491   5.013  0.00  0.00    +0.209 C 
ATOM      6  C   UNL     1     -33.615  26.300   3.915  0.00  0.00    +0.105 C 
ATOM      7  C   UNL     1     -33.672  25.808   2.609  0.00  0.00    +0.148 C 
ATOM      8  C   UNL     1     -33.006  27.529   4.182  0.00  0.00    +0.142 C 
ATOM      9  C   UNL     1     -33.085  26.535   1.571  0.00  0.00    +0.074 C 
ATOM     10  C   UNL     1     -32.438  28.259   3.137  0.00  0.00    +0.073 C 
ATOM     11  C   UNL     1     -32.473  27.761   1.835  0.00  0.00    +0.140 C 
ENDROOT
BRANCH   3  12
ATOM     12  C   UNL     1     -35.700  22.792   2.750  0.00  0.00    +0.026 C 
ATOM     13  C   UNL     1     -34.768  21.803   2.434  0.00  0.00    +0.040 C 
ATOM     14  C   UNL     1     -37.065  22.523   2.638  0.00  0.00    +0.039 C 
ATOM     15  C   UNL     1     -35.199  20.549   2.006  0.00  0.00    +0.175 C 
ATOM     16  C   UNL     1     -37.496  21.269   2.209  0.00  0.00    +0.170 C 
ATOM     17  C   UNL     1     -36.563  20.281   1.893  0.00  0.00    +0.202 C 
BRANCH  15  18
ATOM     18  O   UNL     1     -34.278  19.592   1.700  0.00  0.00    -0.468 OA
ATOM     19  C   UNL     1     -33.321  19.915   0.693  0.00  0.00    +0.253 C 
ENDBRANCH  15  18
BRANCH  16  20
ATOM     20  O   UNL     1     -38.832  21.020   2.105  0.00  0.00    -0.503 OA
ATOM     21  H   UNL     1     -39.386  21.116   2.854  0.00  0.00    +0.292 HD
ENDBRANCH  16  20
BRANCH  17  22
ATOM     22  O   UNL     1     -36.986  19.054   1.476  0.00  0.00    -0.501 OA
ATOM     23  H   UNL     1     -36.592  18.653   0.725  0.00  0.00    +0.292 HD
ENDBRANCH  17  22
ENDBRANCH   3  12
BRANCH   4  24
ATOM     24  O   UNL     1     -35.645  23.703   5.555  0.00  0.00    -0.374 OA
ATOM     25  H   UNL     1     -35.224  23.448   6.391  0.00  0.00    +0.211 HD
ENDBRANCH   4  24
BRANCH   8  26
ATOM     26  O   UNL     1     -32.926  28.055   5.437  0.00  0.00    -0.505 OA
ATOM     27  H   UNL     1     -32.747  27.496   6.168  0.00  0.00    +0.292 HD
ENDBRANCH   8  26
BRANCH  11  28
ATOM     28  O   UNL     1     -31.912  28.472   0.819  0.00  0.00    -0.505 OA
ATOM     29  H   UNL     1     -31.002  28.368   0.621  0.00  0.00    +0.292 HD
ENDBRANCH  11  28
TORSDOF 7
ENDMDL
MODEL 9
REMARK VINA RESULT:      -5.7      1.593      7.086
REMARK  Name = 53462148
REMARK  7 active torsions:
REMARK  status: ('A' for Active; 'I' for Inactive)
REMARK    1  A    between atoms: C_3  and  C_12
REMARK    2  A    between atoms: C_4  and  O_24
REMARK    3  A    between atoms: C_8  and  O_26
REMARK    4  A    between atoms: C_11  and  O_28
REMARK    5  A    between atoms: C_15  and  O_18
REMARK    6  A    between atoms: C_16  and  O_20
REMARK    7  A    between atoms: C_17  and  O_22
REMARK                            x       y       z     vdW  Elec       q    Type
REMARK                         _______ _______ _______ _____ _____    ______ ____
ROOT
ATOM      1  O   UNL     1     -34.184  24.463   2.307  0.00  0.00    -0.471 OA
ATOM      2  O   UNL     1     -34.509  25.844   6.158  0.00  0.00    -0.288 OA
ATOM      3  C   UNL     1     -35.277  24.067   3.151  0.00  0.00    +0.222 C 
ATOM      4  C   UNL     1     -34.852  24.016   4.620  0.00  0.00    +0.217 C 
ATOM      5  C   UNL     1     -34.361  25.387   5.031  0.00  0.00    +0.209 C 
ATOM      6  C   UNL     1     -33.644  26.147   3.988  0.00  0.00    +0.105 C 
ATOM      7  C   UNL     1     -33.584  25.633   2.691  0.00  0.00    +0.148 C 
ATOM      8  C   UNL     1     -33.009  27.352   4.301  0.00  0.00    +0.142 C 
ATOM      9  C   UNL     1     -32.856  26.311   1.712  0.00  0.00    +0.074 C 
ATOM     10  C   UNL     1     -32.298  28.034   3.313  0.00  0.00    +0.073 C 
ATOM     11  C   UNL     1     -32.218  27.513   2.022  0.00  0.00    +0.140 C 
ENDROOT
BRANCH   3  12
ATOM     12  C   UNL     1     -35.758  22.716   2.657  0.00  0.00    +0.026 C 
ATOM     13  C   UNL     1     -37.079  22.557   2.235  0.00  0.00    +0.040 C 
ATOM     14  C   UNL     1     -34.881  21.632   2.624  0.00  0.00    +0.039 C 
ATOM     15  C   UNL     1     -37.521  21.315   1.782  0.00  0.00    +0.175 C 
ATOM     16  C   UNL     1     -35.324  20.390   2.171  0.00  0.00    +0.170 C 
ATOM     17  C   UNL     1     -36.644  20.231   1.749  0.00  0.00    +0.202 C 
BRANCH  15  18
ATOM     18  O   UNL     1     -38.813  21.173   1.373  0.00  0.00    -0.468 OA
ATOM     19  C   UNL     1     -39.692  22.270   1.613  0.00  0.00    +0.253 C 
ENDBRANCH  15  18
BRANCH  16  20
ATOM     20  O   UNL     1     -34.456  19.339   2.143  0.00  0.00    -0.503 OA
ATOM     21  H   UNL     1     -34.598  18.600   2.702  0.00  0.00    +0.292 HD
ENDBRANCH  16  20
BRANCH  17  22
ATOM     22  O   UNL     1     -37.076  19.017   1.305  0.00  0.00    -0.501 OA
ATOM     23  H   UNL     1     -37.467  18.411   1.903  0.00  0.00    +0.292 HD
ENDBRANCH  17  22
ENDBRANCH   3  12
BRANCH   4  24
ATOM     24  O   UNL     1     -35.960  23.680   5.437  0.00  0.00    -0.374 OA
ATOM     25  H   UNL     1     -35.648  23.469   6.332  0.00  0.00    +0.211 HD
ENDBRANCH   4  24
BRANCH   8  26
ATOM     26  O   UNL     1     -33.039  27.898   5.549  0.00  0.00    -0.505 OA
ATOM     27  H   UNL     1     -32.304  28.389   5.862  0.00  0.00    +0.292 HD
ENDBRANCH   8  26
BRANCH  11  28
ATOM     28  O   UNL     1     -31.517  28.177   1.062  0.00  0.00    -0.505 OA
ATOM     29  H   UNL     1     -30.588  28.071   1.002  0.00  0.00    +0.292 HD
ENDBRANCH  11  28
TORSDOF 7
ENDMDL
