MODEL 1
REMARK VINA RESULT:      -6.8      0.000      0.000
REMARK  Name = 5487273
REMARK  12 active torsions:
REMARK  status: ('A' for Active; 'I' for Inactive)
REMARK    1  A    between atoms: N_2  and  C_5
REMARK    2  A    between atoms: C_3  and  C_22
REMARK    3  A    between atoms: C_5  and  C_10
REMARK    4  A    between atoms: C_11  and  C_13
REMARK    5  A    between atoms: C_13  and  N_14
REMARK    6  A    between atoms: N_14  and  C_17
REMARK    7  A    between atoms: C_17  and  C_18
REMARK    8  A    between atoms: C_18  and  C_19
REMARK    9  A    between atoms: C_22  and  N_23
REMARK   10  A    between atoms: C_22  and  C_27
REMARK   11  A    between atoms: C_27  and  C_28
REMARK   12  A    between atoms: C_33  and  O_34
REMARK                            x       y       z     vdW  Elec       q    Type
REMARK                         _______ _______ _______ _____ _____    ______ ____
ROOT
ATOM      1  O   UNL     1     -34.881  22.223   2.219  0.00  0.00    -0.277 OA
ATOM      2  N   UNL     1     -35.773  21.375   4.185  0.00  0.00    -0.300 N 
ATOM      3  C   UNL     1     -35.563  21.389   2.813  0.00  0.00    +0.202 C 
ATOM      4  H   UNL     1     -36.336  20.668   4.574  0.00  0.00    +0.150 HD
ENDROOT
BRANCH   2   5
ATOM      5  C   UNL     1     -35.197  22.363   5.061  0.00  0.00    +0.149 C 
ATOM      6  C   UNL     1     -35.520  22.059   6.515  0.00  0.00    +0.031 C 
BRANCH   5  10
ATOM      7  O   UNL     1     -36.929  24.018   4.697  0.00  0.00    -0.273 OA
ATOM      8  O   UNL     1     -35.975  26.519   3.867  0.00  0.00    -0.277 OA
ATOM      9  N   UNL     1     -34.709  24.607   4.294  0.00  0.00    -0.256 N 
ATOM     10  C   UNL     1     -35.735  23.730   4.657  0.00  0.00    +0.246 C 
ATOM     11  C   UNL     1     -34.892  25.942   3.923  0.00  0.00    +0.207 C 
ATOM     12  H   UNL     1     -33.788  24.258   4.300  0.00  0.00    +0.157 HD
BRANCH  11  13
ATOM     13  C   UNL     1     -33.567  26.601   3.595  0.00  0.00    +0.006 C 
BRANCH  13  14
ATOM     14  N   UNL     1     -33.520  27.920   4.210  0.00  0.00    +0.390 N 
ATOM     15  H   UNL     1     -33.850  28.613   3.537  0.00  0.00    -0.084 HD
ATOM     16  H   UNL     1     -34.117  27.915   5.038  0.00  0.00    -0.084 HD
BRANCH  14  17
ATOM     17  C   UNL     1     -32.163  28.259   4.617  0.00  0.00    -0.081 C 
BRANCH  17  18
ATOM     18  C   UNL     1     -32.032  28.167   6.138  0.00  0.00    -0.023 C 
BRANCH  18  19
ATOM     19  C   UNL     1     -31.499  29.460   6.784  0.00  0.00    -0.002 C 
ATOM     20  C   UNL     1     -31.958  30.717   6.043  0.00  0.00    -0.000 C 
ATOM     21  C   UNL     1     -29.970  29.422   6.837  0.00  0.00    -0.000 C 
ENDBRANCH  18  19
ENDBRANCH  17  18
ENDBRANCH  14  17
ENDBRANCH  13  14
ENDBRANCH  11  13
ENDBRANCH   5  10
ENDBRANCH   2   5
BRANCH   3  22
ATOM     22  C   UNL     1     -36.253  20.229   2.100  0.00  0.00    +0.017 C 
BRANCH  22  23
ATOM     23  N   UNL     1     -37.675  20.565   2.026  0.00  0.00    +0.388 N 
ATOM     24  H   UNL     1     -38.195  19.763   1.668  0.00  0.00    -0.089 HD
ATOM     25  H   UNL     1     -37.804  21.360   1.400  0.00  0.00    -0.089 HD
ATOM     26  H   UNL     1     -38.016  20.804   2.956  0.00  0.00    -0.089 HD
ENDBRANCH  22  23
BRANCH  22  27
ATOM     27  C   UNL     1     -35.685  20.046   0.684  0.00  0.00    +0.013 C 
BRANCH  27  28
ATOM     28  C   UNL     1     -34.642  18.954   0.608  0.00  0.00    -0.024 C 
ATOM     29  C   UNL     1     -33.440  19.089   1.303  0.00  0.00    -0.001 C 
ATOM     30  C   UNL     1     -34.882  17.813  -0.158  0.00  0.00    -0.001 C 
ATOM     31  C   UNL     1     -32.478  18.081   1.232  0.00  0.00    +0.036 C 
ATOM     32  C   UNL     1     -33.920  16.807  -0.228  0.00  0.00    +0.036 C 
ATOM     33  C   UNL     1     -32.718  16.939   0.467  0.00  0.00    +0.134 C 
BRANCH  33  34
ATOM     34  O   UNL     1     -31.778  15.957   0.399  0.00  0.00    -0.506 OA
ATOM     35  H   UNL     1     -32.043  15.059   0.350  0.00  0.00    +0.292 HD
ENDBRANCH  33  34
ENDBRANCH  27  28
ENDBRANCH  22  27
ENDBRANCH   3  22
TORSDOF 12
ENDMDL
MODEL 2
REMARK VINA RESULT:      -6.7      4.027      7.603
REMARK  Name = 5487273
REMARK  12 active torsions:
REMARK  status: ('A' for Active; 'I' for Inactive)
REMARK    1  A    between atoms: N_2  and  C_5
REMARK    2  A    between atoms: C_3  and  C_22
REMARK    3  A    between atoms: C_5  and  C_10
REMARK    4  A    between atoms: C_11  and  C_13
REMARK    5  A    between atoms: C_13  and  N_14
REMARK    6  A    between atoms: N_14  and  C_17
REMARK    7  A    between atoms: C_17  and  C_18
REMARK    8  A    between atoms: C_18  and  C_19
REMARK    9  A    between atoms: C_22  and  N_23
REMARK   10  A    between atoms: C_22  and  C_27
REMARK   11  A    between atoms: C_27  and  C_28
REMARK   12  A    between atoms: C_33  and  O_34
REMARK                            x       y       z     vdW  Elec       q    Type
REMARK                         _______ _______ _______ _____ _____    ______ ____
ROOT
ATOM      1  O   UNL     1     -31.842  27.393   3.951  0.00  0.00    -0.277 OA
ATOM      2  N   UNL     1     -34.041  28.130   4.000  0.00  0.00    -0.300 N 
ATOM      3  C   UNL     1     -32.982  27.329   4.408  0.00  0.00    +0.202 C 
ATOM      4  H   UNL     1     -34.921  28.007   4.423  0.00  0.00    +0.150 HD
ENDROOT
BRANCH   2   5
ATOM      5  C   UNL     1     -33.895  29.135   2.979  0.00  0.00    +0.149 C 
ATOM      6  C   UNL     1     -33.634  30.503   3.592  0.00  0.00    +0.031 C 
BRANCH   5  10
ATOM      7  O   UNL     1     -35.484  30.096   1.422  0.00  0.00    -0.273 OA
ATOM      8  O   UNL     1     -37.617  28.402   0.764  0.00  0.00    -0.277 OA
ATOM      9  N   UNL     1     -35.874  27.950   2.247  0.00  0.00    -0.256 N 
ATOM     10  C   UNL     1     -35.164  29.149   2.138  0.00  0.00    +0.246 C 
ATOM     11  C   UNL     1     -37.052  27.652   1.556  0.00  0.00    +0.207 C 
ATOM     12  H   UNL     1     -35.518  27.264   2.856  0.00  0.00    +0.157 HD
BRANCH  11  13
ATOM     13  C   UNL     1     -37.553  26.265   1.908  0.00  0.00    +0.006 C 
BRANCH  13  14
ATOM     14  N   UNL     1     -37.924  26.231   3.315  0.00  0.00    +0.390 N 
ATOM     15  H   UNL     1     -37.083  26.326   3.885  0.00  0.00    -0.084 HD
ATOM     16  H   UNL     1     -38.569  27.000   3.500  0.00  0.00    -0.084 HD
BRANCH  14  17
ATOM     17  C   UNL     1     -38.588  24.978   3.649  0.00  0.00    -0.081 C 
BRANCH  17  18
ATOM     18  C   UNL     1     -39.831  24.791   2.778  0.00  0.00    -0.023 C 
BRANCH  18  19
ATOM     19  C   UNL     1     -39.949  23.379   2.176  0.00  0.00    -0.002 C 
ATOM     20  C   UNL     1     -38.632  22.604   2.236  0.00  0.00    -0.000 C 
ATOM     21  C   UNL     1     -40.427  23.471   0.724  0.00  0.00    -0.000 C 
ENDBRANCH  18  19
ENDBRANCH  17  18
ENDBRANCH  14  17
ENDBRANCH  13  14
ENDBRANCH  11  13
ENDBRANCH   5  10
ENDBRANCH   2   5
BRANCH   3  22
ATOM     22  C   UNL     1     -33.373  26.357   5.519  0.00  0.00    +0.017 C 
BRANCH  22  23
ATOM     23  N   UNL     1     -33.131  27.047   6.786  0.00  0.00    +0.388 N 
ATOM     24  H   UNL     1     -32.977  26.359   7.523  0.00  0.00    -0.089 HD
ATOM     25  H   UNL     1     -33.941  27.620   7.021  0.00  0.00    -0.089 HD
ATOM     26  H   UNL     1     -32.308  27.641   6.697  0.00  0.00    -0.089 HD
ENDBRANCH  22  23
BRANCH  22  27
ATOM     27  C   UNL     1     -34.855  25.972   5.407  0.00  0.00    +0.013 C 
BRANCH  27  28
ATOM     28  C   UNL     1     -35.057  24.544   4.957  0.00  0.00    -0.024 C 
ATOM     29  C   UNL     1     -34.973  24.221   3.602  0.00  0.00    -0.001 C 
ATOM     30  C   UNL     1     -35.329  23.548   5.896  0.00  0.00    -0.001 C 
ATOM     31  C   UNL     1     -35.160  22.902   3.188  0.00  0.00    +0.036 C 
ATOM     32  C   UNL     1     -35.515  22.231   5.481  0.00  0.00    +0.036 C 
ATOM     33  C   UNL     1     -35.430  21.906   4.127  0.00  0.00    +0.134 C 
BRANCH  33  34
ATOM     34  O   UNL     1     -35.612  20.620   3.721  0.00  0.00    -0.506 OA
ATOM     35  H   UNL     1     -35.021  20.235   3.104  0.00  0.00    +0.292 HD
ENDBRANCH  33  34
ENDBRANCH  27  28
ENDBRANCH  22  27
ENDBRANCH   3  22
TORSDOF 12
ENDMDL
MODEL 3
REMARK VINA RESULT:      -6.7      2.748      8.879
REMARK  Name = 5487273
REMARK  12 active torsions:
REMARK  status: ('A' for Active; 'I' for Inactive)
REMARK    1  A    between atoms: N_2  and  C_5
REMARK    2  A    between atoms: C_3  and  C_22
REMARK    3  A    between atoms: C_5  and  C_10
REMARK    4  A    between atoms: C_11  and  C_13
REMARK    5  A    between atoms: C_13  and  N_14
REMARK    6  A    between atoms: N_14  and  C_17
REMARK    7  A    between atoms: C_17  and  C_18
REMARK    8  A    between atoms: C_18  and  C_19
REMARK    9  A    between atoms: C_22  and  N_23
REMARK   10  A    between atoms: C_22  and  C_27
REMARK   11  A    between atoms: C_27  and  C_28
REMARK   12  A    between atoms: C_33  and  O_34
REMARK                            x       y       z     vdW  Elec       q    Type
REMARK                         _______ _______ _______ _____ _____    ______ ____
ROOT
ATOM      1  O   UNL     1     -36.922  26.482   2.776  0.00  0.00    -0.277 OA
ATOM      2  N   UNL     1     -38.196  24.848   3.819  0.00  0.00    -0.300 N 
ATOM      3  C   UNL     1     -37.067  25.642   3.663  0.00  0.00    +0.202 C 
ATOM      4  H   UNL     1     -38.224  24.201   4.560  0.00  0.00    +0.150 HD
ENDROOT
BRANCH   2   5
ATOM      5  C   UNL     1     -39.327  24.939   2.932  0.00  0.00    +0.149 C 
ATOM      6  C   UNL     1     -40.582  25.348   3.687  0.00  0.00    +0.031 C 
BRANCH   5  10
ATOM      7  O   UNL     1     -40.546  23.267   1.670  0.00  0.00    -0.273 OA
ATOM      8  O   UNL     1     -39.086  20.935   1.141  0.00  0.00    -0.277 OA
ATOM      9  N   UNL     1     -38.368  22.793   2.353  0.00  0.00    -0.256 N 
ATOM     10  C   UNL     1     -39.515  23.586   2.259  0.00  0.00    +0.246 C 
ATOM     11  C   UNL     1     -38.225  21.522   1.790  0.00  0.00    +0.207 C 
ATOM     12  H   UNL     1     -37.602  23.158   2.854  0.00  0.00    +0.157 HD
BRANCH  11  13
ATOM     13  C   UNL     1     -36.853  20.948   2.084  0.00  0.00    +0.006 C 
BRANCH  13  14
ATOM     14  N   UNL     1     -36.760  19.609   1.521  0.00  0.00    +0.390 N 
ATOM     15  H   UNL     1     -36.794  18.926   2.278  0.00  0.00    -0.084 HD
ATOM     16  H   UNL     1     -37.543  19.471   0.881  0.00  0.00    -0.084 HD
BRANCH  14  17
ATOM     17  C   UNL     1     -35.518  19.439   0.779  0.00  0.00    -0.081 C 
BRANCH  17  18
ATOM     18  C   UNL     1     -34.319  19.687   1.696  0.00  0.00    -0.023 C 
BRANCH  18  19
ATOM     19  C   UNL     1     -33.074  18.867   1.309  0.00  0.00    -0.002 C 
ATOM     20  C   UNL     1     -32.080  19.672   0.469  0.00  0.00    -0.000 C 
ATOM     21  C   UNL     1     -33.497  17.611   0.543  0.00  0.00    -0.000 C 
ENDBRANCH  18  19
ENDBRANCH  17  18
ENDBRANCH  14  17
ENDBRANCH  13  14
ENDBRANCH  11  13
ENDBRANCH   5  10
ENDBRANCH   2   5
BRANCH   3  22
ATOM     22  C   UNL     1     -36.014  25.385   4.737  0.00  0.00    +0.017 C 
BRANCH  22  23
ATOM     23  N   UNL     1     -36.239  24.027   5.233  0.00  0.00    +0.388 N 
ATOM     24  H   UNL     1     -37.226  23.907   5.457  0.00  0.00    -0.089 HD
ATOM     25  H   UNL     1     -35.678  23.874   6.071  0.00  0.00    -0.089 HD
ATOM     26  H   UNL     1     -35.968  23.355   4.515  0.00  0.00    -0.089 HD
ENDBRANCH  22  23
BRANCH  22  27
ATOM     27  C   UNL     1     -34.599  25.500   4.149  0.00  0.00    +0.013 C 
BRANCH  27  28
ATOM     28  C   UNL     1     -33.712  26.436   4.937  0.00  0.00    -0.024 C 
ATOM     29  C   UNL     1     -33.606  26.297   6.321  0.00  0.00    -0.001 C 
ATOM     30  C   UNL     1     -32.999  27.439   4.280  0.00  0.00    -0.001 C 
ATOM     31  C   UNL     1     -32.786  27.161   7.047  0.00  0.00    +0.036 C 
ATOM     32  C   UNL     1     -32.180  28.302   5.006  0.00  0.00    +0.036 C 
ATOM     33  C   UNL     1     -32.073  28.164   6.390  0.00  0.00    +0.134 C 
BRANCH  33  34
ATOM     34  O   UNL     1     -31.273  29.007   7.100  0.00  0.00    -0.506 OA
ATOM     35  H   UNL     1     -31.635  29.521   7.794  0.00  0.00    +0.292 HD
ENDBRANCH  33  34
ENDBRANCH  27  28
ENDBRANCH  22  27
ENDBRANCH   3  22
TORSDOF 12
ENDMDL
MODEL 4
REMARK VINA RESULT:      -6.6      4.038      7.672
REMARK  Name = 5487273
REMARK  12 active torsions:
REMARK  status: ('A' for Active; 'I' for Inactive)
REMARK    1  A    between atoms: N_2  and  C_5
REMARK    2  A    between atoms: C_3  and  C_22
REMARK    3  A    between atoms: C_5  and  C_10
REMARK    4  A    between atoms: C_11  and  C_13
REMARK    5  A    between atoms: C_13  and  N_14
REMARK    6  A    between atoms: N_14  and  C_17
REMARK    7  A    between atoms: C_17  and  C_18
REMARK    8  A    between atoms: C_18  and  C_19
REMARK    9  A    between atoms: C_22  and  N_23
REMARK   10  A    between atoms: C_22  and  C_27
REMARK   11  A    between atoms: C_27  and  C_28
REMARK   12  A    between atoms: C_33  and  O_34
REMARK                            x       y       z     vdW  Elec       q    Type
REMARK                         _______ _______ _______ _____ _____    ______ ____
ROOT
ATOM      1  O   UNL     1     -32.078  27.357   3.844  0.00  0.00    -0.277 OA
ATOM      2  N   UNL     1     -34.347  27.835   3.878  0.00  0.00    -0.300 N 
ATOM      3  C   UNL     1     -33.196  27.206   4.334  0.00  0.00    +0.202 C 
ATOM      4  H   UNL     1     -35.201  27.654   4.333  0.00  0.00    +0.150 HD
ENDROOT
BRANCH   2   5
ATOM      5  C   UNL     1     -34.335  28.743   2.761  0.00  0.00    +0.149 C 
ATOM      6  C   UNL     1     -34.070  30.169   3.218  0.00  0.00    +0.031 C 
BRANCH   5  10
ATOM      7  O   UNL     1     -36.125  29.533   1.329  0.00  0.00    -0.273 OA
ATOM      8  O   UNL     1     -38.196  27.684   0.953  0.00  0.00    -0.277 OA
ATOM      9  N   UNL     1     -36.295  27.407   2.274  0.00  0.00    -0.256 N 
ATOM     10  C   UNL     1     -35.677  28.641   2.048  0.00  0.00    +0.246 C 
ATOM     11  C   UNL     1     -37.511  27.007   1.714  0.00  0.00    +0.207 C 
ATOM     12  H   UNL     1     -35.838  26.773   2.872  0.00  0.00    +0.157 HD
BRANCH  11  13
ATOM     13  C   UNL     1     -37.885  25.610   2.169  0.00  0.00    +0.006 C 
BRANCH  13  14
ATOM     14  N   UNL     1     -38.594  25.690   3.438  0.00  0.00    +0.390 N 
ATOM     15  H   UNL     1     -38.052  25.207   4.154  0.00  0.00    -0.084 HD
ATOM     16  H   UNL     1     -38.711  26.674   3.683  0.00  0.00    -0.084 HD
BRANCH  14  17
ATOM     17  C   UNL     1     -39.911  25.076   3.339  0.00  0.00    -0.081 C 
BRANCH  17  18
ATOM     18  C   UNL     1     -40.990  26.156   3.239  0.00  0.00    -0.023 C 
BRANCH  18  19
ATOM     19  C   UNL     1     -41.870  26.025   1.982  0.00  0.00    -0.002 C 
ATOM     20  C   UNL     1     -41.533  24.782   1.157  0.00  0.00    -0.000 C 
ATOM     21  C   UNL     1     -41.721  27.276   1.112  0.00  0.00    -0.000 C 
ENDBRANCH  18  19
ENDBRANCH  17  18
ENDBRANCH  14  17
ENDBRANCH  13  14
ENDBRANCH  11  13
ENDBRANCH   5  10
ENDBRANCH   2   5
BRANCH   3  22
ATOM     22  C   UNL     1     -33.453  26.312   5.545  0.00  0.00    +0.017 C 
BRANCH  22  23
ATOM     23  N   UNL     1     -33.141  27.109   6.731  0.00  0.00    +0.388 N 
ATOM     24  H   UNL     1     -32.842  26.490   7.485  0.00  0.00    -0.089 HD
ATOM     25  H   UNL     1     -33.971  27.624   7.023  0.00  0.00    -0.089 HD
ATOM     26  H   UNL     1     -32.392  27.765   6.512  0.00  0.00    -0.089 HD
ENDBRANCH  22  23
BRANCH  22  27
ATOM     27  C   UNL     1     -34.922  25.865   5.587  0.00  0.00    +0.013 C 
BRANCH  27  28
ATOM     28  C   UNL     1     -35.116  24.445   5.109  0.00  0.00    -0.024 C 
ATOM     29  C   UNL     1     -35.280  23.414   6.034  0.00  0.00    -0.001 C 
ATOM     30  C   UNL     1     -35.132  24.165   3.742  0.00  0.00    -0.001 C 
ATOM     31  C   UNL     1     -35.458  22.103   5.592  0.00  0.00    +0.036 C 
ATOM     32  C   UNL     1     -35.311  22.855   3.301  0.00  0.00    +0.036 C 
ATOM     33  C   UNL     1     -35.474  21.823   4.225  0.00  0.00    +0.134 C 
BRANCH  33  34
ATOM     34  O   UNL     1     -35.649  20.544   3.795  0.00  0.00    -0.506 OA
ATOM     35  H   UNL     1     -34.952  19.922   3.878  0.00  0.00    +0.292 HD
ENDBRANCH  33  34
ENDBRANCH  27  28
ENDBRANCH  22  27
ENDBRANCH   3  22
TORSDOF 12
ENDMDL
MODEL 5
REMARK VINA RESULT:      -6.6      1.276      1.697
REMARK  Name = 5487273
REMARK  12 active torsions:
REMARK  status: ('A' for Active; 'I' for Inactive)
REMARK    1  A    between atoms: N_2  and  C_5
REMARK    2  A    between atoms: C_3  and  C_22
REMARK    3  A    between atoms: C_5  and  C_10
REMARK    4  A    between atoms: C_11  and  C_13
REMARK    5  A    between atoms: C_13  and  N_14
REMARK    6  A    between atoms: N_14  and  C_17
REMARK    7  A    between atoms: C_17  and  C_18
REMARK    8  A    between atoms: C_18  and  C_19
REMARK    9  A    between atoms: C_22  and  N_23
REMARK   10  A    between atoms: C_22  and  C_27
REMARK   11  A    between atoms: C_27  and  C_28
REMARK   12  A    between atoms: C_33  and  O_34
REMARK                            x       y       z     vdW  Elec       q    Type
REMARK                         _______ _______ _______ _____ _____    ______ ____
ROOT
ATOM      1  O   UNL     1     -34.851  22.326   1.905  0.00  0.00    -0.277 OA
ATOM      2  N   UNL     1     -35.533  21.515   3.968  0.00  0.00    -0.300 N 
ATOM      3  C   UNL     1     -35.277  21.410   2.607  0.00  0.00    +0.202 C 
ATOM      4  H   UNL     1     -35.874  20.727   4.450  0.00  0.00    +0.150 HD
ENDROOT
BRANCH   2   5
ATOM      5  C   UNL     1     -35.319  22.737   4.699  0.00  0.00    +0.149 C 
ATOM      6  C   UNL     1     -35.600  22.545   6.181  0.00  0.00    +0.031 C 
BRANCH   5  10
ATOM      7  O   UNL     1     -37.450  23.719   4.091  0.00  0.00    -0.273 OA
ATOM      8  O   UNL     1     -37.256  26.270   2.947  0.00  0.00    -0.277 OA
ATOM      9  N   UNL     1     -35.495  24.910   3.646  0.00  0.00    -0.256 N 
ATOM     10  C   UNL     1     -36.224  23.811   4.108  0.00  0.00    +0.246 C 
ATOM     11  C   UNL     1     -36.054  26.067   3.096  0.00  0.00    +0.207 C 
ATOM     12  H   UNL     1     -34.514  24.866   3.712  0.00  0.00    +0.157 HD
BRANCH  11  13
ATOM     13  C   UNL     1     -34.976  27.058   2.703  0.00  0.00    +0.006 C 
BRANCH  13  14
ATOM     14  N   UNL     1     -34.455  27.703   3.899  0.00  0.00    +0.390 N 
ATOM     15  H   UNL     1     -34.748  28.680   3.906  0.00  0.00    -0.084 HD
ATOM     16  H   UNL     1     -34.820  27.214   4.717  0.00  0.00    -0.084 HD
BRANCH  14  17
ATOM     17  C   UNL     1     -33.000  27.641   3.933  0.00  0.00    -0.081 C 
BRANCH  17  18
ATOM     18  C   UNL     1     -32.443  28.794   4.771  0.00  0.00    -0.023 C 
BRANCH  18  19
ATOM     19  C   UNL     1     -31.770  28.331   6.076  0.00  0.00    -0.002 C 
ATOM     20  C   UNL     1     -32.610  27.304   6.837  0.00  0.00    -0.000 C 
ATOM     21  C   UNL     1     -31.494  29.539   6.975  0.00  0.00    -0.000 C 
ENDBRANCH  18  19
ENDBRANCH  17  18
ENDBRANCH  14  17
ENDBRANCH  13  14
ENDBRANCH  11  13
ENDBRANCH   5  10
ENDBRANCH   2   5
BRANCH   3  22
ATOM     22  C   UNL     1     -35.555  20.012   2.061  0.00  0.00    +0.017 C 
BRANCH  22  23
ATOM     23  N   UNL     1     -37.007  19.839   2.064  0.00  0.00    +0.388 N 
ATOM     24  H   UNL     1     -37.351  19.843   1.103  0.00  0.00    -0.089 HD
ATOM     25  H   UNL     1     -37.440  20.604   2.582  0.00  0.00    -0.089 HD
ATOM     26  H   UNL     1     -37.243  18.952   2.506  0.00  0.00    -0.089 HD
ENDBRANCH  22  23
BRANCH  22  27
ATOM     27  C   UNL     1     -35.013  19.870   0.631  0.00  0.00    +0.013 C 
BRANCH  27  28
ATOM     28  C   UNL     1     -33.556  19.473   0.593  0.00  0.00    -0.024 C 
ATOM     29  C   UNL     1     -32.638  20.254  -0.109  0.00  0.00    -0.001 C 
ATOM     30  C   UNL     1     -33.128  18.324   1.260  0.00  0.00    -0.001 C 
ATOM     31  C   UNL     1     -31.293  19.886  -0.144  0.00  0.00    +0.036 C 
ATOM     32  C   UNL     1     -31.784  17.958   1.225  0.00  0.00    +0.036 C 
ATOM     33  C   UNL     1     -30.865  18.738   0.524  0.00  0.00    +0.134 C 
BRANCH  33  34
ATOM     34  O   UNL     1     -29.552  18.380   0.489  0.00  0.00    -0.506 OA
ATOM     35  H   UNL     1     -29.176  18.055  -0.305  0.00  0.00    +0.292 HD
ENDBRANCH  33  34
ENDBRANCH  27  28
ENDBRANCH  22  27
ENDBRANCH   3  22
TORSDOF 12
ENDMDL
MODEL 6
REMARK VINA RESULT:      -6.6      3.850      7.913
REMARK  Name = 5487273
REMARK  12 active torsions:
REMARK  status: ('A' for Active; 'I' for Inactive)
REMARK    1  A    between atoms: N_2  and  C_5
REMARK    2  A    between atoms: C_3  and  C_22
REMARK    3  A    between atoms: C_5  and  C_10
REMARK    4  A    between atoms: C_11  and  C_13
REMARK    5  A    between atoms: C_13  and  N_14
REMARK    6  A    between atoms: N_14  and  C_17
REMARK    7  A    between atoms: C_17  and  C_18
REMARK    8  A    between atoms: C_18  and  C_19
REMARK    9  A    between atoms: C_22  and  N_23
REMARK   10  A    between atoms: C_22  and  C_27
REMARK   11  A    between atoms: C_27  and  C_28
REMARK   12  A    between atoms: C_33  and  O_34
REMARK                            x       y       z     vdW  Elec       q    Type
REMARK                         _______ _______ _______ _____ _____    ______ ____
ROOT
ATOM      1  O   UNL     1     -37.919  27.444   1.407  0.00  0.00    -0.277 OA
ATOM      2  N   UNL     1     -38.570  25.399   2.285  0.00  0.00    -0.300 N 
ATOM      3  C   UNL     1     -37.656  26.410   2.020  0.00  0.00    +0.202 C 
ATOM      4  H   UNL     1     -38.270  24.605   2.784  0.00  0.00    +0.150 HD
ENDROOT
BRANCH   2   5
ATOM      5  C   UNL     1     -39.943  25.471   1.855  0.00  0.00    +0.149 C 
ATOM      6  C   UNL     1     -40.821  26.089   2.932  0.00  0.00    +0.031 C 
BRANCH   5  10
ATOM      7  O   UNL     1     -41.564  23.801   1.179  0.00  0.00    -0.273 OA
ATOM      8  O   UNL     1     -40.511  21.219   0.909  0.00  0.00    -0.277 OA
ATOM      9  N   UNL     1     -39.365  23.136   1.579  0.00  0.00    -0.256 N 
ATOM     10  C   UNL     1     -40.410  24.062   1.513  0.00  0.00    +0.246 C 
ATOM     11  C   UNL     1     -39.480  21.777   1.274  0.00  0.00    +0.207 C 
ATOM     12  H   UNL     1     -38.482  23.466   1.862  0.00  0.00    +0.157 HD
BRANCH  11  13
ATOM     13  C   UNL     1     -38.153  21.066   1.450  0.00  0.00    +0.006 C 
BRANCH  13  14
ATOM     14  N   UNL     1     -38.080  19.946   0.524  0.00  0.00    +0.390 N 
ATOM     15  H   UNL     1     -38.763  19.240   0.800  0.00  0.00    -0.084 HD
ATOM     16  H   UNL     1     -38.281  20.288  -0.417  0.00  0.00    -0.084 HD
BRANCH  14  17
ATOM     17  C   UNL     1     -36.750  19.351   0.527  0.00  0.00    -0.081 C 
BRANCH  17  18
ATOM     18  C   UNL     1     -35.805  20.168  -0.356  0.00  0.00    -0.023 C 
BRANCH  18  19
ATOM     19  C   UNL     1     -34.447  20.459   0.309  0.00  0.00    -0.002 C 
ATOM     20  C   UNL     1     -34.242  19.663   1.599  0.00  0.00    -0.000 C 
ATOM     21  C   UNL     1     -34.324  21.957   0.604  0.00  0.00    -0.000 C 
ENDBRANCH  18  19
ENDBRANCH  17  18
ENDBRANCH  14  17
ENDBRANCH  13  14
ENDBRANCH  11  13
ENDBRANCH   5  10
ENDBRANCH   2   5
BRANCH   3  22
ATOM     22  C   UNL     1     -36.273  26.122   2.597  0.00  0.00    +0.017 C 
BRANCH  22  23
ATOM     23  N   UNL     1     -35.449  27.299   2.326  0.00  0.00    +0.388 N 
ATOM     24  H   UNL     1     -34.910  27.535   3.159  0.00  0.00    -0.089 HD
ATOM     25  H   UNL     1     -36.049  28.084   2.076  0.00  0.00    -0.089 HD
ATOM     26  H   UNL     1     -34.813  27.098   1.555  0.00  0.00    -0.089 HD
ENDBRANCH  22  23
BRANCH  22  27
ATOM     27  C   UNL     1     -36.357  25.879   4.112  0.00  0.00    +0.013 C 
BRANCH  27  28
ATOM     28  C   UNL     1     -36.002  24.462   4.498  0.00  0.00    -0.024 C 
ATOM     29  C   UNL     1     -36.104  23.436   3.558  0.00  0.00    -0.001 C 
ATOM     30  C   UNL     1     -35.572  24.180   5.795  0.00  0.00    -0.001 C 
ATOM     31  C   UNL     1     -35.777  22.128   3.916  0.00  0.00    +0.036 C 
ATOM     32  C   UNL     1     -35.244  22.873   6.152  0.00  0.00    +0.036 C 
ATOM     33  C   UNL     1     -35.346  21.846   5.213  0.00  0.00    +0.134 C 
BRANCH  33  34
ATOM     34  O   UNL     1     -35.027  20.569   5.561  0.00  0.00    -0.506 OA
ATOM     35  H   UNL     1     -34.950  20.336   6.465  0.00  0.00    +0.292 HD
ENDBRANCH  33  34
ENDBRANCH  27  28
ENDBRANCH  22  27
ENDBRANCH   3  22
TORSDOF 12
ENDMDL
MODEL 7
REMARK VINA RESULT:      -6.5      2.873      4.972
REMARK  Name = 5487273
REMARK  12 active torsions:
REMARK  status: ('A' for Active; 'I' for Inactive)
REMARK    1  A    between atoms: N_2  and  C_5
REMARK    2  A    between atoms: C_3  and  C_22
REMARK    3  A    between atoms: C_5  and  C_10
REMARK    4  A    between atoms: C_11  and  C_13
REMARK    5  A    between atoms: C_13  and  N_14
REMARK    6  A    between atoms: N_14  and  C_17
REMARK    7  A    between atoms: C_17  and  C_18
REMARK    8  A    between atoms: C_18  and  C_19
REMARK    9  A    between atoms: C_22  and  N_23
REMARK   10  A    between atoms: C_22  and  C_27
REMARK   11  A    between atoms: C_27  and  C_28
REMARK   12  A    between atoms: C_33  and  O_34
REMARK                            x       y       z     vdW  Elec       q    Type
REMARK                         _______ _______ _______ _____ _____    ______ ____
ROOT
ATOM      1  O   UNL     1     -35.035  22.634   2.071  0.00  0.00    -0.277 OA
ATOM      2  N   UNL     1     -36.127  21.909   3.984  0.00  0.00    -0.300 N 
ATOM      3  C   UNL     1     -35.955  22.021   2.611  0.00  0.00    +0.202 C 
ATOM      4  H   UNL     1     -36.895  21.398   4.328  0.00  0.00    +0.150 HD
ENDROOT
BRANCH   2   5
ATOM      5  C   UNL     1     -35.221  22.517   4.924  0.00  0.00    +0.149 C 
ATOM      6  C   UNL     1     -35.329  21.860   6.291  0.00  0.00    +0.031 C 
BRANCH   5  10
ATOM      7  O   UNL     1     -36.555  24.439   5.560  0.00  0.00    -0.273 OA
ATOM      8  O   UNL     1     -35.417  26.906   4.873  0.00  0.00    -0.277 OA
ATOM      9  N   UNL     1     -34.544  24.789   4.433  0.00  0.00    -0.256 N 
ATOM     10  C   UNL     1     -35.546  24.003   5.008  0.00  0.00    +0.246 C 
ATOM     11  C   UNL     1     -34.541  26.186   4.401  0.00  0.00    +0.207 C 
ATOM     12  H   UNL     1     -33.782  24.323   4.018  0.00  0.00    +0.157 HD
BRANCH  11  13
ATOM     13  C   UNL     1     -33.303  26.712   3.703  0.00  0.00    +0.006 C 
BRANCH  13  14
ATOM     14  N   UNL     1     -33.211  28.151   3.904  0.00  0.00    +0.390 N 
ATOM     15  H   UNL     1     -33.355  28.622   3.011  0.00  0.00    -0.084 HD
ATOM     16  H   UNL     1     -33.927  28.431   4.575  0.00  0.00    -0.084 HD
BRANCH  14  17
ATOM     17  C   UNL     1     -31.906  28.521   4.435  0.00  0.00    -0.081 C 
BRANCH  17  18
ATOM     18  C   UNL     1     -31.854  28.254   5.940  0.00  0.00    -0.023 C 
BRANCH  18  19
ATOM     19  C   UNL     1     -31.452  29.490   6.766  0.00  0.00    -0.002 C 
ATOM     20  C   UNL     1     -31.915  30.800   6.125  0.00  0.00    -0.000 C 
ATOM     21  C   UNL     1     -29.933  29.517   6.954  0.00  0.00    -0.000 C 
ENDBRANCH  18  19
ENDBRANCH  17  18
ENDBRANCH  14  17
ENDBRANCH  13  14
ENDBRANCH  11  13
ENDBRANCH   5  10
ENDBRANCH   2   5
BRANCH   3  22
ATOM     22  C   UNL     1     -37.025  21.273   1.820  0.00  0.00    +0.017 C 
BRANCH  22  23
ATOM     23  N   UNL     1     -36.939  19.868   2.220  0.00  0.00    +0.388 N 
ATOM     24  H   UNL     1     -36.068  19.712   2.727  0.00  0.00    -0.089 HD
ATOM     25  H   UNL     1     -36.961  19.276   1.390  0.00  0.00    -0.089 HD
ATOM     26  H   UNL     1     -37.729  19.638   2.823  0.00  0.00    -0.089 HD
ENDBRANCH  22  23
BRANCH  22  27
ATOM     27  C   UNL     1     -38.423  21.823   2.140  0.00  0.00    +0.013 C 
BRANCH  27  28
ATOM     28  C   UNL     1     -38.545  23.304   1.867  0.00  0.00    -0.024 C 
ATOM     29  C   UNL     1     -38.321  23.797   0.581  0.00  0.00    -0.001 C 
ATOM     30  C   UNL     1     -38.883  24.179   2.900  0.00  0.00    -0.001 C 
ATOM     31  C   UNL     1     -38.434  25.164   0.329  0.00  0.00    +0.036 C 
ATOM     32  C   UNL     1     -38.996  25.545   2.647  0.00  0.00    +0.036 C 
ATOM     33  C   UNL     1     -38.772  26.039   1.362  0.00  0.00    +0.134 C 
BRANCH  33  34
ATOM     34  O   UNL     1     -38.883  27.373   1.115  0.00  0.00    -0.506 OA
ATOM     35  H   UNL     1     -38.148  27.850   0.784  0.00  0.00    +0.292 HD
ENDBRANCH  33  34
ENDBRANCH  27  28
ENDBRANCH  22  27
ENDBRANCH   3  22
TORSDOF 12
ENDMDL
MODEL 8
REMARK VINA RESULT:      -6.4      4.021      7.411
REMARK  Name = 5487273
REMARK  12 active torsions:
REMARK  status: ('A' for Active; 'I' for Inactive)
REMARK    1  A    between atoms: N_2  and  C_5
REMARK    2  A    between atoms: C_3  and  C_22
REMARK    3  A    between atoms: C_5  and  C_10
REMARK    4  A    between atoms: C_11  and  C_13
REMARK    5  A    between atoms: C_13  and  N_14
REMARK    6  A    between atoms: N_14  and  C_17
REMARK    7  A    between atoms: C_17  and  C_18
REMARK    8  A    between atoms: C_18  and  C_19
REMARK    9  A    between atoms: C_22  and  N_23
REMARK   10  A    between atoms: C_22  and  C_27
REMARK   11  A    between atoms: C_27  and  C_28
REMARK   12  A    between atoms: C_33  and  O_34
REMARK                            x       y       z     vdW  Elec       q    Type
REMARK                         _______ _______ _______ _____ _____    ______ ____
ROOT
ATOM      1  O   UNL     1     -32.689  26.921   3.274  0.00  0.00    -0.277 OA
ATOM      2  N   UNL     1     -32.930  28.619   4.835  0.00  0.00    -0.300 N 
ATOM      3  C   UNL     1     -32.971  27.298   4.411  0.00  0.00    +0.202 C 
ATOM      4  H   UNL     1     -33.174  28.828   5.765  0.00  0.00    +0.150 HD
ENDROOT
BRANCH   2   5
ATOM      5  C   UNL     1     -32.544  29.696   3.960  0.00  0.00    +0.149 C 
ATOM      6  C   UNL     1     -31.749  30.753   4.711  0.00  0.00    +0.031 C 
BRANCH   5  10
ATOM      7  O   UNL     1     -34.086  31.489   3.429  0.00  0.00    -0.273 OA
ATOM      8  O   UNL     1     -36.278  30.698   1.873  0.00  0.00    -0.277 OA
ATOM      9  N   UNL     1     -34.563  29.335   2.673  0.00  0.00    -0.256 N 
ATOM     10  C   UNL     1     -33.807  30.294   3.353  0.00  0.00    +0.246 C 
ATOM     11  C   UNL     1     -35.747  29.596   1.978  0.00  0.00    +0.207 C 
ATOM     12  H   UNL     1     -34.237  28.406   2.685  0.00  0.00    +0.157 HD
BRANCH  11  13
ATOM     13  C   UNL     1     -36.303  28.329   1.357  0.00  0.00    +0.006 C 
BRANCH  13  14
ATOM     14  N   UNL     1     -36.407  27.298   2.380  0.00  0.00    +0.390 N 
ATOM     15  H   UNL     1     -35.505  26.831   2.477  0.00  0.00    -0.084 HD
ATOM     16  H   UNL     1     -36.678  27.739   3.259  0.00  0.00    -0.084 HD
BRANCH  14  17
ATOM     17  C   UNL     1     -37.419  26.312   2.024  0.00  0.00    -0.081 C 
BRANCH  17  18
ATOM     18  C   UNL     1     -38.190  25.875   3.271  0.00  0.00    -0.023 C 
BRANCH  18  19
ATOM     19  C   UNL     1     -39.155  24.703   3.013  0.00  0.00    -0.002 C 
ATOM     20  C   UNL     1     -38.598  23.696   2.005  0.00  0.00    -0.000 C 
ATOM     21  C   UNL     1     -40.501  25.239   2.515  0.00  0.00    -0.000 C 
ENDBRANCH  18  19
ENDBRANCH  17  18
ENDBRANCH  14  17
ENDBRANCH  13  14
ENDBRANCH  11  13
ENDBRANCH   5  10
ENDBRANCH   2   5
BRANCH   3  22
ATOM     22  C   UNL     1     -33.383  26.335   5.521  0.00  0.00    +0.017 C 
BRANCH  22  23
ATOM     23  N   UNL     1     -33.145  27.026   6.788  0.00  0.00    +0.388 N 
ATOM     24  H   UNL     1     -33.089  26.342   7.542  0.00  0.00    -0.089 HD
ATOM     25  H   UNL     1     -33.912  27.672   6.972  0.00  0.00    -0.089 HD
ATOM     26  H   UNL     1     -32.269  27.544   6.733  0.00  0.00    -0.089 HD
ENDBRANCH  22  23
BRANCH  22  27
ATOM     27  C   UNL     1     -34.869  25.966   5.397  0.00  0.00    +0.013 C 
BRANCH  27  28
ATOM     28  C   UNL     1     -35.083  24.536   4.957  0.00  0.00    -0.024 C 
ATOM     29  C   UNL     1     -34.998  24.203   3.605  0.00  0.00    -0.001 C 
ATOM     30  C   UNL     1     -35.366  23.550   5.903  0.00  0.00    -0.001 C 
ATOM     31  C   UNL     1     -35.196  22.882   3.200  0.00  0.00    +0.036 C 
ATOM     32  C   UNL     1     -35.563  22.232   5.497  0.00  0.00    +0.036 C 
ATOM     33  C   UNL     1     -35.478  21.897   4.146  0.00  0.00    +0.134 C 
BRANCH  33  34
ATOM     34  O   UNL     1     -35.671  20.609   3.749  0.00  0.00    -0.506 OA
ATOM     35  H   UNL     1     -35.033  19.954   3.956  0.00  0.00    +0.292 HD
ENDBRANCH  33  34
ENDBRANCH  27  28
ENDBRANCH  22  27
ENDBRANCH   3  22
TORSDOF 12
ENDMDL
MODEL 9
REMARK VINA RESULT:      -6.4      2.713      6.440
REMARK  Name = 5487273
REMARK  12 active torsions:
REMARK  status: ('A' for Active; 'I' for Inactive)
REMARK    1  A    between atoms: N_2  and  C_5
REMARK    2  A    between atoms: C_3  and  C_22
REMARK    3  A    between atoms: C_5  and  C_10
REMARK    4  A    between atoms: C_11  and  C_13
REMARK    5  A    between atoms: C_13  and  N_14
REMARK    6  A    between atoms: N_14  and  C_17
REMARK    7  A    between atoms: C_17  and  C_18
REMARK    8  A    between atoms: C_18  and  C_19
REMARK    9  A    between atoms: C_22  and  N_23
REMARK   10  A    between atoms: C_22  and  C_27
REMARK   11  A    between atoms: C_27  and  C_28
REMARK   12  A    between atoms: C_33  and  O_34
REMARK                            x       y       z     vdW  Elec       q    Type
REMARK                         _______ _______ _______ _____ _____    ______ ____
ROOT
ATOM      1  O   UNL     1     -35.817  20.314  -0.212  0.00  0.00    -0.277 OA
ATOM      2  N   UNL     1     -34.227  20.044   1.455  0.00  0.00    -0.300 N 
ATOM      3  C   UNL     1     -35.443  20.483   0.948  0.00  0.00    +0.202 C 
ATOM      4  H   UNL     1     -34.012  20.225   2.398  0.00  0.00    +0.150 HD
ENDROOT
BRANCH   2   5
ATOM      5  C   UNL     1     -33.269  19.335   0.647  0.00  0.00    +0.149 C 
ATOM      6  C   UNL     1     -32.609  18.216   1.438  0.00  0.00    +0.031 C 
BRANCH   5  10
ATOM      7  O   UNL     1     -31.063  20.030  -0.077  0.00  0.00    -0.273 OA
ATOM      8  O   UNL     1     -30.906  22.712  -0.875  0.00  0.00    -0.277 OA
ATOM      9  N   UNL     1     -32.786  21.600  -0.059  0.00  0.00    -0.256 N 
ATOM     10  C   UNL     1     -32.232  20.334   0.149  0.00  0.00    +0.246 C 
ATOM     11  C   UNL     1     -32.092  22.706  -0.557  0.00  0.00    +0.207 C 
ATOM     12  H   UNL     1     -33.738  21.722   0.162  0.00  0.00    +0.157 HD
BRANCH  11  13
ATOM     13  C   UNL     1     -32.998  23.917  -0.658  0.00  0.00    +0.006 C 
BRANCH  13  14
ATOM     14  N   UNL     1     -34.138  23.740   0.230  0.00  0.00    +0.390 N 
ATOM     15  H   UNL     1     -34.920  23.357  -0.302  0.00  0.00    -0.084 HD
ATOM     16  H   UNL     1     -33.870  23.102   0.980  0.00  0.00    -0.084 HD
BRANCH  14  17
ATOM     17  C   UNL     1     -34.541  25.009   0.821  0.00  0.00    -0.081 C 
BRANCH  17  18
ATOM     18  C   UNL     1     -33.650  25.338   2.020  0.00  0.00    -0.023 C 
BRANCH  18  19
ATOM     19  C   UNL     1     -33.654  26.833   2.393  0.00  0.00    -0.002 C 
ATOM     20  C   UNL     1     -33.240  27.076   3.845  0.00  0.00    -0.000 C 
ATOM     21  C   UNL     1     -35.045  27.424   2.149  0.00  0.00    -0.000 C 
ENDBRANCH  18  19
ENDBRANCH  17  18
ENDBRANCH  14  17
ENDBRANCH  13  14
ENDBRANCH  11  13
ENDBRANCH   5  10
ENDBRANCH   2   5
BRANCH   3  22
ATOM     22  C   UNL     1     -36.301  21.185   1.998  0.00  0.00    +0.017 C 
BRANCH  22  23
ATOM     23  N   UNL     1     -37.421  20.292   2.294  0.00  0.00    +0.388 N 
ATOM     24  H   UNL     1     -37.077  19.470   2.792  0.00  0.00    -0.089 HD
ATOM     25  H   UNL     1     -37.863  20.001   1.422  0.00  0.00    -0.089 HD
ATOM     26  H   UNL     1     -38.101  20.781   2.874  0.00  0.00    -0.089 HD
ENDBRANCH  22  23
BRANCH  22  27
ATOM     27  C   UNL     1     -35.489  21.446   3.276  0.00  0.00    +0.013 C 
BRANCH  27  28
ATOM     28  C   UNL     1     -35.763  22.806   3.876  0.00  0.00    -0.024 C 
ATOM     29  C   UNL     1     -34.987  23.269   4.939  0.00  0.00    -0.001 C 
ATOM     30  C   UNL     1     -36.793  23.598   3.367  0.00  0.00    -0.001 C 
ATOM     31  C   UNL     1     -35.241  24.524   5.492  0.00  0.00    +0.036 C 
ATOM     32  C   UNL     1     -37.046  24.852   3.920  0.00  0.00    +0.036 C 
ATOM     33  C   UNL     1     -36.270  25.316   4.983  0.00  0.00    +0.134 C 
BRANCH  33  34
ATOM     34  O   UNL     1     -36.517  26.541   5.523  0.00  0.00    -0.506 OA
ATOM     35  H   UNL     1     -37.256  27.039   5.235  0.00  0.00    +0.292 HD
ENDBRANCH  33  34
ENDBRANCH  27  28
ENDBRANCH  22  27
ENDBRANCH   3  22
TORSDOF 12
ENDMDL
