MODEL 1
REMARK VINA RESULT:      -6.4      0.000      0.000
REMARK  Name = 191195
REMARK  9 active torsions:
REMARK  status: ('A' for Active; 'I' for Inactive)
REMARK    1  A    between atoms: C_2  and  O_18
REMARK    2  A    between atoms: C_3  and  O_20
REMARK    3  A    between atoms: C_4  and  N_7
REMARK    4  A    between atoms: C_5  and  O_22
REMARK    5  A    between atoms: C_6  and  C_25
REMARK    6  A    between atoms: N_7  and  C_10
REMARK    7  A    between atoms: C_10  and  C_11
REMARK    8  A    between atoms: C_11  and  C_12
REMARK    9  A    between atoms: C_25  and  O_26
REMARK                            x       y       z     vdW  Elec       q    Type
REMARK                         _______ _______ _______ _____ _____    ______ ____
ROOT
ATOM      1  O   UNL     1     -36.851  23.527   3.333  0.00  0.00    -0.365 OA
ATOM      2  C   UNL     1     -34.999  23.284   4.883  0.00  0.00    +0.147 C 
ATOM      3  C   UNL     1     -35.334  24.646   5.494  0.00  0.00    +0.167 C 
ATOM      4  C   UNL     1     -36.254  22.637   4.278  0.00  0.00    +0.090 C 
ATOM      5  C   UNL     1     -36.125  25.523   4.523  0.00  0.00    +0.178 C 
ATOM      6  C   UNL     1     -37.292  24.743   3.926  0.00  0.00    +0.241 C 
ENDROOT
BRANCH   4   7
ATOM      7  N   UNL     1     -35.922  21.368   3.630  0.00  0.00    +0.403 N 
ATOM      8  H   UNL     1     -36.754  20.777   3.605  0.00  0.00    -0.081 HD
ATOM      9  H   UNL     1     -35.181  20.912   4.161  0.00  0.00    -0.081 HD
BRANCH   7  10
ATOM     10  C   UNL     1     -35.455  21.591   2.271  0.00  0.00    -0.073 C 
BRANCH  10  11
ATOM     11  C   UNL     1     -35.392  20.277   1.491  0.00  0.00    +0.003 C 
BRANCH  11  12
ATOM     12  C   UNL     1     -33.980  19.945   1.079  0.00  0.00    -0.024 C 
ATOM     13  C   UNL     1     -33.420  18.740   1.475  0.00  0.00    -0.004 C 
ATOM     14  C   UNL     1     -33.264  20.851   0.309  0.00  0.00    -0.004 C 
ATOM     15  C   UNL     1     -32.113  18.433   1.093  0.00  0.00    -0.000 C 
ATOM     16  C   UNL     1     -31.959  20.544  -0.073  0.00  0.00    -0.000 C 
ATOM     17  C   UNL     1     -31.383  19.335   0.319  0.00  0.00    -0.000 C 
ENDBRANCH  11  12
ENDBRANCH  10  11
ENDBRANCH   7  10
ENDBRANCH   4   7
BRANCH   2  18
ATOM     18  O   UNL     1     -34.469  22.463   5.921  0.00  0.00    -0.382 OA
ATOM     19  H   UNL     1     -34.880  22.705   6.766  0.00  0.00    +0.210 HD
ENDBRANCH   2  18
BRANCH   3  20
ATOM     20  O   UNL     1     -34.119  25.325   5.821  0.00  0.00    -0.379 OA
ATOM     21  H   UNL     1     -34.048  25.415   6.785  0.00  0.00    +0.211 HD
ENDBRANCH   3  20
BRANCH   5  22
ATOM     22  O   UNL     1     -36.619  26.649   5.248  0.00  0.00    -0.379 OA
ATOM     23  H   UNL     1     -35.944  27.346   5.261  0.00  0.00    +0.211 HD
ENDBRANCH   5  22
BRANCH   6  25
ATOM     24  O   UNL     1     -37.677  25.232   1.594  0.00  0.00    -0.247 OA
ATOM     25  C   UNL     1     -37.895  25.477   2.772  0.00  0.00    +0.344 C 
BRANCH  25  26
ATOM     26  O   UNL     1     -38.720  26.460   3.206  0.00  0.00    -0.478 OA
ATOM     27  H   UNL     1     -39.571  26.558   2.827  0.00  0.00    +0.295 HD
ENDBRANCH  25  26
ENDBRANCH   6  25
TORSDOF 9
ENDMDL
MODEL 2
REMARK VINA RESULT:      -6.3      1.244      3.331
REMARK  Name = 191195
REMARK  9 active torsions:
REMARK  status: ('A' for Active; 'I' for Inactive)
REMARK    1  A    between atoms: C_2  and  O_18
REMARK    2  A    between atoms: C_3  and  O_20
REMARK    3  A    between atoms: C_4  and  N_7
REMARK    4  A    between atoms: C_5  and  O_22
REMARK    5  A    between atoms: C_6  and  C_25
REMARK    6  A    between atoms: N_7  and  C_10
REMARK    7  A    between atoms: C_10  and  C_11
REMARK    8  A    between atoms: C_11  and  C_12
REMARK    9  A    between atoms: C_25  and  O_26
REMARK                            x       y       z     vdW  Elec       q    Type
REMARK                         _______ _______ _______ _____ _____    ______ ____
ROOT
ATOM      1  O   UNL     1     -36.774  22.919   3.911  0.00  0.00    -0.365 OA
ATOM      2  C   UNL     1     -38.546  24.041   2.690  0.00  0.00    +0.147 C 
ATOM      3  C   UNL     1     -37.945  25.397   3.066  0.00  0.00    +0.167 C 
ATOM      4  C   UNL     1     -37.461  22.956   2.658  0.00  0.00    +0.090 C 
ATOM      5  C   UNL     1     -37.072  25.301   4.318  0.00  0.00    +0.178 C 
ATOM      6  C   UNL     1     -36.095  24.136   4.202  0.00  0.00    +0.241 C 
ENDROOT
BRANCH   4   7
ATOM      7  N   UNL     1     -38.045  21.646   2.369  0.00  0.00    +0.403 N 
ATOM      8  H   UNL     1     -38.946  21.775   1.908  0.00  0.00    -0.081 HD
ATOM      9  H   UNL     1     -38.165  21.139   3.245  0.00  0.00    -0.081 HD
BRANCH   7  10
ATOM     10  C   UNL     1     -37.171  20.874   1.498  0.00  0.00    -0.073 C 
BRANCH  10  11
ATOM     11  C   UNL     1     -36.001  20.282   2.283  0.00  0.00    +0.003 C 
BRANCH  11  12
ATOM     12  C   UNL     1     -34.716  20.353   1.497  0.00  0.00    -0.024 C 
ATOM     13  C   UNL     1     -34.436  21.487   0.750  0.00  0.00    -0.004 C 
ATOM     14  C   UNL     1     -33.834  19.282   1.535  0.00  0.00    -0.004 C 
ATOM     15  C   UNL     1     -33.246  21.553   0.024  0.00  0.00    -0.000 C 
ATOM     16  C   UNL     1     -32.646  19.348   0.808  0.00  0.00    -0.000 C 
ATOM     17  C   UNL     1     -32.351  20.484   0.052  0.00  0.00    -0.000 C 
ENDBRANCH  11  12
ENDBRANCH  10  11
ENDBRANCH   7  10
ENDBRANCH   4   7
BRANCH   2  18
ATOM     18  O   UNL     1     -39.148  24.178   1.405  0.00  0.00    -0.382 OA
ATOM     19  H   UNL     1     -40.066  24.474   1.508  0.00  0.00    +0.210 HD
ENDBRANCH   2  18
BRANCH   3  20
ATOM     20  O   UNL     1     -39.002  26.323   3.329  0.00  0.00    -0.379 OA
ATOM     21  H   UNL     1     -38.681  27.019   3.924  0.00  0.00    +0.211 HD
ENDBRANCH   3  20
BRANCH   5  22
ATOM     22  O   UNL     1     -36.349  26.524   4.447  0.00  0.00    -0.379 OA
ATOM     23  H   UNL     1     -36.967  27.270   4.413  0.00  0.00    +0.211 HD
ENDBRANCH   5  22
BRANCH   6  25
ATOM     24  O   UNL     1     -35.710  22.896   6.236  0.00  0.00    -0.247 OA
ATOM     25  C   UNL     1     -35.443  23.847   5.516  0.00  0.00    +0.344 C 
BRANCH  25  26
ATOM     26  O   UNL     1     -34.513  24.788   5.807  0.00  0.00    -0.478 OA
ATOM     27  H   UNL     1     -34.750  25.541   6.310  0.00  0.00    +0.295 HD
ENDBRANCH  25  26
ENDBRANCH   6  25
TORSDOF 9
ENDMDL
MODEL 3
REMARK VINA RESULT:      -6.3      1.268      3.241
REMARK  Name = 191195
REMARK  9 active torsions:
REMARK  status: ('A' for Active; 'I' for Inactive)
REMARK    1  A    between atoms: C_2  and  O_18
REMARK    2  A    between atoms: C_3  and  O_20
REMARK    3  A    between atoms: C_4  and  N_7
REMARK    4  A    between atoms: C_5  and  O_22
REMARK    5  A    between atoms: C_6  and  C_25
REMARK    6  A    between atoms: N_7  and  C_10
REMARK    7  A    between atoms: C_10  and  C_11
REMARK    8  A    between atoms: C_11  and  C_12
REMARK    9  A    between atoms: C_25  and  O_26
REMARK                            x       y       z     vdW  Elec       q    Type
REMARK                         _______ _______ _______ _____ _____    ______ ____
ROOT
ATOM      1  O   UNL     1     -36.242  22.162   3.727  0.00  0.00    -0.365 OA
ATOM      2  C   UNL     1     -37.156  24.210   2.800  0.00  0.00    +0.147 C 
ATOM      3  C   UNL     1     -36.347  25.027   3.809  0.00  0.00    +0.167 C 
ATOM      4  C   UNL     1     -36.466  22.870   2.507  0.00  0.00    +0.090 C 
ATOM      5  C   UNL     1     -35.970  24.196   5.036  0.00  0.00    +0.178 C 
ATOM      6  C   UNL     1     -35.374  22.857   4.615  0.00  0.00    +0.241 C 
ENDROOT
BRANCH   4   7
ATOM      7  N   UNL     1     -37.275  22.057   1.598  0.00  0.00    +0.403 N 
ATOM      8  H   UNL     1     -37.752  22.670   0.936  0.00  0.00    -0.081 HD
ATOM      9  H   UNL     1     -37.954  21.529   2.145  0.00  0.00    -0.081 HD
BRANCH   7  10
ATOM     10  C   UNL     1     -36.438  21.122   0.862  0.00  0.00    -0.073 C 
BRANCH  10  11
ATOM     11  C   UNL     1     -35.073  21.736   0.552  0.00  0.00    +0.003 C 
BRANCH  11  12
ATOM     12  C   UNL     1     -33.971  20.711   0.647  0.00  0.00    -0.024 C 
ATOM     13  C   UNL     1     -34.204  19.520   1.318  0.00  0.00    -0.004 C 
ATOM     14  C   UNL     1     -32.741  20.976   0.061  0.00  0.00    -0.004 C 
ATOM     15  C   UNL     1     -33.185  18.571   1.405  0.00  0.00    -0.000 C 
ATOM     16  C   UNL     1     -31.723  20.028   0.149  0.00  0.00    -0.000 C 
ATOM     17  C   UNL     1     -31.944  18.825   0.821  0.00  0.00    -0.000 C 
ENDBRANCH  11  12
ENDBRANCH  10  11
ENDBRANCH   7  10
ENDBRANCH   4   7
BRANCH   2  18
ATOM     18  O   UNL     1     -37.266  24.983   1.607  0.00  0.00    -0.382 OA
ATOM     19  H   UNL     1     -36.594  24.692   0.970  0.00  0.00    +0.210 HD
ENDBRANCH   2  18
BRANCH   3  20
ATOM     20  O   UNL     1     -37.128  26.141   4.246  0.00  0.00    -0.379 OA
ATOM     21  H   UNL     1     -37.889  26.254   3.655  0.00  0.00    +0.211 HD
ENDBRANCH   3  20
BRANCH   5  22
ATOM     22  O   UNL     1     -35.009  24.934   5.791  0.00  0.00    -0.379 OA
ATOM     23  H   UNL     1     -34.824  25.775   5.344  0.00  0.00    +0.211 HD
ENDBRANCH   5  22
BRANCH   6  25
ATOM     24  O   UNL     1     -35.285  22.264   6.953  0.00  0.00    -0.247 OA
ATOM     25  C   UNL     1     -35.272  21.924   5.779  0.00  0.00    +0.344 C 
BRANCH  25  26
ATOM     26  O   UNL     1     -35.158  20.642   5.357  0.00  0.00    -0.478 OA
ATOM     27  H   UNL     1     -34.970  19.961   5.973  0.00  0.00    +0.295 HD
ENDBRANCH  25  26
ENDBRANCH   6  25
TORSDOF 9
ENDMDL
MODEL 4
REMARK VINA RESULT:      -6.2      1.323      3.139
REMARK  Name = 191195
REMARK  9 active torsions:
REMARK  status: ('A' for Active; 'I' for Inactive)
REMARK    1  A    between atoms: C_2  and  O_18
REMARK    2  A    between atoms: C_3  and  O_20
REMARK    3  A    between atoms: C_4  and  N_7
REMARK    4  A    between atoms: C_5  and  O_22
REMARK    5  A    between atoms: C_6  and  C_25
REMARK    6  A    between atoms: N_7  and  C_10
REMARK    7  A    between atoms: C_10  and  C_11
REMARK    8  A    between atoms: C_11  and  C_12
REMARK    9  A    between atoms: C_25  and  O_26
REMARK                            x       y       z     vdW  Elec       q    Type
REMARK                         _______ _______ _______ _____ _____    ______ ____
ROOT
ATOM      1  O   UNL     1     -36.631  22.605   3.840  0.00  0.00    -0.365 OA
ATOM      2  C   UNL     1     -38.597  23.084   2.501  0.00  0.00    +0.147 C 
ATOM      3  C   UNL     1     -38.406  24.580   2.759  0.00  0.00    +0.167 C 
ATOM      4  C   UNL     1     -37.254  22.343   2.582  0.00  0.00    +0.090 C 
ATOM      5  C   UNL     1     -37.587  24.836   4.024  0.00  0.00    +0.178 C 
ATOM      6  C   UNL     1     -36.324  23.982   4.027  0.00  0.00    +0.241 C 
ENDROOT
BRANCH   4   7
ATOM      7  N   UNL     1     -37.445  20.903   2.406  0.00  0.00    +0.403 N 
ATOM      8  H   UNL     1     -38.054  20.741   1.604  0.00  0.00    -0.081 HD
ATOM      9  H   UNL     1     -37.866  20.522   3.253  0.00  0.00    -0.081 HD
BRANCH   7  10
ATOM     10  C   UNL     1     -36.170  20.240   2.179  0.00  0.00    -0.073 C 
BRANCH  10  11
ATOM     11  C   UNL     1     -35.281  21.067   1.250  0.00  0.00    +0.003 C 
BRANCH  11  12
ATOM     12  C   UNL     1     -33.971  20.373   0.974  0.00  0.00    -0.024 C 
ATOM     13  C   UNL     1     -33.733  19.124   1.528  0.00  0.00    -0.004 C 
ATOM     14  C   UNL     1     -33.026  20.994   0.170  0.00  0.00    -0.004 C 
ATOM     15  C   UNL     1     -32.521  18.481   1.273  0.00  0.00    -0.000 C 
ATOM     16  C   UNL     1     -31.816  20.351  -0.085  0.00  0.00    -0.000 C 
ATOM     17  C   UNL     1     -31.562  19.094   0.467  0.00  0.00    -0.000 C 
ENDBRANCH  11  12
ENDBRANCH  10  11
ENDBRANCH   7  10
ENDBRANCH   4   7
BRANCH   2  18
ATOM     18  O   UNL     1     -39.166  22.939   1.202  0.00  0.00    -0.382 OA
ATOM     19  H   UNL     1     -40.056  23.326   1.193  0.00  0.00    +0.210 HD
ENDBRANCH   2  18
BRANCH   3  20
ATOM     20  O   UNL     1     -39.686  25.196   2.923  0.00  0.00    -0.379 OA
ATOM     21  H   UNL     1     -39.974  25.574   2.077  0.00  0.00    +0.211 HD
ENDBRANCH   3  20
BRANCH   5  22
ATOM     22  O   UNL     1     -37.233  26.218   4.049  0.00  0.00    -0.379 OA
ATOM     23  H   UNL     1     -37.096  26.500   4.967  0.00  0.00    +0.211 HD
ENDBRANCH   5  22
BRANCH   6  25
ATOM     24  O   UNL     1     -34.980  24.911   5.803  0.00  0.00    -0.247 OA
ATOM     25  C   UNL     1     -35.666  23.998   5.369  0.00  0.00    +0.344 C 
BRANCH  25  26
ATOM     26  O   UNL     1     -35.931  22.854   6.046  0.00  0.00    -0.478 OA
ATOM     27  H   UNL     1     -35.304  22.513   6.652  0.00  0.00    +0.295 HD
ENDBRANCH  25  26
ENDBRANCH   6  25
TORSDOF 9
ENDMDL
MODEL 5
REMARK VINA RESULT:      -6.0      1.933      3.920
REMARK  Name = 191195
REMARK  9 active torsions:
REMARK  status: ('A' for Active; 'I' for Inactive)
REMARK    1  A    between atoms: C_2  and  O_18
REMARK    2  A    between atoms: C_3  and  O_20
REMARK    3  A    between atoms: C_4  and  N_7
REMARK    4  A    between atoms: C_5  and  O_22
REMARK    5  A    between atoms: C_6  and  C_25
REMARK    6  A    between atoms: N_7  and  C_10
REMARK    7  A    between atoms: C_10  and  C_11
REMARK    8  A    between atoms: C_11  and  C_12
REMARK    9  A    between atoms: C_25  and  O_26
REMARK                            x       y       z     vdW  Elec       q    Type
REMARK                         _______ _______ _______ _____ _____    ______ ____
ROOT
ATOM      1  O   UNL     1     -35.626  20.851   3.414  0.00  0.00    -0.365 OA
ATOM      2  C   UNL     1     -37.056  21.494   1.562  0.00  0.00    +0.147 C 
ATOM      3  C   UNL     1     -37.225  22.885   2.176  0.00  0.00    +0.167 C 
ATOM      4  C   UNL     1     -35.719  20.870   1.988  0.00  0.00    +0.090 C 
ATOM      5  C   UNL     1     -36.952  22.875   3.681  0.00  0.00    +0.178 C 
ATOM      6  C   UNL     1     -35.643  22.155   3.984  0.00  0.00    +0.241 C 
ENDROOT
BRANCH   4   7
ATOM      7  N   UNL     1     -35.588  19.512   1.460  0.00  0.00    +0.403 N 
ATOM      8  H   UNL     1     -36.406  19.294   0.891  0.00  0.00    -0.081 HD
ATOM      9  H   UNL     1     -35.516  18.861   2.241  0.00  0.00    -0.081 HD
BRANCH   7  10
ATOM     10  C   UNL     1     -34.392  19.393   0.640  0.00  0.00    -0.073 C 
BRANCH  10  11
ATOM     11  C   UNL     1     -33.274  18.683   1.404  0.00  0.00    +0.003 C 
BRANCH  11  12
ATOM     12  C   UNL     1     -31.928  18.925   0.768  0.00  0.00    -0.024 C 
ATOM     13  C   UNL     1     -30.923  17.982   0.921  0.00  0.00    -0.004 C 
ATOM     14  C   UNL     1     -31.718  20.087   0.039  0.00  0.00    -0.004 C 
ATOM     15  C   UNL     1     -29.678  18.207   0.332  0.00  0.00    -0.000 C 
ATOM     16  C   UNL     1     -30.475  20.311  -0.549  0.00  0.00    -0.000 C 
ATOM     17  C   UNL     1     -29.453  19.371  -0.403  0.00  0.00    -0.000 C 
ENDBRANCH  11  12
ENDBRANCH  10  11
ENDBRANCH   7  10
ENDBRANCH   4   7
BRANCH   2  18
ATOM     18  O   UNL     1     -37.104  21.640   0.144  0.00  0.00    -0.382 OA
ATOM     19  H   UNL     1     -36.540  20.968  -0.270  0.00  0.00    +0.210 HD
ENDBRANCH   2  18
BRANCH   3  20
ATOM     20  O   UNL     1     -38.567  23.331   1.968  0.00  0.00    -0.379 OA
ATOM     21  H   UNL     1     -39.126  23.025   2.700  0.00  0.00    +0.211 HD
ENDBRANCH   3  20
BRANCH   5  22
ATOM     22  O   UNL     1     -36.871  24.229   4.124  0.00  0.00    -0.379 OA
ATOM     23  H   UNL     1     -36.929  24.257   5.091  0.00  0.00    +0.211 HD
ENDBRANCH   5  22
BRANCH   6  25
ATOM     24  O   UNL     1     -35.668  22.707   6.333  0.00  0.00    -0.247 OA
ATOM     25  C   UNL     1     -35.505  21.881   5.447  0.00  0.00    +0.344 C 
BRANCH  25  26
ATOM     26  O   UNL     1     -35.172  20.585   5.663  0.00  0.00    -0.478 OA
ATOM     27  H   UNL     1     -34.271  20.329   5.671  0.00  0.00    +0.295 HD
ENDBRANCH  25  26
ENDBRANCH   6  25
TORSDOF 9
ENDMDL
MODEL 6
REMARK VINA RESULT:      -6.0      1.477      2.787
REMARK  Name = 191195
REMARK  9 active torsions:
REMARK  status: ('A' for Active; 'I' for Inactive)
REMARK    1  A    between atoms: C_2  and  O_18
REMARK    2  A    between atoms: C_3  and  O_20
REMARK    3  A    between atoms: C_4  and  N_7
REMARK    4  A    between atoms: C_5  and  O_22
REMARK    5  A    between atoms: C_6  and  C_25
REMARK    6  A    between atoms: N_7  and  C_10
REMARK    7  A    between atoms: C_10  and  C_11
REMARK    8  A    between atoms: C_11  and  C_12
REMARK    9  A    between atoms: C_25  and  O_26
REMARK                            x       y       z     vdW  Elec       q    Type
REMARK                         _______ _______ _______ _____ _____    ______ ____
ROOT
ATOM      1  O   UNL     1     -34.922  23.452   3.440  0.00  0.00    -0.365 OA
ATOM      2  C   UNL     1     -37.301  22.976   3.412  0.00  0.00    +0.147 C 
ATOM      3  C   UNL     1     -37.594  24.456   3.163  0.00  0.00    +0.167 C 
ATOM      4  C   UNL     1     -35.915  22.597   2.871  0.00  0.00    +0.090 C 
ATOM      5  C   UNL     1     -36.440  25.346   3.625  0.00  0.00    +0.178 C 
ATOM      6  C   UNL     1     -35.111  24.820   3.094  0.00  0.00    +0.241 C 
ENDROOT
BRANCH   4   7
ATOM      7  N   UNL     1     -35.604  21.199   3.172  0.00  0.00    +0.403 N 
ATOM      8  H   UNL     1     -36.307  20.830   3.812  0.00  0.00    -0.081 HD
ATOM      9  H   UNL     1     -34.679  21.153   3.597  0.00  0.00    -0.081 HD
BRANCH   7  10
ATOM     10  C   UNL     1     -35.601  20.400   1.956  0.00  0.00    -0.073 C 
BRANCH  10  11
ATOM     11  C   UNL     1     -34.593  20.947   0.945  0.00  0.00    +0.003 C 
BRANCH  11  12
ATOM     12  C   UNL     1     -33.382  20.055   0.833  0.00  0.00    -0.024 C 
ATOM     13  C   UNL     1     -33.385  18.821   1.465  0.00  0.00    -0.004 C 
ATOM     14  C   UNL     1     -32.285  20.483   0.099  0.00  0.00    -0.004 C 
ATOM     15  C   UNL     1     -32.265  17.995   1.361  0.00  0.00    -0.000 C 
ATOM     16  C   UNL     1     -31.167  19.658  -0.005  0.00  0.00    -0.000 C 
ATOM     17  C   UNL     1     -31.155  18.413   0.626  0.00  0.00    -0.000 C 
ENDBRANCH  11  12
ENDBRANCH  10  11
ENDBRANCH   7  10
ENDBRANCH   4   7
BRANCH   2  18
ATOM     18  O   UNL     1     -38.315  22.219   2.753  0.00  0.00    -0.382 OA
ATOM     19  H   UNL     1     -38.717  22.757   2.053  0.00  0.00    +0.210 HD
ENDBRANCH   2  18
BRANCH   3  20
ATOM     20  O   UNL     1     -38.767  24.832   3.889  0.00  0.00    -0.379 OA
ATOM     21  H   UNL     1     -39.546  24.731   3.319  0.00  0.00    +0.211 HD
ENDBRANCH   3  20
BRANCH   5  22
ATOM     22  O   UNL     1     -36.670  26.663   3.125  0.00  0.00    -0.379 OA
ATOM     23  H   UNL     1     -35.916  27.230   3.348  0.00  0.00    +0.211 HD
ENDBRANCH   5  22
BRANCH   6  25
ATOM     24  O   UNL     1     -33.316  25.027   4.694  0.00  0.00    -0.247 OA
ATOM     25  C   UNL     1     -33.958  25.495   3.765  0.00  0.00    +0.344 C 
BRANCH  25  26
ATOM     26  O   UNL     1     -33.718  26.705   3.205  0.00  0.00    -0.478 OA
ATOM     27  H   UNL     1     -33.712  27.475   3.739  0.00  0.00    +0.295 HD
ENDBRANCH  25  26
ENDBRANCH   6  25
TORSDOF 9
ENDMDL
MODEL 7
REMARK VINA RESULT:      -5.9      3.575      7.253
REMARK  Name = 191195
REMARK  9 active torsions:
REMARK  status: ('A' for Active; 'I' for Inactive)
REMARK    1  A    between atoms: C_2  and  O_18
REMARK    2  A    between atoms: C_3  and  O_20
REMARK    3  A    between atoms: C_4  and  N_7
REMARK    4  A    between atoms: C_5  and  O_22
REMARK    5  A    between atoms: C_6  and  C_25
REMARK    6  A    between atoms: N_7  and  C_10
REMARK    7  A    between atoms: C_10  and  C_11
REMARK    8  A    between atoms: C_11  and  C_12
REMARK    9  A    between atoms: C_25  and  O_26
REMARK                            x       y       z     vdW  Elec       q    Type
REMARK                         _______ _______ _______ _____ _____    ______ ____
ROOT
ATOM      1  O   UNL     1     -35.588  24.205   5.077  0.00  0.00    -0.365 OA
ATOM      2  C   UNL     1     -36.541  25.462   3.233  0.00  0.00    +0.147 C 
ATOM      3  C   UNL     1     -37.267  24.204   2.752  0.00  0.00    +0.167 C 
ATOM      4  C   UNL     1     -36.295  25.402   4.748  0.00  0.00    +0.090 C 
ATOM      5  C   UNL     1     -36.589  22.931   3.260  0.00  0.00    +0.178 C 
ATOM      6  C   UNL     1     -36.321  23.027   4.758  0.00  0.00    +0.241 C 
ENDROOT
BRANCH   4   7
ATOM      7  N   UNL     1     -35.538  26.570   5.198  0.00  0.00    +0.403 N 
ATOM      8  H   UNL     1     -35.959  26.933   6.054  0.00  0.00    -0.081 HD
ATOM      9  H   UNL     1     -35.561  27.279   4.465  0.00  0.00    -0.081 HD
BRANCH   7  10
ATOM     10  C   UNL     1     -34.152  26.216   5.462  0.00  0.00    -0.073 C 
BRANCH  10  11
ATOM     11  C   UNL     1     -33.217  26.871   4.446  0.00  0.00    +0.003 C 
BRANCH  11  12
ATOM     12  C   UNL     1     -32.639  28.159   4.976  0.00  0.00    -0.024 C 
ATOM     13  C   UNL     1     -32.632  29.286   4.168  0.00  0.00    -0.004 C 
ATOM     14  C   UNL     1     -32.125  28.196   6.264  0.00  0.00    -0.004 C 
ATOM     15  C   UNL     1     -32.097  30.478   4.659  0.00  0.00    -0.000 C 
ATOM     16  C   UNL     1     -31.591  29.387   6.755  0.00  0.00    -0.000 C 
ATOM     17  C   UNL     1     -31.577  30.529   5.952  0.00  0.00    -0.000 C 
ENDBRANCH  11  12
ENDBRANCH  10  11
ENDBRANCH   7  10
ENDBRANCH   4   7
BRANCH   2  18
ATOM     18  O   UNL     1     -37.360  26.583   2.908  0.00  0.00    -0.382 OA
ATOM     19  H   UNL     1     -37.364  26.713   1.947  0.00  0.00    +0.210 HD
ENDBRANCH   2  18
BRANCH   3  20
ATOM     20  O   UNL     1     -37.259  24.175   1.323  0.00  0.00    -0.379 OA
ATOM     21  H   UNL     1     -36.856  23.347   1.019  0.00  0.00    +0.211 HD
ENDBRANCH   3  20
BRANCH   5  22
ATOM     22  O   UNL     1     -37.460  21.832   2.996  0.00  0.00    -0.379 OA
ATOM     23  H   UNL     1     -37.369  21.563   2.069  0.00  0.00    +0.211 HD
ENDBRANCH   5  22
BRANCH   6  25
ATOM     24  O   UNL     1     -34.776  21.938   6.259  0.00  0.00    -0.247 OA
ATOM     25  C   UNL     1     -35.409  21.934   5.213  0.00  0.00    +0.344 C 
BRANCH  25  26
ATOM     26  O   UNL     1     -35.373  20.930   4.304  0.00  0.00    -0.478 OA
ATOM     27  H   UNL     1     -34.998  20.103   4.534  0.00  0.00    +0.295 HD
ENDBRANCH  25  26
ENDBRANCH   6  25
TORSDOF 9
ENDMDL
MODEL 8
REMARK VINA RESULT:      -5.9      1.018      1.926
REMARK  Name = 191195
REMARK  9 active torsions:
REMARK  status: ('A' for Active; 'I' for Inactive)
REMARK    1  A    between atoms: C_2  and  O_18
REMARK    2  A    between atoms: C_3  and  O_20
REMARK    3  A    between atoms: C_4  and  N_7
REMARK    4  A    between atoms: C_5  and  O_22
REMARK    5  A    between atoms: C_6  and  C_25
REMARK    6  A    between atoms: N_7  and  C_10
REMARK    7  A    between atoms: C_10  and  C_11
REMARK    8  A    between atoms: C_11  and  C_12
REMARK    9  A    between atoms: C_25  and  O_26
REMARK                            x       y       z     vdW  Elec       q    Type
REMARK                         _______ _______ _______ _____ _____    ______ ____
ROOT
ATOM      1  O   UNL     1     -37.247  23.197   2.556  0.00  0.00    -0.365 OA
ATOM      2  C   UNL     1     -35.916  24.059   4.393  0.00  0.00    +0.147 C 
ATOM      3  C   UNL     1     -36.859  25.258   4.513  0.00  0.00    +0.167 C 
ATOM      4  C   UNL     1     -36.651  22.845   3.806  0.00  0.00    +0.090 C 
ATOM      5  C   UNL     1     -37.617  25.513   3.210  0.00  0.00    +0.178 C 
ATOM      6  C   UNL     1     -38.229  24.220   2.683  0.00  0.00    +0.241 C 
ENDROOT
BRANCH   4   7
ATOM      7  N   UNL     1     -35.734  21.720   3.624  0.00  0.00    +0.403 N 
ATOM      8  H   UNL     1     -36.211  20.855   3.878  0.00  0.00    -0.081 HD
ATOM      9  H   UNL     1     -34.918  21.862   4.219  0.00  0.00    -0.081 HD
BRANCH   7  10
ATOM     10  C   UNL     1     -35.293  21.634   2.241  0.00  0.00    -0.073 C 
BRANCH  10  11
ATOM     11  C   UNL     1     -35.201  20.177   1.786  0.00  0.00    +0.003 C 
BRANCH  11  12
ATOM     12  C   UNL     1     -33.836  19.857   1.229  0.00  0.00    -0.024 C 
ATOM     13  C   UNL     1     -33.197  20.783   0.419  0.00  0.00    -0.004 C 
ATOM     14  C   UNL     1     -33.242  18.641   1.536  0.00  0.00    -0.004 C 
ATOM     15  C   UNL     1     -31.934  20.487  -0.096  0.00  0.00    -0.000 C 
ATOM     16  C   UNL     1     -31.981  18.346   1.022  0.00  0.00    -0.000 C 
ATOM     17  C   UNL     1     -31.326  19.269   0.205  0.00  0.00    -0.000 C 
ENDBRANCH  11  12
ENDBRANCH  10  11
ENDBRANCH   7  10
ENDBRANCH   4   7
BRANCH   2  18
ATOM     18  O   UNL     1     -35.431  23.759   5.700  0.00  0.00    -0.382 OA
ATOM     19  H   UNL     1     -35.030  22.875   5.702  0.00  0.00    +0.210 HD
ENDBRANCH   2  18
BRANCH   3  20
ATOM     20  O   UNL     1     -36.096  26.426   4.823  0.00  0.00    -0.379 OA
ATOM     21  H   UNL     1     -35.606  26.710   4.036  0.00  0.00    +0.211 HD
ENDBRANCH   3  20
BRANCH   5  22
ATOM     22  O   UNL     1     -38.650  26.460   3.478  0.00  0.00    -0.379 OA
ATOM     23  H   UNL     1     -39.141  26.187   4.268  0.00  0.00    +0.211 HD
ENDBRANCH   5  22
BRANCH   6  25
ATOM     24  O   UNL     1     -39.613  25.145   0.936  0.00  0.00    -0.247 OA
ATOM     25  C   UNL     1     -38.718  24.388   1.280  0.00  0.00    +0.344 C 
BRANCH  25  26
ATOM     26  O   UNL     1     -38.033  23.581   0.434  0.00  0.00    -0.478 OA
ATOM     27  H   UNL     1     -37.187  23.260   0.676  0.00  0.00    +0.295 HD
ENDBRANCH  25  26
ENDBRANCH   6  25
TORSDOF 9
ENDMDL
MODEL 9
REMARK VINA RESULT:      -5.7      2.044      2.945
REMARK  Name = 191195
REMARK  9 active torsions:
REMARK  status: ('A' for Active; 'I' for Inactive)
REMARK    1  A    between atoms: C_2  and  O_18
REMARK    2  A    between atoms: C_3  and  O_20
REMARK    3  A    between atoms: C_4  and  N_7
REMARK    4  A    between atoms: C_5  and  O_22
REMARK    5  A    between atoms: C_6  and  C_25
REMARK    6  A    between atoms: N_7  and  C_10
REMARK    7  A    between atoms: C_10  and  C_11
REMARK    8  A    between atoms: C_11  and  C_12
REMARK    9  A    between atoms: C_25  and  O_26
REMARK                            x       y       z     vdW  Elec       q    Type
REMARK                         _______ _______ _______ _____ _____    ______ ____
ROOT
ATOM      1  O   UNL     1     -34.109  24.536   2.956  0.00  0.00    -0.365 OA
ATOM      2  C   UNL     1     -36.179  24.524   4.222  0.00  0.00    +0.147 C 
ATOM      3  C   UNL     1     -36.215  26.053   4.177  0.00  0.00    +0.167 C 
ATOM      4  C   UNL     1     -35.416  23.962   3.014  0.00  0.00    +0.090 C 
ATOM      5  C   UNL     1     -34.824  26.644   3.942  0.00  0.00    +0.178 C 
ATOM      6  C   UNL     1     -34.136  25.948   2.774  0.00  0.00    +0.241 C 
ENDROOT
BRANCH   4   7
ATOM      7  N   UNL     1     -35.320  22.504   3.093  0.00  0.00    +0.403 N 
ATOM      8  H   UNL     1     -35.844  22.177   3.905  0.00  0.00    -0.081 HD
ATOM      9  H   UNL     1     -34.337  22.244   3.179  0.00  0.00    -0.081 HD
BRANCH   7  10
ATOM     10  C   UNL     1     -35.864  21.887   1.894  0.00  0.00    -0.073 C 
BRANCH  10  11
ATOM     11  C   UNL     1     -34.877  21.989   0.730  0.00  0.00    +0.003 C 
BRANCH  11  12
ATOM     12  C   UNL     1     -33.874  20.863   0.755  0.00  0.00    -0.024 C 
ATOM     13  C   UNL     1     -34.183  19.691   1.430  0.00  0.00    -0.004 C 
ATOM     14  C   UNL     1     -32.660  21.017   0.102  0.00  0.00    -0.004 C 
ATOM     15  C   UNL     1     -33.255  18.649   1.452  0.00  0.00    -0.000 C 
ATOM     16  C   UNL     1     -31.734  19.976   0.125  0.00  0.00    -0.000 C 
ATOM     17  C   UNL     1     -32.031  18.791   0.800  0.00  0.00    -0.000 C 
ENDBRANCH  11  12
ENDBRANCH  10  11
ENDBRANCH   7  10
ENDBRANCH   4   7
BRANCH   2  18
ATOM     18  O   UNL     1     -37.528  24.061   4.216  0.00  0.00    -0.382 OA
ATOM     19  H   UNL     1     -37.537  23.092   4.262  0.00  0.00    +0.210 HD
ENDBRANCH   2  18
BRANCH   3  20
ATOM     20  O   UNL     1     -36.706  26.549   5.425  0.00  0.00    -0.379 OA
ATOM     21  H   UNL     1     -37.661  26.709   5.355  0.00  0.00    +0.211 HD
ENDBRANCH   3  20
BRANCH   5  22
ATOM     22  O   UNL     1     -34.978  28.033   3.653  0.00  0.00    -0.379 OA
ATOM     23  H   UNL     1     -35.898  28.211   3.403  0.00  0.00    +0.211 HD
ENDBRANCH   5  22
BRANCH   6  25
ATOM     24  O   UNL     1     -31.940  26.054   1.778  0.00  0.00    -0.247 OA
ATOM     25  C   UNL     1     -32.685  26.303   2.715  0.00  0.00    +0.344 C 
BRANCH  25  26
ATOM     26  O   UNL     1     -32.301  26.941   3.847  0.00  0.00    -0.478 OA
ATOM     27  H   UNL     1     -31.440  27.306   3.909  0.00  0.00    +0.295 HD
ENDBRANCH  25  26
ENDBRANCH   6  25
TORSDOF 9
ENDMDL
