MODEL 1
REMARK VINA RESULT:      -5.0      0.000      0.000
REMARK  Name = 5106678
REMARK  18 active torsions:
REMARK  status: ('A' for Active; 'I' for Inactive)
REMARK    1  A    between atoms: C_1  and  O_2
REMARK    2  A    between atoms: C_1  and  C_4
REMARK    3  A    between atoms: C_1  and  C_16
REMARK    4  A    between atoms: C_4  and  O_5
REMARK    5  A    between atoms: C_4  and  C_7
REMARK    6  A    between atoms: C_7  and  O_8
REMARK    7  A    between atoms: C_7  and  C_10
REMARK    8  A    between atoms: C_10  and  O_11
REMARK    9  A    between atoms: C_10  and  C_13
REMARK   10  A    between atoms: C_13  and  O_14
REMARK   11  A    between atoms: C_16  and  N_18
REMARK   12  A    between atoms: C_19  and  C_21
REMARK   13  A    between atoms: C_21  and  C_22
REMARK   14  A    between atoms: C_22  and  C_23
REMARK   15  A    between atoms: C_23  and  C_24
REMARK   16  A    between atoms: C_24  and  C_25
REMARK   17  A    between atoms: C_25  and  C_26
REMARK   18  A    between atoms: C_26  and  C_27
REMARK                            x       y       z     vdW  Elec       q    Type
REMARK                         _______ _______ _______ _____ _____    ______ ____
ROOT
ATOM      1  C   UNL     1     -35.468  21.946   3.251  0.00  0.00    +0.159 C 
ENDROOT
BRANCH   1   2
ATOM      2  O   UNL     1     -35.500  20.988   4.306  0.00  0.00    -0.380 OA
ATOM      3  H   UNL     1     -36.396  20.625   4.387  0.00  0.00    +0.211 HD
ENDBRANCH   1   2
BRANCH   1   4
ATOM      4  C   UNL     1     -35.392  21.209   1.896  0.00  0.00    +0.168 C 
BRANCH   4   5
ATOM      5  O   UNL     1     -34.348  20.239   1.954  0.00  0.00    -0.379 OA
ATOM      6  H   UNL     1     -33.979  20.106   1.067  0.00  0.00    +0.211 HD
ENDBRANCH   4   5
BRANCH   4   7
ATOM      7  C   UNL     1     -36.712  20.506   1.500  0.00  0.00    +0.169 C 
BRANCH   7   8
ATOM      8  O   UNL     1     -36.961  19.406   2.373  0.00  0.00    -0.379 OA
ATOM      9  H   UNL     1     -36.155  18.877   2.466  0.00  0.00    +0.211 HD
ENDBRANCH   7   8
BRANCH   7  10
ATOM     10  C   UNL     1     -36.707  19.982   0.047  0.00  0.00    +0.169 C 
BRANCH  10  11
ATOM     11  O   UNL     1     -37.870  20.457  -0.627  0.00  0.00    -0.379 OA
ATOM     12  H   UNL     1     -38.543  20.708   0.027  0.00  0.00    +0.211 HD
ENDBRANCH  10  11
BRANCH  10  13
ATOM     13  C   UNL     1     -36.679  18.456  -0.050  0.00  0.00    +0.169 C 
BRANCH  13  14
ATOM     14  O   UNL     1     -35.416  17.961   0.363  0.00  0.00    -0.379 OA
ATOM     15  H   UNL     1     -35.167  17.206  -0.193  0.00  0.00    +0.211 HD
ENDBRANCH  13  14
ENDBRANCH  10  13
ENDBRANCH   7  10
ENDBRANCH   4   7
ENDBRANCH   1   4
BRANCH   1  16
ATOM     16  C   UNL     1     -36.716  22.827   3.356  0.00  0.00    +0.125 C 
BRANCH  16  18
ATOM     17  O   UNL     1     -35.848  23.500   6.007  0.00  0.00    -0.275 OA
ATOM     18  N   UNL     1     -36.389  24.159   3.850  0.00  0.00    -0.275 N 
ATOM     19  C   UNL     1     -35.973  24.392   5.162  0.00  0.00    +0.226 C 
ATOM     20  C   UNL     1     -36.529  25.231   2.867  0.00  0.00    +0.115 C 
BRANCH  19  21
ATOM     21  C   UNL     1     -35.641  25.820   5.564  0.00  0.00    +0.085 C 
BRANCH  21  22
ATOM     22  C   UNL     1     -34.141  26.041   5.766  0.00  0.00    +0.010 C 
BRANCH  22  23
ATOM     23  C   UNL     1     -33.478  26.686   4.544  0.00  0.00    +0.001 C 
BRANCH  23  24
ATOM     24  C   UNL     1     -32.623  27.909   4.892  0.00  0.00    +0.000 C 
BRANCH  24  25
ATOM     25  C   UNL     1     -32.222  27.971   6.367  0.00  0.00    +0.000 C 
BRANCH  25  26
ATOM     26  C   UNL     1     -31.524  29.294   6.696  0.00  0.00    +0.000 C 
BRANCH  26  27
ATOM     27  C   UNL     1     -32.047  30.431   5.818  0.00  0.00    +0.000 C 
ATOM     28  C   UNL     1     -30.909  31.189   5.153  0.00  0.00    +0.000 C 
ENDBRANCH  26  27
ENDBRANCH  25  26
ENDBRANCH  24  25
ENDBRANCH  23  24
ENDBRANCH  22  23
ENDBRANCH  21  22
ENDBRANCH  19  21
ENDBRANCH  16  18
ENDBRANCH   1  16
TORSDOF 18
ENDMDL
MODEL 2
REMARK VINA RESULT:      -5.0      3.366      8.010
REMARK  Name = 5106678
REMARK  18 active torsions:
REMARK  status: ('A' for Active; 'I' for Inactive)
REMARK    1  A    between atoms: C_1  and  O_2
REMARK    2  A    between atoms: C_1  and  C_4
REMARK    3  A    between atoms: C_1  and  C_16
REMARK    4  A    between atoms: C_4  and  O_5
REMARK    5  A    between atoms: C_4  and  C_7
REMARK    6  A    between atoms: C_7  and  O_8
REMARK    7  A    between atoms: C_7  and  C_10
REMARK    8  A    between atoms: C_10  and  O_11
REMARK    9  A    between atoms: C_10  and  C_13
REMARK   10  A    between atoms: C_13  and  O_14
REMARK   11  A    between atoms: C_16  and  N_18
REMARK   12  A    between atoms: C_19  and  C_21
REMARK   13  A    between atoms: C_21  and  C_22
REMARK   14  A    between atoms: C_22  and  C_23
REMARK   15  A    between atoms: C_23  and  C_24
REMARK   16  A    between atoms: C_24  and  C_25
REMARK   17  A    between atoms: C_25  and  C_26
REMARK   18  A    between atoms: C_26  and  C_27
REMARK                            x       y       z     vdW  Elec       q    Type
REMARK                         _______ _______ _______ _____ _____    ______ ____
ROOT
ATOM      1  C   UNL     1     -37.810  25.613   2.671  0.00  0.00    +0.159 C 
ENDROOT
BRANCH   1   2
ATOM      2  O   UNL     1     -38.801  26.301   3.430  0.00  0.00    -0.380 OA
ATOM      3  H   UNL     1     -39.576  26.472   2.871  0.00  0.00    +0.211 HD
ENDBRANCH   1   2
BRANCH   1   4
ATOM      4  C   UNL     1     -36.410  25.983   3.207  0.00  0.00    +0.168 C 
BRANCH   4   5
ATOM      5  O   UNL     1     -36.208  27.385   3.047  0.00  0.00    -0.379 OA
ATOM      6  H   UNL     1     -37.025  27.795   2.721  0.00  0.00    +0.211 HD
ENDBRANCH   4   5
BRANCH   4   7
ATOM      7  C   UNL     1     -36.200  25.611   4.695  0.00  0.00    +0.169 C 
BRANCH   7   8
ATOM      8  O   UNL     1     -36.524  26.723   5.527  0.00  0.00    -0.379 OA
ATOM      9  H   UNL     1     -37.338  27.140   5.207  0.00  0.00    +0.211 HD
ENDBRANCH   7   8
BRANCH   7  10
ATOM     10  C   UNL     1     -34.753  25.172   5.011  0.00  0.00    +0.169 C 
BRANCH  10  11
ATOM     11  O   UNL     1     -34.783  23.936   5.722  0.00  0.00    -0.379 OA
ATOM     12  H   UNL     1     -33.942  23.469   5.592  0.00  0.00    +0.211 HD
ENDBRANCH  10  11
BRANCH  10  13
ATOM     13  C   UNL     1     -33.975  26.191   5.843  0.00  0.00    +0.169 C 
BRANCH  13  14
ATOM     14  O   UNL     1     -33.723  27.359   5.078  0.00  0.00    -0.379 OA
ATOM     15  H   UNL     1     -33.547  28.104   5.673  0.00  0.00    +0.211 HD
ENDBRANCH  13  14
ENDBRANCH  10  13
ENDBRANCH   7  10
ENDBRANCH   4   7
ENDBRANCH   1   4
BRANCH   1  16
ATOM     16  C   UNL     1     -38.082  24.109   2.767  0.00  0.00    +0.125 C 
BRANCH  16  18
ATOM     17  O   UNL     1     -36.135  22.255   3.771  0.00  0.00    -0.275 OA
ATOM     18  N   UNL     1     -37.125  23.342   1.977  0.00  0.00    -0.275 N 
ATOM     19  C   UNL     1     -36.211  22.460   2.555  0.00  0.00    +0.226 C 
ATOM     20  C   UNL     1     -37.198  23.568   0.535  0.00  0.00    +0.115 C 
BRANCH  19  21
ATOM     21  C   UNL     1     -35.272  21.699   1.634  0.00  0.00    +0.085 C 
BRANCH  21  22
ATOM     22  C   UNL     1     -34.914  20.313   2.172  0.00  0.00    +0.010 C 
BRANCH  22  23
ATOM     23  C   UNL     1     -34.458  19.358   1.063  0.00  0.00    +0.001 C 
BRANCH  23  24
ATOM     24  C   UNL     1     -33.209  18.552   1.431  0.00  0.00    +0.000 C 
BRANCH  24  25
ATOM     25  C   UNL     1     -31.954  18.997   0.676  0.00  0.00    +0.000 C 
BRANCH  25  26
ATOM     26  C   UNL     1     -30.853  17.937   0.759  0.00  0.00    +0.000 C 
BRANCH  26  27
ATOM     27  C   UNL     1     -29.494  18.514   0.363  0.00  0.00    +0.000 C 
ATOM     28  C   UNL     1     -29.646  19.693  -0.585  0.00  0.00    +0.000 C 
ENDBRANCH  26  27
ENDBRANCH  25  26
ENDBRANCH  24  25
ENDBRANCH  23  24
ENDBRANCH  22  23
ENDBRANCH  21  22
ENDBRANCH  19  21
ENDBRANCH  16  18
ENDBRANCH   1  16
TORSDOF 18
ENDMDL
MODEL 3
REMARK VINA RESULT:      -4.9      3.688      8.189
REMARK  Name = 5106678
REMARK  18 active torsions:
REMARK  status: ('A' for Active; 'I' for Inactive)
REMARK    1  A    between atoms: C_1  and  O_2
REMARK    2  A    between atoms: C_1  and  C_4
REMARK    3  A    between atoms: C_1  and  C_16
REMARK    4  A    between atoms: C_4  and  O_5
REMARK    5  A    between atoms: C_4  and  C_7
REMARK    6  A    between atoms: C_7  and  O_8
REMARK    7  A    between atoms: C_7  and  C_10
REMARK    8  A    between atoms: C_10  and  O_11
REMARK    9  A    between atoms: C_10  and  C_13
REMARK   10  A    between atoms: C_13  and  O_14
REMARK   11  A    between atoms: C_16  and  N_18
REMARK   12  A    between atoms: C_19  and  C_21
REMARK   13  A    between atoms: C_21  and  C_22
REMARK   14  A    between atoms: C_22  and  C_23
REMARK   15  A    between atoms: C_23  and  C_24
REMARK   16  A    between atoms: C_24  and  C_25
REMARK   17  A    between atoms: C_25  and  C_26
REMARK   18  A    between atoms: C_26  and  C_27
REMARK                            x       y       z     vdW  Elec       q    Type
REMARK                         _______ _______ _______ _____ _____    ______ ____
ROOT
ATOM      1  C   UNL     1     -36.820  24.208   3.830  0.00  0.00    +0.159 C 
ENDROOT
BRANCH   1   2
ATOM      2  O   UNL     1     -38.054  24.885   4.061  0.00  0.00    -0.380 OA
ATOM      3  H   UNL     1     -38.792  24.294   3.844  0.00  0.00    +0.211 HD
ENDBRANCH   1   2
BRANCH   1   4
ATOM      4  C   UNL     1     -35.952  24.282   5.105  0.00  0.00    +0.168 C 
BRANCH   4   5
ATOM      5  O   UNL     1     -34.874  23.356   4.987  0.00  0.00    -0.379 OA
ATOM      6  H   UNL     1     -34.157  23.615   5.587  0.00  0.00    +0.211 HD
ENDBRANCH   4   5
BRANCH   4   7
ATOM      7  C   UNL     1     -35.376  25.691   5.381  0.00  0.00    +0.169 C 
BRANCH   7   8
ATOM      8  O   UNL     1     -36.420  26.662   5.343  0.00  0.00    -0.379 OA
ATOM      9  H   UNL     1     -37.279  26.218   5.417  0.00  0.00    +0.211 HD
ENDBRANCH   7   8
BRANCH   7  10
ATOM     10  C   UNL     1     -34.287  26.109   4.370  0.00  0.00    +0.169 C 
BRANCH  10  11
ATOM     11  O   UNL     1     -33.233  26.775   5.063  0.00  0.00    -0.379 OA
ATOM     12  H   UNL     1     -33.362  27.736   4.999  0.00  0.00    +0.211 HD
ENDBRANCH  10  11
BRANCH  10  13
ATOM     13  C   UNL     1     -34.802  27.033   3.266  0.00  0.00    +0.169 C 
BRANCH  13  14
ATOM     14  O   UNL     1     -34.897  28.364   3.747  0.00  0.00    -0.379 OA
ATOM     15  H   UNL     1     -35.650  28.435   4.355  0.00  0.00    +0.211 HD
ENDBRANCH  13  14
ENDBRANCH  10  13
ENDBRANCH   7  10
ENDBRANCH   4   7
ENDBRANCH   1   4
BRANCH   1  16
ATOM     16  C   UNL     1     -37.126  22.763   3.427  0.00  0.00    +0.125 C 
BRANCH  16  18
ATOM     17  O   UNL     1     -35.283  20.565   3.477  0.00  0.00    -0.275 OA
ATOM     18  N   UNL     1     -36.271  22.322   2.331  0.00  0.00    -0.275 N 
ATOM     19  C   UNL     1     -35.401  21.237   2.447  0.00  0.00    +0.226 C 
ATOM     20  C   UNL     1     -36.395  23.103   1.102  0.00  0.00    +0.115 C 
BRANCH  19  21
ATOM     21  C   UNL     1     -34.569  20.854   1.235  0.00  0.00    +0.085 C 
BRANCH  21  22
ATOM     22  C   UNL     1     -34.356  19.344   1.119  0.00  0.00    +0.010 C 
BRANCH  22  23
ATOM     23  C   UNL     1     -32.878  18.955   1.228  0.00  0.00    +0.001 C 
BRANCH  23  24
ATOM     24  C   UNL     1     -31.974  19.725   0.260  0.00  0.00    +0.000 C 
BRANCH  24  25
ATOM     25  C   UNL     1     -30.581  19.109   0.108  0.00  0.00    +0.000 C 
BRANCH  25  26
ATOM     26  C   UNL     1     -30.498  17.748   0.805  0.00  0.00    +0.000 C 
BRANCH  26  27
ATOM     27  C   UNL     1     -29.055  17.251   0.883  0.00  0.00    +0.000 C 
ATOM     28  C   UNL     1     -28.065  18.402   0.802  0.00  0.00    +0.000 C 
ENDBRANCH  26  27
ENDBRANCH  25  26
ENDBRANCH  24  25
ENDBRANCH  23  24
ENDBRANCH  22  23
ENDBRANCH  21  22
ENDBRANCH  19  21
ENDBRANCH  16  18
ENDBRANCH   1  16
TORSDOF 18
ENDMDL
MODEL 4
REMARK VINA RESULT:      -4.9      3.476      7.799
REMARK  Name = 5106678
REMARK  18 active torsions:
REMARK  status: ('A' for Active; 'I' for Inactive)
REMARK    1  A    between atoms: C_1  and  O_2
REMARK    2  A    between atoms: C_1  and  C_4
REMARK    3  A    between atoms: C_1  and  C_16
REMARK    4  A    between atoms: C_4  and  O_5
REMARK    5  A    between atoms: C_4  and  C_7
REMARK    6  A    between atoms: C_7  and  O_8
REMARK    7  A    between atoms: C_7  and  C_10
REMARK    8  A    between atoms: C_10  and  O_11
REMARK    9  A    between atoms: C_10  and  C_13
REMARK   10  A    between atoms: C_13  and  O_14
REMARK   11  A    between atoms: C_16  and  N_18
REMARK   12  A    between atoms: C_19  and  C_21
REMARK   13  A    between atoms: C_21  and  C_22
REMARK   14  A    between atoms: C_22  and  C_23
REMARK   15  A    between atoms: C_23  and  C_24
REMARK   16  A    between atoms: C_24  and  C_25
REMARK   17  A    between atoms: C_25  and  C_26
REMARK   18  A    between atoms: C_26  and  C_27
REMARK                            x       y       z     vdW  Elec       q    Type
REMARK                         _______ _______ _______ _____ _____    ______ ____
ROOT
ATOM      1  C   UNL     1     -36.561  26.287   2.160  0.00  0.00    +0.159 C 
ENDROOT
BRANCH   1   2
ATOM      2  O   UNL     1     -37.236  27.540   2.089  0.00  0.00    -0.380 OA
ATOM      3  H   UNL     1     -36.721  28.213   2.561  0.00  0.00    +0.211 HD
ENDBRANCH   1   2
BRANCH   1   4
ATOM      4  C   UNL     1     -35.556  26.315   3.332  0.00  0.00    +0.168 C 
BRANCH   4   5
ATOM      5  O   UNL     1     -35.297  27.671   3.688  0.00  0.00    -0.379 OA
ATOM      6  H   UNL     1     -35.776  28.262   3.086  0.00  0.00    +0.211 HD
ENDBRANCH   4   5
BRANCH   4   7
ATOM      7  C   UNL     1     -36.047  25.551   4.585  0.00  0.00    +0.169 C 
BRANCH   7   8
ATOM      8  O   UNL     1     -36.552  26.469   5.552  0.00  0.00    -0.379 OA
ATOM      9  H   UNL     1     -36.219  26.230   6.430  0.00  0.00    +0.211 HD
ENDBRANCH   7   8
BRANCH   7  10
ATOM     10  C   UNL     1     -34.940  24.704   5.250  0.00  0.00    +0.169 C 
BRANCH  10  11
ATOM     11  O   UNL     1     -33.666  25.164   4.805  0.00  0.00    -0.379 OA
ATOM     12  H   UNL     1     -32.970  24.595   5.172  0.00  0.00    +0.211 HD
ENDBRANCH  10  11
BRANCH  10  13
ATOM     13  C   UNL     1     -35.049  23.210   4.946  0.00  0.00    +0.169 C 
BRANCH  13  14
ATOM     14  O   UNL     1     -36.294  22.706   5.402  0.00  0.00    -0.379 OA
ATOM     15  H   UNL     1     -36.579  21.979   4.826  0.00  0.00    +0.211 HD
ENDBRANCH  13  14
ENDBRANCH  10  13
ENDBRANCH   7  10
ENDBRANCH   4   7
ENDBRANCH   1   4
BRANCH   1  16
ATOM     16  C   UNL     1     -37.606  25.180   2.325  0.00  0.00    +0.125 C 
BRANCH  16  18
ATOM     17  O   UNL     1     -38.044  22.456   3.112  0.00  0.00    -0.275 OA
ATOM     18  N   UNL     1     -37.246  23.988   1.565  0.00  0.00    -0.275 N 
ATOM     19  C   UNL     1     -37.500  22.697   2.030  0.00  0.00    +0.226 C 
ATOM     20  C   UNL     1     -36.601  24.250   0.281  0.00  0.00    +0.115 C 
BRANCH  19  21
ATOM     21  C   UNL     1     -37.098  21.527   1.147  0.00  0.00    +0.085 C 
BRANCH  21  22
ATOM     22  C   UNL     1     -36.554  20.344   1.948  0.00  0.00    +0.010 C 
BRANCH  22  23
ATOM     23  C   UNL     1     -35.054  20.473   2.230  0.00  0.00    +0.001 C 
BRANCH  23  24
ATOM     24  C   UNL     1     -34.250  20.982   1.029  0.00  0.00    +0.000 C 
BRANCH  24  25
ATOM     25  C   UNL     1     -33.060  20.089   0.671  0.00  0.00    +0.000 C 
BRANCH  25  26
ATOM     26  C   UNL     1     -33.188  18.709   1.321  0.00  0.00    +0.000 C 
BRANCH  26  27
ATOM     27  C   UNL     1     -32.102  17.757   0.820  0.00  0.00    +0.000 C 
ATOM     28  C   UNL     1     -32.702  16.512   0.186  0.00  0.00    +0.000 C 
ENDBRANCH  26  27
ENDBRANCH  25  26
ENDBRANCH  24  25
ENDBRANCH  23  24
ENDBRANCH  22  23
ENDBRANCH  21  22
ENDBRANCH  19  21
ENDBRANCH  16  18
ENDBRANCH   1  16
TORSDOF 18
ENDMDL
MODEL 5
REMARK VINA RESULT:      -4.8      3.820      7.399
REMARK  Name = 5106678
REMARK  18 active torsions:
REMARK  status: ('A' for Active; 'I' for Inactive)
REMARK    1  A    between atoms: C_1  and  O_2
REMARK    2  A    between atoms: C_1  and  C_4
REMARK    3  A    between atoms: C_1  and  C_16
REMARK    4  A    between atoms: C_4  and  O_5
REMARK    5  A    between atoms: C_4  and  C_7
REMARK    6  A    between atoms: C_7  and  O_8
REMARK    7  A    between atoms: C_7  and  C_10
REMARK    8  A    between atoms: C_10  and  O_11
REMARK    9  A    between atoms: C_10  and  C_13
REMARK   10  A    between atoms: C_13  and  O_14
REMARK   11  A    between atoms: C_16  and  N_18
REMARK   12  A    between atoms: C_19  and  C_21
REMARK   13  A    between atoms: C_21  and  C_22
REMARK   14  A    between atoms: C_22  and  C_23
REMARK   15  A    between atoms: C_23  and  C_24
REMARK   16  A    between atoms: C_24  and  C_25
REMARK   17  A    between atoms: C_25  and  C_26
REMARK   18  A    between atoms: C_26  and  C_27
REMARK                            x       y       z     vdW  Elec       q    Type
REMARK                         _______ _______ _______ _____ _____    ______ ____
ROOT
ATOM      1  C   UNL     1     -35.946  25.152   2.924  0.00  0.00    +0.159 C 
ENDROOT
BRANCH   1   2
ATOM      2  O   UNL     1     -35.154  26.313   2.681  0.00  0.00    -0.380 OA
ATOM      3  H   UNL     1     -34.285  26.046   2.340  0.00  0.00    +0.211 HD
ENDBRANCH   1   2
BRANCH   1   4
ATOM      4  C   UNL     1     -36.585  25.256   4.326  0.00  0.00    +0.168 C 
BRANCH   4   5
ATOM      5  O   UNL     1     -37.938  24.812   4.254  0.00  0.00    -0.379 OA
ATOM      6  H   UNL     1     -38.531  25.579   4.244  0.00  0.00    +0.211 HD
ENDBRANCH   4   5
BRANCH   4   7
ATOM      7  C   UNL     1     -35.842  24.434   5.406  0.00  0.00    +0.169 C 
BRANCH   7   8
ATOM      8  O   UNL     1     -34.609  25.067   5.741  0.00  0.00    -0.379 OA
ATOM      9  H   UNL     1     -34.318  25.622   5.001  0.00  0.00    +0.211 HD
ENDBRANCH   7   8
BRANCH   7  10
ATOM     10  C   UNL     1     -35.541  22.986   4.964  0.00  0.00    +0.169 C 
BRANCH  10  11
ATOM     11  O   UNL     1     -36.722  22.408   4.411  0.00  0.00    -0.379 OA
ATOM     12  H   UNL     1     -36.809  22.679   3.482  0.00  0.00    +0.211 HD
ENDBRANCH  10  11
BRANCH  10  13
ATOM     13  C   UNL     1     -35.051  22.090   6.102  0.00  0.00    +0.169 C 
BRANCH  13  14
ATOM     14  O   UNL     1     -35.238  20.725   5.767  0.00  0.00    -0.379 OA
ATOM     15  H   UNL     1     -35.561  20.657   4.855  0.00  0.00    +0.211 HD
ENDBRANCH  13  14
ENDBRANCH  10  13
ENDBRANCH   7  10
ENDBRANCH   4   7
ENDBRANCH   1   4
BRANCH   1  16
ATOM     16  C   UNL     1     -37.002  25.045   1.820  0.00  0.00    +0.125 C 
BRANCH  16  18
ATOM     17  O   UNL     1     -38.512  22.643   2.250  0.00  0.00    -0.275 OA
ATOM     18  N   UNL     1     -36.874  23.795   1.079  0.00  0.00    -0.275 N 
ATOM     19  C   UNL     1     -37.655  22.673   1.360  0.00  0.00    +0.226 C 
ATOM     20  C   UNL     1     -35.866  23.807   0.021  0.00  0.00    +0.115 C 
BRANCH  19  21
ATOM     21  C   UNL     1     -37.449  21.428   0.513  0.00  0.00    +0.085 C 
BRANCH  21  22
ATOM     22  C   UNL     1     -36.856  20.265   1.309  0.00  0.00    +0.010 C 
BRANCH  22  23
ATOM     23  C   UNL     1     -35.337  20.387   1.472  0.00  0.00    +0.001 C 
BRANCH  23  24
ATOM     24  C   UNL     1     -34.560  19.260   0.784  0.00  0.00    +0.000 C 
BRANCH  24  25
ATOM     25  C   UNL     1     -33.314  18.820   1.557  0.00  0.00    +0.000 C 
BRANCH  25  26
ATOM     26  C   UNL     1     -32.369  18.009   0.667  0.00  0.00    +0.000 C 
BRANCH  26  27
ATOM     27  C   UNL     1     -30.999  18.678   0.558  0.00  0.00    +0.000 C 
ATOM     28  C   UNL     1     -31.077  19.984  -0.215  0.00  0.00    +0.000 C 
ENDBRANCH  26  27
ENDBRANCH  25  26
ENDBRANCH  24  25
ENDBRANCH  23  24
ENDBRANCH  22  23
ENDBRANCH  21  22
ENDBRANCH  19  21
ENDBRANCH  16  18
ENDBRANCH   1  16
TORSDOF 18
ENDMDL
MODEL 6
REMARK VINA RESULT:      -4.8      3.238      8.671
REMARK  Name = 5106678
REMARK  18 active torsions:
REMARK  status: ('A' for Active; 'I' for Inactive)
REMARK    1  A    between atoms: C_1  and  O_2
REMARK    2  A    between atoms: C_1  and  C_4
REMARK    3  A    between atoms: C_1  and  C_16
REMARK    4  A    between atoms: C_4  and  O_5
REMARK    5  A    between atoms: C_4  and  C_7
REMARK    6  A    between atoms: C_7  and  O_8
REMARK    7  A    between atoms: C_7  and  C_10
REMARK    8  A    between atoms: C_10  and  O_11
REMARK    9  A    between atoms: C_10  and  C_13
REMARK   10  A    between atoms: C_13  and  O_14
REMARK   11  A    between atoms: C_16  and  N_18
REMARK   12  A    between atoms: C_19  and  C_21
REMARK   13  A    between atoms: C_21  and  C_22
REMARK   14  A    between atoms: C_22  and  C_23
REMARK   15  A    between atoms: C_23  and  C_24
REMARK   16  A    between atoms: C_24  and  C_25
REMARK   17  A    between atoms: C_25  and  C_26
REMARK   18  A    between atoms: C_26  and  C_27
REMARK                            x       y       z     vdW  Elec       q    Type
REMARK                         _______ _______ _______ _____ _____    ______ ____
ROOT
ATOM      1  C   UNL     1     -34.959  26.737   3.912  0.00  0.00    +0.159 C 
ENDROOT
BRANCH   1   2
ATOM      2  O   UNL     1     -35.191  28.132   3.722  0.00  0.00    -0.380 OA
ATOM      3  H   UNL     1     -34.599  28.640   4.299  0.00  0.00    +0.211 HD
ENDBRANCH   1   2
BRANCH   1   4
ATOM      4  C   UNL     1     -33.900  26.543   5.018  0.00  0.00    +0.168 C 
BRANCH   4   5
ATOM      5  O   UNL     1     -33.321  25.247   4.884  0.00  0.00    -0.379 OA
ATOM      6  H   UNL     1     -33.650  24.670   5.592  0.00  0.00    +0.211 HD
ENDBRANCH   4   5
BRANCH   4   7
ATOM      7  C   UNL     1     -32.772  27.603   4.988  0.00  0.00    +0.169 C 
BRANCH   7   8
ATOM      8  O   UNL     1     -31.839  27.294   3.955  0.00  0.00    -0.379 OA
ATOM      9  H   UNL     1     -31.790  28.035   3.331  0.00  0.00    +0.211 HD
ENDBRANCH   7   8
BRANCH   7  10
ATOM     10  C   UNL     1     -32.003  27.708   6.323  0.00  0.00    +0.169 C 
BRANCH  10  11
ATOM     11  O   UNL     1     -32.764  27.081   7.353  0.00  0.00    -0.379 OA
ATOM     12  H   UNL     1     -32.571  27.509   8.203  0.00  0.00    +0.211 HD
ENDBRANCH  10  11
BRANCH  10  13
ATOM     13  C   UNL     1     -31.710  29.147   6.745  0.00  0.00    +0.169 C 
BRANCH  13  14
ATOM     14  O   UNL     1     -30.364  29.266   7.177  0.00  0.00    -0.379 OA
ATOM     15  H   UNL     1     -29.812  28.631   6.695  0.00  0.00    +0.211 HD
ENDBRANCH  13  14
ENDBRANCH  10  13
ENDBRANCH   7  10
ENDBRANCH   4   7
ENDBRANCH   1   4
BRANCH   1  16
ATOM     16  C   UNL     1     -36.290  26.068   4.267  0.00  0.00    +0.125 C 
BRANCH  16  18
ATOM     17  O   UNL     1     -35.876  23.388   5.205  0.00  0.00    -0.275 OA
ATOM     18  N   UNL     1     -36.490  24.841   3.505  0.00  0.00    -0.275 N 
ATOM     19  C   UNL     1     -36.262  23.575   4.047  0.00  0.00    +0.226 C 
ATOM     20  C   UNL     1     -36.948  25.039   2.131  0.00  0.00    +0.115 C 
BRANCH  19  21
ATOM     21  C   UNL     1     -36.521  22.363   3.166  0.00  0.00    +0.085 C 
BRANCH  21  22
ATOM     22  C   UNL     1     -35.525  21.230   3.417  0.00  0.00    +0.010 C 
BRANCH  22  23
ATOM     23  C   UNL     1     -35.343  20.334   2.187  0.00  0.00    +0.001 C 
BRANCH  23  24
ATOM     24  C   UNL     1     -34.506  20.982   1.081  0.00  0.00    +0.000 C 
BRANCH  24  25
ATOM     25  C   UNL     1     -33.318  20.126   0.635  0.00  0.00    +0.000 C 
BRANCH  25  26
ATOM     26  C   UNL     1     -33.227  18.836   1.455  0.00  0.00    +0.000 C 
BRANCH  26  27
ATOM     27  C   UNL     1     -32.072  17.956   0.977  0.00  0.00    +0.000 C 
ATOM     28  C   UNL     1     -30.924  18.791   0.434  0.00  0.00    +0.000 C 
ENDBRANCH  26  27
ENDBRANCH  25  26
ENDBRANCH  24  25
ENDBRANCH  23  24
ENDBRANCH  22  23
ENDBRANCH  21  22
ENDBRANCH  19  21
ENDBRANCH  16  18
ENDBRANCH   1  16
TORSDOF 18
ENDMDL
MODEL 7
REMARK VINA RESULT:      -4.7      3.349      8.077
REMARK  Name = 5106678
REMARK  18 active torsions:
REMARK  status: ('A' for Active; 'I' for Inactive)
REMARK    1  A    between atoms: C_1  and  O_2
REMARK    2  A    between atoms: C_1  and  C_4
REMARK    3  A    between atoms: C_1  and  C_16
REMARK    4  A    between atoms: C_4  and  O_5
REMARK    5  A    between atoms: C_4  and  C_7
REMARK    6  A    between atoms: C_7  and  O_8
REMARK    7  A    between atoms: C_7  and  C_10
REMARK    8  A    between atoms: C_10  and  O_11
REMARK    9  A    between atoms: C_10  and  C_13
REMARK   10  A    between atoms: C_13  and  O_14
REMARK   11  A    between atoms: C_16  and  N_18
REMARK   12  A    between atoms: C_19  and  C_21
REMARK   13  A    between atoms: C_21  and  C_22
REMARK   14  A    between atoms: C_22  and  C_23
REMARK   15  A    between atoms: C_23  and  C_24
REMARK   16  A    between atoms: C_24  and  C_25
REMARK   17  A    between atoms: C_25  and  C_26
REMARK   18  A    between atoms: C_26  and  C_27
REMARK                            x       y       z     vdW  Elec       q    Type
REMARK                         _______ _______ _______ _____ _____    ______ ____
ROOT
ATOM      1  C   UNL     1     -36.641  23.467   2.769  0.00  0.00    +0.159 C 
ENDROOT
BRANCH   1   2
ATOM      2  O   UNL     1     -37.312  22.373   3.389  0.00  0.00    -0.380 OA
ATOM      3  H   UNL     1     -36.676  21.854   3.906  0.00  0.00    +0.211 HD
ENDBRANCH   1   2
BRANCH   1   4
ATOM      4  C   UNL     1     -36.649  24.679   3.726  0.00  0.00    +0.168 C 
BRANCH   4   5
ATOM      5  O   UNL     1     -37.956  24.827   4.277  0.00  0.00    -0.379 OA
ATOM      6  H   UNL     1     -38.434  25.520   3.794  0.00  0.00    +0.211 HD
ENDBRANCH   4   5
BRANCH   4   7
ATOM      7  C   UNL     1     -35.626  24.560   4.881  0.00  0.00    +0.169 C 
BRANCH   7   8
ATOM      8  O   UNL     1     -36.044  23.556   5.804  0.00  0.00    -0.379 OA
ATOM      9  H   UNL     1     -36.595  23.958   6.492  0.00  0.00    +0.211 HD
ENDBRANCH   7   8
BRANCH   7  10
ATOM     10  C   UNL     1     -35.432  25.881   5.657  0.00  0.00    +0.169 C 
BRANCH  10  11
ATOM     11  O   UNL     1     -35.931  26.963   4.872  0.00  0.00    -0.379 OA
ATOM     12  H   UNL     1     -36.301  26.618   4.044  0.00  0.00    +0.211 HD
ENDBRANCH  10  11
BRANCH  10  13
ATOM     13  C   UNL     1     -33.973  26.171   6.010  0.00  0.00    +0.169 C 
BRANCH  13  14
ATOM     14  O   UNL     1     -33.503  27.290   5.275  0.00  0.00    -0.379 OA
ATOM     15  H   UNL     1     -32.784  27.719   5.764  0.00  0.00    +0.211 HD
ENDBRANCH  13  14
ENDBRANCH  10  13
ENDBRANCH   7  10
ENDBRANCH   4   7
ENDBRANCH   1   4
BRANCH   1  16
ATOM     16  C   UNL     1     -35.219  23.026   2.412  0.00  0.00    +0.125 C 
BRANCH  16  18
ATOM     17  O   UNL     1     -35.097  20.235   3.066  0.00  0.00    -0.275 OA
ATOM     18  N   UNL     1     -35.226  21.912   1.470  0.00  0.00    -0.275 N 
ATOM     19  C   UNL     1     -35.163  20.580   1.882  0.00  0.00    +0.226 C 
ATOM     20  C   UNL     1     -35.306  22.298   0.063  0.00  0.00    +0.115 C 
BRANCH  19  21
ATOM     21  C   UNL     1     -35.196  19.499   0.815  0.00  0.00    +0.085 C 
BRANCH  21  22
ATOM     22  C   UNL     1     -33.943  18.622   0.826  0.00  0.00    +0.010 C 
BRANCH  22  23
ATOM     23  C   UNL     1     -32.654  19.449   0.775  0.00  0.00    +0.001 C 
BRANCH  23  24
ATOM     24  C   UNL     1     -31.385  18.593   0.723  0.00  0.00    +0.000 C 
BRANCH  24  25
ATOM     25  C   UNL     1     -30.240  19.249  -0.051  0.00  0.00    +0.000 C 
BRANCH  25  26
ATOM     26  C   UNL     1     -30.693  20.555  -0.710  0.00  0.00    +0.000 C 
BRANCH  26  27
ATOM     27  C   UNL     1     -30.576  20.479  -2.232  0.00  0.00    +0.000 C 
ATOM     28  C   UNL     1     -31.631  19.560  -2.826  0.00  0.00    +0.000 C 
ENDBRANCH  26  27
ENDBRANCH  25  26
ENDBRANCH  24  25
ENDBRANCH  23  24
ENDBRANCH  22  23
ENDBRANCH  21  22
ENDBRANCH  19  21
ENDBRANCH  16  18
ENDBRANCH   1  16
TORSDOF 18
ENDMDL
MODEL 8
REMARK VINA RESULT:      -4.7      2.805      8.068
REMARK  Name = 5106678
REMARK  18 active torsions:
REMARK  status: ('A' for Active; 'I' for Inactive)
REMARK    1  A    between atoms: C_1  and  O_2
REMARK    2  A    between atoms: C_1  and  C_4
REMARK    3  A    between atoms: C_1  and  C_16
REMARK    4  A    between atoms: C_4  and  O_5
REMARK    5  A    between atoms: C_4  and  C_7
REMARK    6  A    between atoms: C_7  and  O_8
REMARK    7  A    between atoms: C_7  and  C_10
REMARK    8  A    between atoms: C_10  and  O_11
REMARK    9  A    between atoms: C_10  and  C_13
REMARK   10  A    between atoms: C_13  and  O_14
REMARK   11  A    between atoms: C_16  and  N_18
REMARK   12  A    between atoms: C_19  and  C_21
REMARK   13  A    between atoms: C_21  and  C_22
REMARK   14  A    between atoms: C_22  and  C_23
REMARK   15  A    between atoms: C_23  and  C_24
REMARK   16  A    between atoms: C_24  and  C_25
REMARK   17  A    between atoms: C_25  and  C_26
REMARK   18  A    between atoms: C_26  and  C_27
REMARK                            x       y       z     vdW  Elec       q    Type
REMARK                         _______ _______ _______ _____ _____    ______ ____
ROOT
ATOM      1  C   UNL     1     -36.597  24.212   3.985  0.00  0.00    +0.159 C 
ENDROOT
BRANCH   1   2
ATOM      2  O   UNL     1     -37.933  24.631   4.252  0.00  0.00    -0.380 OA
ATOM      3  H   UNL     1     -38.318  24.067   4.942  0.00  0.00    +0.211 HD
ENDBRANCH   1   2
BRANCH   1   4
ATOM      4  C   UNL     1     -35.736  24.417   5.251  0.00  0.00    +0.168 C 
BRANCH   4   5
ATOM      5  O   UNL     1     -34.537  23.656   5.125  0.00  0.00    -0.379 OA
ATOM      6  H   UNL     1     -34.427  23.092   5.907  0.00  0.00    +0.211 HD
ENDBRANCH   4   5
BRANCH   4   7
ATOM      7  C   UNL     1     -35.368  25.896   5.516  0.00  0.00    +0.169 C 
BRANCH   7   8
ATOM      8  O   UNL     1     -36.512  26.727   5.323  0.00  0.00    -0.379 OA
ATOM      9  H   UNL     1     -36.777  27.113   6.171  0.00  0.00    +0.211 HD
ENDBRANCH   7   8
BRANCH   7  10
ATOM     10  C   UNL     1     -34.234  26.410   4.603  0.00  0.00    +0.169 C 
BRANCH  10  11
ATOM     11  O   UNL     1     -33.420  27.324   5.336  0.00  0.00    -0.379 OA
ATOM     12  H   UNL     1     -33.121  26.902   6.158  0.00  0.00    +0.211 HD
ENDBRANCH  10  11
BRANCH  10  13
ATOM     13  C   UNL     1     -34.738  27.114   3.343  0.00  0.00    +0.169 C 
BRANCH  13  14
ATOM     14  O   UNL     1     -35.075  28.461   3.635  0.00  0.00    -0.379 OA
ATOM     15  H   UNL     1     -35.228  28.556   4.588  0.00  0.00    +0.211 HD
ENDBRANCH  13  14
ENDBRANCH  10  13
ENDBRANCH   7  10
ENDBRANCH   4   7
ENDBRANCH   1   4
BRANCH   1  16
ATOM     16  C   UNL     1     -36.626  22.746   3.542  0.00  0.00    +0.125 C 
BRANCH  16  18
ATOM     17  O   UNL     1     -38.412  21.567   1.630  0.00  0.00    -0.275 OA
ATOM     18  N   UNL     1     -36.400  22.618   2.107  0.00  0.00    -0.275 N 
ATOM     19  C   UNL     1     -37.330  22.027   1.251  0.00  0.00    +0.226 C 
ATOM     20  C   UNL     1     -35.126  23.156   1.635  0.00  0.00    +0.115 C 
BRANCH  19  21
ATOM     21  C   UNL     1     -36.998  21.963  -0.231  0.00  0.00    +0.085 C 
BRANCH  21  22
ATOM     22  C   UNL     1     -36.870  20.528  -0.744  0.00  0.00    +0.010 C 
BRANCH  22  23
ATOM     23  C   UNL     1     -35.423  20.023  -0.702  0.00  0.00    +0.001 C 
BRANCH  23  24
ATOM     24  C   UNL     1     -35.154  19.043   0.444  0.00  0.00    +0.000 C 
BRANCH  24  25
ATOM     25  C   UNL     1     -34.068  19.521   1.410  0.00  0.00    +0.000 C 
BRANCH  25  26
ATOM     26  C   UNL     1     -32.919  18.512   1.493  0.00  0.00    +0.000 C 
BRANCH  26  27
ATOM     27  C   UNL     1     -31.925  18.707   0.348  0.00  0.00    +0.000 C 
ATOM     28  C   UNL     1     -31.688  20.181   0.061  0.00  0.00    +0.000 C 
ENDBRANCH  26  27
ENDBRANCH  25  26
ENDBRANCH  24  25
ENDBRANCH  23  24
ENDBRANCH  22  23
ENDBRANCH  21  22
ENDBRANCH  19  21
ENDBRANCH  16  18
ENDBRANCH   1  16
TORSDOF 18
ENDMDL
MODEL 9
REMARK VINA RESULT:      -4.7      3.122      7.687
REMARK  Name = 5106678
REMARK  18 active torsions:
REMARK  status: ('A' for Active; 'I' for Inactive)
REMARK    1  A    between atoms: C_1  and  O_2
REMARK    2  A    between atoms: C_1  and  C_4
REMARK    3  A    between atoms: C_1  and  C_16
REMARK    4  A    between atoms: C_4  and  O_5
REMARK    5  A    between atoms: C_4  and  C_7
REMARK    6  A    between atoms: C_7  and  O_8
REMARK    7  A    between atoms: C_7  and  C_10
REMARK    8  A    between atoms: C_10  and  O_11
REMARK    9  A    between atoms: C_10  and  C_13
REMARK   10  A    between atoms: C_13  and  O_14
REMARK   11  A    between atoms: C_16  and  N_18
REMARK   12  A    between atoms: C_19  and  C_21
REMARK   13  A    between atoms: C_21  and  C_22
REMARK   14  A    between atoms: C_22  and  C_23
REMARK   15  A    between atoms: C_23  and  C_24
REMARK   16  A    between atoms: C_24  and  C_25
REMARK   17  A    between atoms: C_25  and  C_26
REMARK   18  A    between atoms: C_26  and  C_27
REMARK                            x       y       z     vdW  Elec       q    Type
REMARK                         _______ _______ _______ _____ _____    ______ ____
ROOT
ATOM      1  C   UNL     1     -36.924  23.920   2.294  0.00  0.00    +0.159 C 
ENDROOT
BRANCH   1   2
ATOM      2  O   UNL     1     -37.542  24.628   1.222  0.00  0.00    -0.380 OA
ATOM      3  H   UNL     1     -38.438  24.894   1.483  0.00  0.00    +0.211 HD
ENDBRANCH   1   2
BRANCH   1   4
ATOM      4  C   UNL     1     -36.975  24.786   3.572  0.00  0.00    +0.168 C 
BRANCH   4   5
ATOM      5  O   UNL     1     -38.261  24.650   4.173  0.00  0.00    -0.379 OA
ATOM      6  H   UNL     1     -38.826  24.100   3.608  0.00  0.00    +0.211 HD
ENDBRANCH   4   5
BRANCH   4   7
ATOM      7  C   UNL     1     -35.891  24.416   4.612  0.00  0.00    +0.169 C 
BRANCH   7   8
ATOM      8  O   UNL     1     -36.283  23.252   5.335  0.00  0.00    -0.379 OA
ATOM      9  H   UNL     1     -37.176  22.988   5.065  0.00  0.00    +0.211 HD
ENDBRANCH   7   8
BRANCH   7  10
ATOM     10  C   UNL     1     -35.614  25.548   5.626  0.00  0.00    +0.169 C 
BRANCH  10  11
ATOM     11  O   UNL     1     -36.535  26.613   5.404  0.00  0.00    -0.379 OA
ATOM     12  H   UNL     1     -37.130  26.379   4.673  0.00  0.00    +0.211 HD
ENDBRANCH  10  11
BRANCH  10  13
ATOM     13  C   UNL     1     -34.194  26.109   5.540  0.00  0.00    +0.169 C 
BRANCH  13  14
ATOM     14  O   UNL     1     -33.405  25.313   4.671  0.00  0.00    -0.379 OA
ATOM     15  H   UNL     1     -33.554  25.591   3.754  0.00  0.00    +0.211 HD
ENDBRANCH  13  14
ENDBRANCH  10  13
ENDBRANCH   7  10
ENDBRANCH   4   7
ENDBRANCH   1   4
BRANCH   1  16
ATOM     16  C   UNL     1     -37.650  22.584   2.477  0.00  0.00    +0.125 C 
BRANCH  16  18
ATOM     17  O   UNL     1     -35.522  20.908   3.422  0.00  0.00    -0.275 OA
ATOM     18  N   UNL     1     -36.993  21.514   1.735  0.00  0.00    -0.275 N 
ATOM     19  C   UNL     1     -35.962  20.747   2.279  0.00  0.00    +0.226 C 
ATOM     20  C   UNL     1     -37.498  21.306   0.380  0.00  0.00    +0.115 C 
BRANCH  19  21
ATOM     21  C   UNL     1     -35.361  19.646   1.421  0.00  0.00    +0.085 C 
BRANCH  21  22
ATOM     22  C   UNL     1     -33.849  19.795   1.245  0.00  0.00    +0.010 C 
BRANCH  22  23
ATOM     23  C   UNL     1     -33.111  18.462   1.412  0.00  0.00    +0.001 C 
BRANCH  23  24
ATOM     24  C   UNL     1     -31.652  18.513   0.946  0.00  0.00    +0.000 C 
BRANCH  24  25
ATOM     25  C   UNL     1     -31.491  19.006  -0.494  0.00  0.00    +0.000 C 
BRANCH  25  26
ATOM     26  C   UNL     1     -30.585  20.238  -0.559  0.00  0.00    +0.000 C 
BRANCH  26  27
ATOM     27  C   UNL     1     -31.394  21.509  -0.818  0.00  0.00    +0.000 C 
ATOM     28  C   UNL     1     -32.078  21.467  -2.175  0.00  0.00    +0.000 C 
ENDBRANCH  26  27
ENDBRANCH  25  26
ENDBRANCH  24  25
ENDBRANCH  23  24
ENDBRANCH  22  23
ENDBRANCH  21  22
ENDBRANCH  19  21
ENDBRANCH  16  18
ENDBRANCH   1  16
TORSDOF 18
ENDMDL
