MODEL 1
REMARK VINA RESULT:      -7.0      0.000      0.000
REMARK  Name = 5625
REMARK  5 active torsions:
REMARK  status: ('A' for Active; 'I' for Inactive)
REMARK    1  A    between atoms: C_8  and  C_10
REMARK    2  A    between atoms: C_16  and  N_19
REMARK    3  A    between atoms: N_19  and  S_21
REMARK    4  A    between atoms: C_27  and  N_31
REMARK    5  A    between atoms: N_31  and  C_33
REMARK                            x       y       z     vdW  Elec       q    Type
REMARK                         _______ _______ _______ _____ _____    ______ ____
ROOT
ATOM      1  O   UNL     1     -37.292  22.192   2.615  0.00  0.00    -0.269 OA
ATOM      2  N   UNL     1     -34.380  25.958   4.094  0.00  0.00    -0.289 N 
ATOM      3  N   UNL     1     -36.180  24.212   2.801  0.00  0.00    -0.272 N 
ATOM      4  C   UNL     1     -34.492  24.562   4.551  0.00  0.00    +0.114 C 
ATOM      5  C   UNL     1     -35.558  26.512   3.413  0.00  0.00    +0.114 C 
ATOM      6  C   UNL     1     -34.973  23.662   3.414  0.00  0.00    +0.115 C 
ATOM      7  C   UNL     1     -36.012  25.577   2.294  0.00  0.00    +0.115 C 
ATOM      8  C   UNL     1     -37.335  23.421   2.681  0.00  0.00    +0.263 C 
ATOM      9  N   UNL     1     -33.347  26.598   6.159  0.00  0.00    -0.228 NA
ATOM     10  C   UNL     1     -33.534  26.810   4.814  0.00  0.00    +0.145 C 
ATOM     11  C   UNL     1     -32.884  27.874   4.157  0.00  0.00    +0.077 C 
ATOM     12  C   UNL     1     -32.046  28.716   4.880  0.00  0.00    +0.019 C 
ATOM     13  C   UNL     1     -32.525  27.437   6.827  0.00  0.00    +0.100 C 
ATOM     14  C   UNL     1     -31.857  28.500   6.240  0.00  0.00    +0.022 C 
ENDROOT
BRANCH   8  16
ATOM     15  N   UNL     1     -39.531  23.950   1.636  0.00  0.00    -0.309 N 
ATOM     16  C   UNL     1     -38.618  24.115   2.638  0.00  0.00    +0.103 C 
ATOM     17  C   UNL     1     -39.125  25.016   3.540  0.00  0.00    +0.020 C 
ATOM     18  C   UNL     1     -40.405  25.420   3.068  0.00  0.00    +0.016 C 
ATOM     19  C   UNL     1     -40.636  24.736   1.873  0.00  0.00    +0.049 C 
ATOM     20  C   UNL     1     -41.393  26.304   3.545  0.00  0.00    +0.017 C 
ATOM     21  C   UNL     1     -41.810  24.893   1.128  0.00  0.00    +0.016 C 
ATOM     22  C   UNL     1     -42.573  26.471   2.810  0.00  0.00    +0.065 C 
ATOM     23  C   UNL     1     -42.775  25.775   1.620  0.00  0.00    +0.017 C 
ATOM     24  H   UNL     1     -39.416  23.356   0.859  0.00  0.00    +0.152 HD
BRANCH  22  25
ATOM     25  N   UNL     1     -43.580  27.364   3.288  0.00  0.00    -0.219 N 
ATOM     26  H   UNL     1     -44.491  27.044   3.478  0.00  0.00    +0.173 HD
BRANCH  25  27
ATOM     27  S   UNL     1     -43.155  29.016   3.526  0.00  0.00    +0.056 S 
ATOM     28  O   UNL     1     -42.626  29.163   4.870  0.00  0.00    -0.154 OA
ATOM     29  O   UNL     1     -42.426  29.533   2.386  0.00  0.00    -0.154 OA
ATOM     30  C   UNL     1     -44.771  29.758   3.524  0.00  0.00    +0.200 C 
ENDBRANCH  25  27
ENDBRANCH  22  25
ENDBRANCH   8  16
BRANCH  11  31
ATOM     31  N   UNL     1     -33.076  28.090   2.780  0.00  0.00    -0.332 N 
ATOM     32  H   UNL     1     -33.084  27.311   2.178  0.00  0.00    +0.147 HD
BRANCH  31  33
ATOM     33  C   UNL     1     -33.260  29.392   2.214  0.00  0.00    +0.069 C 
ATOM     34  C   UNL     1     -33.142  29.310   0.698  0.00  0.00    +0.021 C 
ATOM     35  C   UNL     1     -34.619  29.937   2.637  0.00  0.00    +0.021 C 
ENDBRANCH  31  33
ENDBRANCH  11  31
TORSDOF 5
ENDMDL
MODEL 2
REMARK VINA RESULT:      -6.7      1.635      2.009
REMARK  Name = 5625
REMARK  5 active torsions:
REMARK  status: ('A' for Active; 'I' for Inactive)
REMARK    1  A    between atoms: C_8  and  C_10
REMARK    2  A    between atoms: C_16  and  N_19
REMARK    3  A    between atoms: N_19  and  S_21
REMARK    4  A    between atoms: C_27  and  N_31
REMARK    5  A    between atoms: N_31  and  C_33
REMARK                            x       y       z     vdW  Elec       q    Type
REMARK                         _______ _______ _______ _____ _____    ______ ____
ROOT
ATOM      1  O   UNL     1     -38.005  22.650   3.001  0.00  0.00    -0.269 OA
ATOM      2  N   UNL     1     -34.499  25.965   4.254  0.00  0.00    -0.289 N 
ATOM      3  N   UNL     1     -36.542  24.443   3.044  0.00  0.00    -0.272 N 
ATOM      4  C   UNL     1     -34.888  24.673   4.845  0.00  0.00    +0.114 C 
ATOM      5  C   UNL     1     -35.525  26.645   3.452  0.00  0.00    +0.114 C 
ATOM      6  C   UNL     1     -35.484  23.754   3.779  0.00  0.00    +0.115 C 
ATOM      7  C   UNL     1     -36.102  25.689   2.410  0.00  0.00    +0.115 C 
ATOM      8  C   UNL     1     -37.820  23.867   2.938  0.00  0.00    +0.263 C 
ATOM      9  N   UNL     1     -33.445  26.633   6.299  0.00  0.00    -0.228 NA
ATOM     10  C   UNL     1     -33.536  26.724   4.931  0.00  0.00    +0.145 C 
ATOM     11  C   UNL     1     -32.674  27.571   4.208  0.00  0.00    +0.077 C 
ATOM     12  C   UNL     1     -31.722  28.323   4.888  0.00  0.00    +0.019 C 
ATOM     13  C   UNL     1     -32.506  27.378   6.925  0.00  0.00    +0.100 C 
ATOM     14  C   UNL     1     -31.629  28.229   6.272  0.00  0.00    +0.022 C 
ENDROOT
BRANCH   8  16
ATOM     15  N   UNL     1     -39.780  25.162   3.758  0.00  0.00    -0.309 N 
ATOM     16  C   UNL     1     -38.947  24.773   2.749  0.00  0.00    +0.103 C 
ATOM     17  C   UNL     1     -39.366  25.373   1.588  0.00  0.00    +0.020 C 
ATOM     18  C   UNL     1     -40.507  26.164   1.903  0.00  0.00    +0.016 C 
ATOM     19  C   UNL     1     -40.745  26.014   3.271  0.00  0.00    +0.049 C 
ATOM     20  C   UNL     1     -41.361  26.996   1.153  0.00  0.00    +0.017 C 
ATOM     21  C   UNL     1     -41.799  26.657   3.928  0.00  0.00    +0.016 C 
ATOM     22  C   UNL     1     -42.421  27.645   1.798  0.00  0.00    +0.065 C 
ATOM     23  C   UNL     1     -42.634  27.477   3.164  0.00  0.00    +0.017 C 
ATOM     24  H   UNL     1     -39.702  24.875   4.697  0.00  0.00    +0.152 HD
BRANCH  22  25
ATOM     25  N   UNL     1     -43.291  28.492   1.044  0.00  0.00    -0.219 N 
ATOM     26  H   UNL     1     -44.039  28.116   0.526  0.00  0.00    +0.173 HD
BRANCH  25  27
ATOM     27  S   UNL     1     -42.997  30.188   1.069  0.00  0.00    +0.056 S 
ATOM     28  O   UNL     1     -43.859  30.788   2.072  0.00  0.00    -0.154 OA
ATOM     29  O   UNL     1     -41.575  30.469   1.057  0.00  0.00    -0.154 OA
ATOM     30  C   UNL     1     -43.657  30.644  -0.518  0.00  0.00    +0.200 C 
ENDBRANCH  25  27
ENDBRANCH  22  25
ENDBRANCH   8  16
BRANCH  11  31
ATOM     31  N   UNL     1     -32.769  27.664   2.807  0.00  0.00    -0.332 N 
ATOM     32  H   UNL     1     -33.516  28.176   2.419  0.00  0.00    +0.147 HD
BRANCH  31  33
ATOM     33  C   UNL     1     -31.830  27.047   1.919  0.00  0.00    +0.069 C 
ATOM     34  C   UNL     1     -32.488  25.860   1.228  0.00  0.00    +0.021 C 
ATOM     35  C   UNL     1     -31.343  28.077   0.909  0.00  0.00    +0.021 C 
ENDBRANCH  31  33
ENDBRANCH  11  31
TORSDOF 5
ENDMDL
MODEL 3
REMARK VINA RESULT:      -6.7      3.722      9.361
REMARK  Name = 5625
REMARK  5 active torsions:
REMARK  status: ('A' for Active; 'I' for Inactive)
REMARK    1  A    between atoms: C_8  and  C_10
REMARK    2  A    between atoms: C_16  and  N_19
REMARK    3  A    between atoms: N_19  and  S_21
REMARK    4  A    between atoms: C_27  and  N_31
REMARK    5  A    between atoms: N_31  and  C_33
REMARK                            x       y       z     vdW  Elec       q    Type
REMARK                         _______ _______ _______ _____ _____    ______ ____
ROOT
ATOM      1  O   UNL     1     -43.141  24.942   1.078  0.00  0.00    -0.269 OA
ATOM      2  N   UNL     1     -43.953  29.197   3.545  0.00  0.00    -0.289 N 
ATOM      3  N   UNL     1     -43.233  26.611   2.678  0.00  0.00    -0.272 N 
ATOM      4  C   UNL     1     -44.419  28.715   2.233  0.00  0.00    +0.114 C 
ATOM      5  C   UNL     1     -42.723  28.581   4.061  0.00  0.00    +0.114 C 
ATOM      6  C   UNL     1     -44.493  27.189   2.218  0.00  0.00    +0.115 C 
ATOM      7  C   UNL     1     -42.835  27.058   4.016  0.00  0.00    +0.115 C 
ATOM      8  C   UNL     1     -42.558  25.666   1.887  0.00  0.00    +0.263 C 
ATOM      9  N   UNL     1     -44.395  31.467   2.918  0.00  0.00    -0.228 NA
ATOM     10  C   UNL     1     -44.266  30.515   3.901  0.00  0.00    +0.145 C 
ATOM     11  C   UNL     1     -44.446  30.852   5.256  0.00  0.00    +0.077 C 
ATOM     12  C   UNL     1     -44.756  32.163   5.601  0.00  0.00    +0.019 C 
ATOM     13  C   UNL     1     -44.699  32.730   3.292  0.00  0.00    +0.100 C 
ATOM     14  C   UNL     1     -44.888  33.126   4.606  0.00  0.00    +0.022 C 
ENDROOT
BRANCH   8  16
ATOM     15  N   UNL     1     -40.229  26.470   1.534  0.00  0.00    -0.309 N 
ATOM     16  C   UNL     1     -41.112  25.566   2.053  0.00  0.00    +0.103 C 
ATOM     17  C   UNL     1     -40.400  24.602   2.722  0.00  0.00    +0.020 C 
ATOM     18  C   UNL     1     -39.020  24.931   2.606  0.00  0.00    +0.016 C 
ATOM     19  C   UNL     1     -38.941  26.107   1.857  0.00  0.00    +0.049 C 
ATOM     20  C   UNL     1     -37.828  24.340   3.068  0.00  0.00    +0.017 C 
ATOM     21  C   UNL     1     -37.724  26.723   1.546  0.00  0.00    +0.016 C 
ATOM     22  C   UNL     1     -36.603  24.945   2.764  0.00  0.00    +0.065 C 
ATOM     23  C   UNL     1     -36.555  26.119   2.015  0.00  0.00    +0.017 C 
ATOM     24  H   UNL     1     -40.478  27.264   1.008  0.00  0.00    +0.152 HD
BRANCH  22  25
ATOM     25  N   UNL     1     -35.390  24.352   3.231  0.00  0.00    -0.219 N 
ATOM     26  H   UNL     1     -34.877  23.734   2.661  0.00  0.00    +0.173 HD
BRANCH  25  27
ATOM     27  S   UNL     1     -34.847  24.751   4.816  0.00  0.00    +0.056 S 
ATOM     28  O   UNL     1     -33.413  24.969   4.767  0.00  0.00    -0.154 OA
ATOM     29  O   UNL     1     -35.721  25.729   5.433  0.00  0.00    -0.154 OA
ATOM     30  C   UNL     1     -35.105  23.193   5.636  0.00  0.00    +0.200 C 
ENDBRANCH  25  27
ENDBRANCH  22  25
ENDBRANCH   8  16
BRANCH  11  31
ATOM     31  N   UNL     1     -44.313  29.877   6.261  0.00  0.00    -0.332 N 
ATOM     32  H   UNL     1     -43.794  29.064   6.062  0.00  0.00    +0.147 HD
BRANCH  31  33
ATOM     33  C   UNL     1     -44.899  30.011   7.561  0.00  0.00    +0.069 C 
ATOM     34  C   UNL     1     -45.559  28.698   7.960  0.00  0.00    +0.021 C 
ATOM     35  C   UNL     1     -43.822  30.416   8.558  0.00  0.00    +0.021 C 
ENDBRANCH  31  33
ENDBRANCH  11  31
TORSDOF 5
ENDMDL
MODEL 4
REMARK VINA RESULT:      -6.6      3.858      6.034
REMARK  Name = 5625
REMARK  5 active torsions:
REMARK  status: ('A' for Active; 'I' for Inactive)
REMARK    1  A    between atoms: C_8  and  C_10
REMARK    2  A    between atoms: C_16  and  N_19
REMARK    3  A    between atoms: N_19  and  S_21
REMARK    4  A    between atoms: C_27  and  N_31
REMARK    5  A    between atoms: N_31  and  C_33
REMARK                            x       y       z     vdW  Elec       q    Type
REMARK                         _______ _______ _______ _____ _____    ______ ____
ROOT
ATOM      1  O   UNL     1     -39.551  27.840   0.684  0.00  0.00    -0.269 OA
ATOM      2  N   UNL     1     -37.199  23.598   1.833  0.00  0.00    -0.289 N 
ATOM      3  N   UNL     1     -38.775  25.936   1.744  0.00  0.00    -0.272 N 
ATOM      4  C   UNL     1     -37.048  24.532   0.705  0.00  0.00    +0.114 C 
ATOM      5  C   UNL     1     -38.497  23.618   2.521  0.00  0.00    +0.114 C 
ATOM      6  C   UNL     1     -37.454  25.945   1.121  0.00  0.00    +0.115 C 
ATOM      7  C   UNL     1     -38.870  25.049   2.907  0.00  0.00    +0.115 C 
ATOM      8  C   UNL     1     -39.791  26.779   1.263  0.00  0.00    +0.263 C 
ATOM      9  N   UNL     1     -36.142  21.848   0.584  0.00  0.00    -0.228 NA
ATOM     10  C   UNL     1     -36.455  22.412   1.798  0.00  0.00    +0.145 C 
ATOM     11  C   UNL     1     -36.036  21.809   3.000  0.00  0.00    +0.077 C 
ATOM     12  C   UNL     1     -35.300  20.630   2.955  0.00  0.00    +0.019 C 
ATOM     13  C   UNL     1     -35.423  20.704   0.581  0.00  0.00    +0.100 C 
ATOM     14  C   UNL     1     -34.982  20.061   1.727  0.00  0.00    +0.022 C 
ENDROOT
BRANCH   8  16
ATOM     15  N   UNL     1     -41.960  26.820   2.482  0.00  0.00    -0.309 N 
ATOM     16  C   UNL     1     -41.169  26.351   1.472  0.00  0.00    +0.103 C 
ATOM     17  C   UNL     1     -41.896  25.446   0.739  0.00  0.00    +0.020 C 
ATOM     18  C   UNL     1     -43.188  25.358   1.329  0.00  0.00    +0.016 C 
ATOM     19  C   UNL     1     -43.202  26.231   2.419  0.00  0.00    +0.049 C 
ATOM     20  C   UNL     1     -44.352  24.619   1.037  0.00  0.00    +0.017 C 
ATOM     21  C   UNL     1     -44.325  26.400   3.236  0.00  0.00    +0.016 C 
ATOM     22  C   UNL     1     -45.483  24.778   1.846  0.00  0.00    +0.065 C 
ATOM     23  C   UNL     1     -45.467  25.656   2.928  0.00  0.00    +0.017 C 
ATOM     24  H   UNL     1     -41.682  27.483   3.155  0.00  0.00    +0.152 HD
BRANCH  22  25
ATOM     25  N   UNL     1     -46.667  24.033   1.556  0.00  0.00    -0.219 N 
ATOM     26  H   UNL     1     -46.788  23.120   1.905  0.00  0.00    +0.173 HD
BRANCH  25  27
ATOM     27  S   UNL     1     -47.877  24.776   0.582  0.00  0.00    +0.056 S 
ATOM     28  O   UNL     1     -47.326  25.994   0.018  0.00  0.00    -0.154 OA
ATOM     29  O   UNL     1     -48.530  23.800  -0.267  0.00  0.00    -0.154 OA
ATOM     30  C   UNL     1     -49.034  25.267   1.840  0.00  0.00    +0.200 C 
ENDBRANCH  25  27
ENDBRANCH  22  25
ENDBRANCH   8  16
BRANCH  11  31
ATOM     31  N   UNL     1     -36.359  22.386   4.242  0.00  0.00    -0.332 N 
ATOM     32  H   UNL     1     -37.305  22.414   4.516  0.00  0.00    +0.147 HD
BRANCH  31  33
ATOM     33  C   UNL     1     -35.375  22.936   5.124  0.00  0.00    +0.069 C 
ATOM     34  C   UNL     1     -35.699  24.400   5.398  0.00  0.00    +0.021 C 
ATOM     35  C   UNL     1     -35.346  22.124   6.413  0.00  0.00    +0.021 C 
ENDBRANCH  31  33
ENDBRANCH  11  31
TORSDOF 5
ENDMDL
MODEL 5
REMARK VINA RESULT:      -6.6      2.542      4.047
REMARK  Name = 5625
REMARK  5 active torsions:
REMARK  status: ('A' for Active; 'I' for Inactive)
REMARK    1  A    between atoms: C_8  and  C_10
REMARK    2  A    between atoms: C_16  and  N_19
REMARK    3  A    between atoms: N_19  and  S_21
REMARK    4  A    between atoms: C_27  and  N_31
REMARK    5  A    between atoms: N_31  and  C_33
REMARK                            x       y       z     vdW  Elec       q    Type
REMARK                         _______ _______ _______ _____ _____    ______ ____
ROOT
ATOM      1  O   UNL     1     -42.159  24.013   0.524  0.00  0.00    -0.269 OA
ATOM      2  N   UNL     1     -37.754  24.522   2.802  0.00  0.00    -0.289 N 
ATOM      3  N   UNL     1     -40.134  24.806   1.313  0.00  0.00    -0.272 N 
ATOM      4  C   UNL     1     -38.643  23.361   2.625  0.00  0.00    +0.114 C 
ATOM      5  C   UNL     1     -38.389  25.843   2.703  0.00  0.00    +0.114 C 
ATOM      6  C   UNL     1     -39.468  23.506   1.347  0.00  0.00    +0.115 C 
ATOM      7  C   UNL     1     -39.213  25.941   1.421  0.00  0.00    +0.115 C 
ATOM      8  C   UNL     1     -41.524  24.884   1.121  0.00  0.00    +0.263 C 
ATOM      9  N   UNL     1     -36.668  23.466   4.658  0.00  0.00    -0.228 NA
ATOM     10  C   UNL     1     -36.625  24.357   3.613  0.00  0.00    +0.145 C 
ATOM     11  C   UNL     1     -35.459  25.103   3.354  0.00  0.00    +0.077 C 
ATOM     12  C   UNL     1     -34.342  24.935   4.165  0.00  0.00    +0.019 C 
ATOM     13  C   UNL     1     -35.563  23.328   5.423  0.00  0.00    +0.100 C 
ATOM     14  C   UNL     1     -34.387  24.032   5.222  0.00  0.00    +0.022 C 
ENDROOT
BRANCH   8  16
ATOM     15  N   UNL     1     -42.437  27.192   0.948  0.00  0.00    -0.309 N 
ATOM     16  C   UNL     1     -42.208  26.052   1.664  0.00  0.00    +0.103 C 
ATOM     17  C   UNL     1     -42.723  26.222   2.925  0.00  0.00    +0.020 C 
ATOM     18  C   UNL     1     -43.292  27.526   2.982  0.00  0.00    +0.016 C 
ATOM     19  C   UNL     1     -43.099  28.112   1.729  0.00  0.00    +0.049 C 
ATOM     20  C   UNL     1     -43.955  28.265   3.982  0.00  0.00    +0.017 C 
ATOM     21  C   UNL     1     -43.537  29.406   1.426  0.00  0.00    +0.016 C 
ATOM     22  C   UNL     1     -44.398  29.560   3.692  0.00  0.00    +0.065 C 
ATOM     23  C   UNL     1     -44.192  30.120   2.433  0.00  0.00    +0.017 C 
ATOM     24  H   UNL     1     -42.168  27.335   0.012  0.00  0.00    +0.152 HD
BRANCH  22  25
ATOM     25  N   UNL     1     -45.073  30.315   4.701  0.00  0.00    -0.219 N 
ATOM     26  H   UNL     1     -46.055  30.310   4.764  0.00  0.00    +0.173 HD
BRANCH  25  27
ATOM     27  S   UNL     1     -44.119  31.231   5.805  0.00  0.00    +0.056 S 
ATOM     28  O   UNL     1     -43.063  30.377   6.315  0.00  0.00    -0.154 OA
ATOM     29  O   UNL     1     -43.812  32.540   5.263  0.00  0.00    -0.154 OA
ATOM     30  C   UNL     1     -45.291  31.448   7.126  0.00  0.00    +0.200 C 
ENDBRANCH  25  27
ENDBRANCH  22  25
ENDBRANCH   8  16
BRANCH  11  31
ATOM     31  N   UNL     1     -35.415  26.017   2.285  0.00  0.00    -0.332 N 
ATOM     32  H   UNL     1     -36.056  25.906   1.544  0.00  0.00    +0.147 HD
BRANCH  31  33
ATOM     33  C   UNL     1     -34.482  27.100   2.222  0.00  0.00    +0.069 C 
ATOM     34  C   UNL     1     -33.657  26.989   0.946  0.00  0.00    +0.021 C 
ATOM     35  C   UNL     1     -35.239  28.420   2.279  0.00  0.00    +0.021 C 
ENDBRANCH  31  33
ENDBRANCH  11  31
TORSDOF 5
ENDMDL
MODEL 6
REMARK VINA RESULT:      -6.5      6.603      9.477
REMARK  Name = 5625
REMARK  5 active torsions:
REMARK  status: ('A' for Active; 'I' for Inactive)
REMARK    1  A    between atoms: C_8  and  C_10
REMARK    2  A    between atoms: C_16  and  N_19
REMARK    3  A    between atoms: N_19  and  S_21
REMARK    4  A    between atoms: C_27  and  N_31
REMARK    5  A    between atoms: N_31  and  C_33
REMARK                            x       y       z     vdW  Elec       q    Type
REMARK                         _______ _______ _______ _____ _____    ______ ____
ROOT
ATOM      1  O   UNL     1     -37.710  19.529   0.307  0.00  0.00    -0.269 OA
ATOM      2  N   UNL     1     -33.172  17.597  -0.415  0.00  0.00    -0.289 N 
ATOM      3  N   UNL     1     -35.452  19.228  -0.094  0.00  0.00    -0.272 N 
ATOM      4  C   UNL     1     -34.500  16.973  -0.297  0.00  0.00    +0.114 C 
ATOM      5  C   UNL     1     -33.027  18.928   0.191  0.00  0.00    +0.114 C 
ATOM      6  C   UNL     1     -35.590  17.937  -0.764  0.00  0.00    +0.115 C 
ATOM      7  C   UNL     1     -34.141  19.855  -0.291  0.00  0.00    +0.115 C 
ATOM      8  C   UNL     1     -36.540  19.788   0.596  0.00  0.00    +0.263 C 
ATOM      9  N   UNL     1     -32.099  15.527   0.134  0.00  0.00    -0.228 NA
ATOM     10  C   UNL     1     -32.060  16.749  -0.493  0.00  0.00    +0.145 C 
ATOM     11  C   UNL     1     -30.917  17.154  -1.208  0.00  0.00    +0.077 C 
ATOM     12  C   UNL     1     -29.817  16.306  -1.279  0.00  0.00    +0.019 C 
ATOM     13  C   UNL     1     -31.012  14.730   0.041  0.00  0.00    +0.100 C 
ATOM     14  C   UNL     1     -29.858  15.069  -0.646  0.00  0.00    +0.022 C 
ENDROOT
BRANCH   8  16
ATOM     15  N   UNL     1     -35.815  20.291   2.922  0.00  0.00    -0.309 N 
ATOM     16  C   UNL     1     -36.238  20.702   1.691  0.00  0.00    +0.103 C 
ATOM     17  C   UNL     1     -36.318  22.072   1.697  0.00  0.00    +0.020 C 
ATOM     18  C   UNL     1     -35.926  22.518   2.991  0.00  0.00    +0.016 C 
ATOM     19  C   UNL     1     -35.615  21.380   3.739  0.00  0.00    +0.049 C 
ATOM     20  C   UNL     1     -35.805  23.783   3.598  0.00  0.00    +0.017 C 
ATOM     21  C   UNL     1     -35.188  21.446   5.070  0.00  0.00    +0.016 C 
ATOM     22  C   UNL     1     -35.379  23.864   4.929  0.00  0.00    +0.065 C 
ATOM     23  C   UNL     1     -35.075  22.712   5.652  0.00  0.00    +0.017 C 
ATOM     24  H   UNL     1     -35.673  19.353   3.187  0.00  0.00    +0.152 HD
BRANCH  22  25
ATOM     25  N   UNL     1     -35.252  25.144   5.552  0.00  0.00    -0.219 N 
ATOM     26  H   UNL     1     -35.842  25.405   6.295  0.00  0.00    +0.173 HD
BRANCH  25  27
ATOM     27  S   UNL     1     -34.037  26.215   4.967  0.00  0.00    +0.056 S 
ATOM     28  O   UNL     1     -33.052  25.437   4.240  0.00  0.00    -0.154 OA
ATOM     29  O   UNL     1     -34.630  27.396   4.371  0.00  0.00    -0.154 OA
ATOM     30  C   UNL     1     -33.282  26.699   6.503  0.00  0.00    +0.200 C 
ENDBRANCH  25  27
ENDBRANCH  22  25
ENDBRANCH   8  16
BRANCH  11  31
ATOM     31  N   UNL     1     -30.877  18.406  -1.848  0.00  0.00    -0.332 N 
ATOM     32  H   UNL     1     -31.703  18.750  -2.261  0.00  0.00    +0.147 HD
BRANCH  31  33
ATOM     33  C   UNL     1     -29.692  19.205  -1.927  0.00  0.00    +0.069 C 
ATOM     34  C   UNL     1     -29.680  19.970  -3.244  0.00  0.00    +0.021 C 
ATOM     35  C   UNL     1     -29.643  20.151  -0.735  0.00  0.00    +0.021 C 
ENDBRANCH  31  33
ENDBRANCH  11  31
TORSDOF 5
ENDMDL
MODEL 7
REMARK VINA RESULT:      -6.5      7.363      9.803
REMARK  Name = 5625
REMARK  5 active torsions:
REMARK  status: ('A' for Active; 'I' for Inactive)
REMARK    1  A    between atoms: C_8  and  C_10
REMARK    2  A    between atoms: C_16  and  N_19
REMARK    3  A    between atoms: N_19  and  S_21
REMARK    4  A    between atoms: C_27  and  N_31
REMARK    5  A    between atoms: N_31  and  C_33
REMARK                            x       y       z     vdW  Elec       q    Type
REMARK                         _______ _______ _______ _____ _____    ______ ____
ROOT
ATOM      1  O   UNL     1     -34.847  17.617  -1.479  0.00  0.00    -0.269 OA
ATOM      2  N   UNL     1     -35.637  20.769   2.301  0.00  0.00    -0.289 N 
ATOM      3  N   UNL     1     -35.698  19.244  -0.071  0.00  0.00    -0.272 N 
ATOM      4  C   UNL     1     -34.508  19.879   1.981  0.00  0.00    +0.114 C 
ATOM      5  C   UNL     1     -36.933  20.408   1.710  0.00  0.00    +0.114 C 
ATOM      6  C   UNL     1     -34.408  19.661   0.472  0.00  0.00    +0.115 C 
ATOM      7  C   UNL     1     -36.785  20.187   0.205  0.00  0.00    +0.115 C 
ATOM      8  C   UNL     1     -35.797  18.070  -0.839  0.00  0.00    +0.263 C 
ATOM      9  N   UNL     1     -34.964  20.871   4.598  0.00  0.00    -0.228 NA
ATOM     10  C   UNL     1     -35.602  21.447   3.526  0.00  0.00    +0.145 C 
ATOM     11  C   UNL     1     -36.218  22.707   3.649  0.00  0.00    +0.077 C 
ATOM     12  C   UNL     1     -36.180  23.372   4.869  0.00  0.00    +0.019 C 
ATOM     13  C   UNL     1     -34.947  21.548   5.767  0.00  0.00    +0.100 C 
ATOM     14  C   UNL     1     -35.533  22.789   5.953  0.00  0.00    +0.022 C 
ENDROOT
BRANCH   8  16
ATOM     15  N   UNL     1     -38.175  17.847  -1.537  0.00  0.00    -0.309 N 
ATOM     16  C   UNL     1     -37.086  17.388  -0.853  0.00  0.00    +0.103 C 
ATOM     17  C   UNL     1     -37.434  16.222  -0.217  0.00  0.00    +0.020 C 
ATOM     18  C   UNL     1     -38.798  15.958  -0.527  0.00  0.00    +0.016 C 
ATOM     19  C   UNL     1     -39.238  16.992  -1.357  0.00  0.00    +0.049 C 
ATOM     20  C   UNL     1     -39.703  14.934  -0.181  0.00  0.00    +0.017 C 
ATOM     21  C   UNL     1     -40.543  17.053  -1.859  0.00  0.00    +0.016 C 
ATOM     22  C   UNL     1     -41.011  14.984  -0.676  0.00  0.00    +0.065 C 
ATOM     23  C   UNL     1     -41.422  16.028  -1.502  0.00  0.00    +0.017 C 
ATOM     24  H   UNL     1     -38.196  18.668  -2.080  0.00  0.00    +0.152 HD
BRANCH  22  25
ATOM     25  N   UNL     1     -41.934  13.949  -0.331  0.00  0.00    -0.219 N 
ATOM     26  H   UNL     1     -42.602  14.083   0.380  0.00  0.00    +0.173 HD
BRANCH  25  27
ATOM     27  S   UNL     1     -41.847  12.461  -1.193  0.00  0.00    +0.056 S 
ATOM     28  O   UNL     1     -43.181  11.893  -1.263  0.00  0.00    -0.154 OA
ATOM     29  O   UNL     1     -41.042  12.602  -2.391  0.00  0.00    -0.154 OA
ATOM     30  C   UNL     1     -40.927  11.478  -0.031  0.00  0.00    +0.200 C 
ENDBRANCH  25  27
ENDBRANCH  22  25
ENDBRANCH   8  16
BRANCH  11  31
ATOM     31  N   UNL     1     -36.872  23.295   2.551  0.00  0.00    -0.332 N 
ATOM     32  H   UNL     1     -36.503  23.149   1.650  0.00  0.00    +0.147 HD
BRANCH  31  33
ATOM     33  C   UNL     1     -38.050  24.099   2.684  0.00  0.00    +0.069 C 
ATOM     34  C   UNL     1     -37.921  25.340   1.809  0.00  0.00    +0.021 C 
ATOM     35  C   UNL     1     -39.269  23.272   2.297  0.00  0.00    +0.021 C 
ENDBRANCH  31  33
ENDBRANCH  11  31
TORSDOF 5
ENDMDL
MODEL 8
REMARK VINA RESULT:      -6.3      4.986      8.497
REMARK  Name = 5625
REMARK  5 active torsions:
REMARK  status: ('A' for Active; 'I' for Inactive)
REMARK    1  A    between atoms: C_8  and  C_10
REMARK    2  A    between atoms: C_16  and  N_19
REMARK    3  A    between atoms: N_19  and  S_21
REMARK    4  A    between atoms: C_27  and  N_31
REMARK    5  A    between atoms: N_31  and  C_33
REMARK                            x       y       z     vdW  Elec       q    Type
REMARK                         _______ _______ _______ _____ _____    ______ ____
ROOT
ATOM      1  O   UNL     1     -37.571  22.844   3.354  0.00  0.00    -0.269 OA
ATOM      2  N   UNL     1     -34.598  26.843   3.232  0.00  0.00    -0.289 N 
ATOM      3  N   UNL     1     -35.790  24.307   3.555  0.00  0.00    -0.272 N 
ATOM      4  C   UNL     1     -36.035  26.676   2.956  0.00  0.00    +0.114 C 
ATOM      5  C   UNL     1     -33.770  25.636   3.103  0.00  0.00    +0.114 C 
ATOM      6  C   UNL     1     -36.602  25.504   3.756  0.00  0.00    +0.115 C 
ATOM      7  C   UNL     1     -34.378  24.488   3.906  0.00  0.00    +0.115 C 
ATOM      8  C   UNL     1     -36.389  23.108   3.129  0.00  0.00    +0.263 C 
ATOM      9  N   UNL     1     -34.550  28.888   1.985  0.00  0.00    -0.228 NA
ATOM     10  C   UNL     1     -34.031  28.099   2.983  0.00  0.00    +0.145 C 
ATOM     11  C   UNL     1     -32.938  28.542   3.754  0.00  0.00    +0.077 C 
ATOM     12  C   UNL     1     -32.381  29.790   3.499  0.00  0.00    +0.019 C 
ATOM     13  C   UNL     1     -33.982  30.095   1.768  0.00  0.00    +0.100 C 
ATOM     14  C   UNL     1     -32.907  30.588   2.490  0.00  0.00    +0.022 C 
ENDROOT
BRANCH   8  16
ATOM     15  N   UNL     1     -34.800  22.514   1.309  0.00  0.00    -0.309 N 
ATOM     16  C   UNL     1     -35.551  22.167   2.395  0.00  0.00    +0.103 C 
ATOM     17  C   UNL     1     -35.368  20.828   2.637  0.00  0.00    +0.020 C 
ATOM     18  C   UNL     1     -34.464  20.336   1.654  0.00  0.00    +0.016 C 
ATOM     19  C   UNL     1     -34.123  21.413   0.834  0.00  0.00    +0.049 C 
ATOM     20  C   UNL     1     -33.902  19.073   1.384  0.00  0.00    +0.017 C 
ATOM     21  C   UNL     1     -33.244  21.290  -0.247  0.00  0.00    +0.016 C 
ATOM     22  C   UNL     1     -33.021  18.935   0.304  0.00  0.00    +0.065 C 
ATOM     23  C   UNL     1     -32.698  20.028  -0.497  0.00  0.00    +0.017 C 
ATOM     24  H   UNL     1     -34.749  23.418   0.923  0.00  0.00    +0.152 HD
BRANCH  22  25
ATOM     25  N   UNL     1     -32.445  17.657   0.024  0.00  0.00    -0.219 N 
ATOM     26  H   UNL     1     -31.551  17.420   0.362  0.00  0.00    +0.173 HD
BRANCH  25  27
ATOM     27  S   UNL     1     -33.359  16.542  -0.918  0.00  0.00    +0.056 S 
ATOM     28  O   UNL     1     -34.161  15.732  -0.019  0.00  0.00    -0.154 OA
ATOM     29  O   UNL     1     -33.967  17.202  -2.056  0.00  0.00    -0.154 OA
ATOM     30  C   UNL     1     -32.052  15.500  -1.525  0.00  0.00    +0.200 C 
ENDBRANCH  25  27
ENDBRANCH  22  25
ENDBRANCH   8  16
BRANCH  11  31
ATOM     31  N   UNL     1     -32.407  27.733   4.775  0.00  0.00    -0.332 N 
ATOM     32  H   UNL     1     -32.238  26.782   4.582  0.00  0.00    +0.147 HD
BRANCH  31  33
ATOM     33  C   UNL     1     -32.102  28.229   6.083  0.00  0.00    +0.069 C 
ATOM     34  C   UNL     1     -32.637  27.262   7.132  0.00  0.00    +0.021 C 
ATOM     35  C   UNL     1     -30.595  28.410   6.213  0.00  0.00    +0.021 C 
ENDBRANCH  31  33
ENDBRANCH  11  31
TORSDOF 5
ENDMDL
MODEL 9
REMARK VINA RESULT:      -6.3      5.070      8.975
REMARK  Name = 5625
REMARK  5 active torsions:
REMARK  status: ('A' for Active; 'I' for Inactive)
REMARK    1  A    between atoms: C_8  and  C_10
REMARK    2  A    between atoms: C_16  and  N_19
REMARK    3  A    between atoms: N_19  and  S_21
REMARK    4  A    between atoms: C_27  and  N_31
REMARK    5  A    between atoms: N_31  and  C_33
REMARK                            x       y       z     vdW  Elec       q    Type
REMARK                         _______ _______ _______ _____ _____    ______ ____
ROOT
ATOM      1  O   UNL     1     -37.486  24.747   4.500  0.00  0.00    -0.269 OA
ATOM      2  N   UNL     1     -34.918  21.704   1.501  0.00  0.00    -0.289 N 
ATOM      3  N   UNL     1     -36.142  23.868   2.835  0.00  0.00    -0.272 N 
ATOM      4  C   UNL     1     -35.901  21.438   2.564  0.00  0.00    +0.114 C 
ATOM      5  C   UNL     1     -34.219  22.994   1.574  0.00  0.00    +0.114 C 
ATOM      6  C   UNL     1     -36.873  22.610   2.701  0.00  0.00    +0.115 C 
ATOM      7  C   UNL     1     -35.224  24.135   1.724  0.00  0.00    +0.115 C 
ATOM      8  C   UNL     1     -36.400  24.725   3.918  0.00  0.00    +0.263 C 
ATOM      9  N   UNL     1     -34.062  19.473   1.671  0.00  0.00    -0.228 NA
ATOM     10  C   UNL     1     -34.276  20.604   0.919  0.00  0.00    +0.145 C 
ATOM     11  C   UNL     1     -33.857  20.663  -0.424  0.00  0.00    +0.077 C 
ATOM     12  C   UNL     1     -33.220  19.566  -0.992  0.00  0.00    +0.019 C 
ATOM     13  C   UNL     1     -33.441  18.427   1.084  0.00  0.00    +0.100 C 
ATOM     14  C   UNL     1     -33.005  18.422  -0.231  0.00  0.00    +0.022 C 
ENDROOT
BRANCH   8  16
ATOM     15  N   UNL     1     -34.830  26.625   3.578  0.00  0.00    -0.309 N 
ATOM     16  C   UNL     1     -35.319  25.606   4.345  0.00  0.00    +0.103 C 
ATOM     17  C   UNL     1     -34.624  25.583   5.528  0.00  0.00    +0.020 C 
ATOM     18  C   UNL     1     -33.667  26.635   5.482  0.00  0.00    +0.016 C 
ATOM     19  C   UNL     1     -33.817  27.273   4.248  0.00  0.00    +0.049 C 
ATOM     20  C   UNL     1     -32.684  27.108   6.374  0.00  0.00    +0.017 C 
ATOM     21  C   UNL     1     -33.031  28.364   3.862  0.00  0.00    +0.016 C 
ATOM     22  C   UNL     1     -31.890  28.198   6.000  0.00  0.00    +0.065 C 
ATOM     23  C   UNL     1     -32.062  28.815   4.763  0.00  0.00    +0.017 C 
ATOM     24  H   UNL     1     -35.154  26.861   2.679  0.00  0.00    +0.152 HD
BRANCH  22  25
ATOM     25  N   UNL     1     -30.892  28.684   6.900  0.00  0.00    -0.219 N 
ATOM     26  H   UNL     1     -31.143  29.166   7.721  0.00  0.00    +0.173 HD
BRANCH  25  27
ATOM     27  S   UNL     1     -29.238  28.401   6.511  0.00  0.00    +0.056 S 
ATOM     28  O   UNL     1     -28.945  27.000   6.750  0.00  0.00    -0.154 OA
ATOM     29  O   UNL     1     -28.889  29.023   5.249  0.00  0.00    -0.154 OA
ATOM     30  C   UNL     1     -28.449  29.322   7.811  0.00  0.00    +0.200 C 
ENDBRANCH  25  27
ENDBRANCH  22  25
ENDBRANCH   8  16
BRANCH  11  31
ATOM     31  N   UNL     1     -34.076  21.821  -1.192  0.00  0.00    -0.332 N 
ATOM     32  H   UNL     1     -34.964  22.246  -1.160  0.00  0.00    +0.147 HD
BRANCH  31  33
ATOM     33  C   UNL     1     -33.067  22.409  -2.020  0.00  0.00    +0.069 C 
ATOM     34  C   UNL     1     -33.667  23.565  -2.811  0.00  0.00    +0.021 C 
ATOM     35  C   UNL     1     -31.910  22.877  -1.147  0.00  0.00    +0.021 C 
ENDBRANCH  31  33
ENDBRANCH  11  31
TORSDOF 5
ENDMDL
