MODEL 1
REMARK VINA RESULT:      -6.1      0.000      0.000
REMARK  Name = 5315773
REMARK  7 active torsions:
REMARK  status: ('A' for Active; 'I' for Inactive)
REMARK    1  A    between atoms: C_5  and  C_12
REMARK    2  A    between atoms: C_6  and  O_22
REMARK    3  A    between atoms: C_8  and  O_26
REMARK    4  A    between atoms: C_10  and  O_24
REMARK    5  A    between atoms: C_11  and  O_28
REMARK    6  A    between atoms: C_15  and  O_20
REMARK    7  A    between atoms: C_17  and  O_18
REMARK                            x       y       z     vdW  Elec       q    Type
REMARK                         _______ _______ _______ _____ _____    ______ ____
ROOT
ATOM      1  O   UNL     1     -33.015  26.774   5.168  0.00  0.00    -0.450 OA
ATOM      2  O   UNL     1     -35.389  28.490   2.335  0.00  0.00    -0.283 OA
ATOM      3  C   UNL     1     -35.063  26.726   3.865  0.00  0.00    +0.113 A 
ATOM      4  C   UNL     1     -34.206  26.189   4.824  0.00  0.00    +0.155 A 
ATOM      5  C   UNL     1     -32.655  27.957   4.542  0.00  0.00    +0.182 A 
ATOM      6  C   UNL     1     -33.386  28.574   3.596  0.00  0.00    +0.212 A 
ATOM      7  C   UNL     1     -34.680  27.974   3.189  0.00  0.00    +0.238 A 
ATOM      8  C   UNL     1     -36.264  26.084   3.555  0.00  0.00    +0.177 C 
ATOM      9  C   UNL     1     -34.546  25.004   5.478  0.00  0.00    +0.078 C 
ATOM     10  C   UNL     1     -36.602  24.900   4.211  0.00  0.00    +0.206 C 
ATOM     11  C   UNL     1     -35.744  24.361   5.171  0.00  0.00    +0.174 C 
ENDROOT
BRANCH   5  12
ATOM     12  C   UNL     1     -31.355  28.477   5.003  0.00  0.00    +0.041 C 
ATOM     13  C   UNL     1     -30.215  28.302   4.218  0.00  0.00    +0.043 C 
ATOM     14  C   UNL     1     -31.264  29.143   6.225  0.00  0.00    +0.006 C 
ATOM     15  C   UNL     1     -28.984  28.793   4.656  0.00  0.00    +0.168 C 
ATOM     16  C   UNL     1     -30.034  29.634   6.663  0.00  0.00    +0.040 C 
ATOM     17  C   UNL     1     -28.894  29.459   5.879  0.00  0.00    +0.172 C 
BRANCH  17  18
ATOM     18  O   UNL     1     -27.699  29.944   6.315  0.00  0.00    -0.468 OA
ATOM     19  C   UNL     1     -27.504  30.014   7.726  0.00  0.00    +0.253 C 
ENDBRANCH  17  18
BRANCH  15  20
ATOM     20  O   UNL     1     -27.879  28.617   3.880  0.00  0.00    -0.503 OA
ATOM     21  H   UNL     1     -27.862  28.950   3.004  0.00  0.00    +0.292 HD
ENDBRANCH  15  20
ENDBRANCH   5  12
BRANCH   6  22
ATOM     22  O   UNL     1     -32.984  29.733   2.970  0.00  0.00    -0.465 OA
ATOM     23  C   UNL     1     -33.489  30.870   3.643  0.00  0.00    +0.253 C 
ENDBRANCH   6  22
BRANCH  10  24
ATOM     24  O   UNL     1     -37.774  24.265   3.917  0.00  0.00    -0.465 OA
ATOM     25  C   UNL     1     -37.735  23.283   2.885  0.00  0.00    +0.253 C 
ENDBRANCH  10  24
BRANCH   8  26
ATOM     26  O   UNL     1     -37.130  26.578   2.624  0.00  0.00    -0.503 OA
ATOM     27  H   UNL     1     -36.886  26.596   1.720  0.00  0.00    +0.292 HD
ENDBRANCH   8  26
BRANCH  11  28
ATOM     28  O   UNL     1     -36.068  23.205   5.816  0.00  0.00    -0.503 OA
ATOM     29  H   UNL     1     -35.683  23.011   6.648  0.00  0.00    +0.292 HD
ENDBRANCH  11  28
TORSDOF 7
ENDMDL
MODEL 2
REMARK VINA RESULT:      -6.0      0.714      1.372
REMARK  Name = 5315773
REMARK  7 active torsions:
REMARK  status: ('A' for Active; 'I' for Inactive)
REMARK    1  A    between atoms: C_5  and  C_12
REMARK    2  A    between atoms: C_6  and  O_22
REMARK    3  A    between atoms: C_8  and  O_26
REMARK    4  A    between atoms: C_10  and  O_24
REMARK    5  A    between atoms: C_11  and  O_28
REMARK    6  A    between atoms: C_15  and  O_20
REMARK    7  A    between atoms: C_17  and  O_18
REMARK                            x       y       z     vdW  Elec       q    Type
REMARK                         _______ _______ _______ _____ _____    ______ ____
ROOT
ATOM      1  O   UNL     1     -33.007  26.642   4.965  0.00  0.00    -0.450 OA
ATOM      2  O   UNL     1     -35.472  28.565   2.351  0.00  0.00    -0.283 OA
ATOM      3  C   UNL     1     -35.127  26.726   3.787  0.00  0.00    +0.113 A 
ATOM      4  C   UNL     1     -34.238  26.118   4.670  0.00  0.00    +0.155 A 
ATOM      5  C   UNL     1     -32.637  27.837   4.367  0.00  0.00    +0.182 A 
ATOM      6  C   UNL     1     -33.397  28.521   3.492  0.00  0.00    +0.212 A 
ATOM      7  C   UNL     1     -34.736  27.987   3.139  0.00  0.00    +0.238 A 
ATOM      8  C   UNL     1     -36.369  26.144   3.524  0.00  0.00    +0.177 C 
ATOM      9  C   UNL     1     -34.586  24.919   5.295  0.00  0.00    +0.078 C 
ATOM     10  C   UNL     1     -36.715  24.946   4.151  0.00  0.00    +0.206 C 
ATOM     11  C   UNL     1     -35.825  24.335   5.035  0.00  0.00    +0.174 C 
ENDROOT
BRANCH   5  12
ATOM     12  C   UNL     1     -31.293  28.288   4.769  0.00  0.00    +0.041 C 
ATOM     13  C   UNL     1     -31.048  28.662   6.091  0.00  0.00    +0.043 C 
ATOM     14  C   UNL     1     -30.265  28.343   3.828  0.00  0.00    +0.006 C 
ATOM     15  C   UNL     1     -29.776  29.091   6.471  0.00  0.00    +0.168 C 
ATOM     16  C   UNL     1     -28.993  28.772   4.207  0.00  0.00    +0.040 C 
ATOM     17  C   UNL     1     -28.748  29.145   5.529  0.00  0.00    +0.172 C 
BRANCH  17  18
ATOM     18  O   UNL     1     -27.502  29.560   5.889  0.00  0.00    -0.468 OA
ATOM     19  C   UNL     1     -27.150  30.906   5.573  0.00  0.00    +0.253 C 
ENDBRANCH  17  18
BRANCH  15  20
ATOM     20  O   UNL     1     -29.549  29.452   7.764  0.00  0.00    -0.503 OA
ATOM     21  H   UNL     1     -29.235  30.312   7.964  0.00  0.00    +0.292 HD
ENDBRANCH  15  20
ENDBRANCH   5  12
BRANCH   6  22
ATOM     22  O   UNL     1     -32.986  29.690   2.890  0.00  0.00    -0.465 OA
ATOM     23  C   UNL     1     -33.388  30.814   3.648  0.00  0.00    +0.253 C 
ENDBRANCH   6  22
BRANCH  10  24
ATOM     24  O   UNL     1     -37.926  24.368   3.902  0.00  0.00    -0.465 OA
ATOM     25  C   UNL     1     -37.994  23.453   2.812  0.00  0.00    +0.253 C 
ENDBRANCH  10  24
BRANCH   8  26
ATOM     26  O   UNL     1     -37.268  26.709   2.667  0.00  0.00    -0.503 OA
ATOM     27  H   UNL     1     -38.085  26.283   2.496  0.00  0.00    +0.292 HD
ENDBRANCH   8  26
BRANCH  11  28
ATOM     28  O   UNL     1     -36.156  23.166   5.651  0.00  0.00    -0.503 OA
ATOM     29  H   UNL     1     -36.422  22.427   5.140  0.00  0.00    +0.292 HD
ENDBRANCH  11  28
TORSDOF 7
ENDMDL
MODEL 3
REMARK VINA RESULT:      -6.0      3.458      6.199
REMARK  Name = 5315773
REMARK  7 active torsions:
REMARK  status: ('A' for Active; 'I' for Inactive)
REMARK    1  A    between atoms: C_5  and  C_12
REMARK    2  A    between atoms: C_6  and  O_22
REMARK    3  A    between atoms: C_8  and  O_26
REMARK    4  A    between atoms: C_10  and  O_24
REMARK    5  A    between atoms: C_11  and  O_28
REMARK    6  A    between atoms: C_15  and  O_20
REMARK    7  A    between atoms: C_17  and  O_18
REMARK                            x       y       z     vdW  Elec       q    Type
REMARK                         _______ _______ _______ _____ _____    ______ ____
ROOT
ATOM      1  O   UNL     1     -35.078  22.628   2.615  0.00  0.00    -0.450 OA
ATOM      2  O   UNL     1     -39.137  22.465   2.296  0.00  0.00    -0.283 OA
ATOM      3  C   UNL     1     -37.053  21.476   1.802  0.00  0.00    +0.113 A 
ATOM      4  C   UNL     1     -35.673  21.591   1.945  0.00  0.00    +0.155 A 
ATOM      5  C   UNL     1     -35.888  23.598   3.185  0.00  0.00    +0.182 A 
ATOM      6  C   UNL     1     -37.231  23.609   3.113  0.00  0.00    +0.212 A 
ATOM      7  C   UNL     1     -37.918  22.509   2.393  0.00  0.00    +0.238 A 
ATOM      8  C   UNL     1     -37.603  20.397   1.107  0.00  0.00    +0.177 C 
ATOM      9  C   UNL     1     -34.831  20.625   1.392  0.00  0.00    +0.078 C 
ATOM     10  C   UNL     1     -36.760  19.432   0.555  0.00  0.00    +0.206 C 
ATOM     11  C   UNL     1     -35.376  19.545   0.696  0.00  0.00    +0.174 C 
ENDROOT
BRANCH   5  12
ATOM     12  C   UNL     1     -35.122  24.653   3.873  0.00  0.00    +0.041 C 
ATOM     13  C   UNL     1     -34.458  25.630   3.132  0.00  0.00    +0.043 C 
ATOM     14  C   UNL     1     -35.060  24.673   5.266  0.00  0.00    +0.006 C 
ATOM     15  C   UNL     1     -33.732  26.628   3.783  0.00  0.00    +0.168 C 
ATOM     16  C   UNL     1     -34.335  25.670   5.918  0.00  0.00    +0.040 C 
ATOM     17  C   UNL     1     -33.671  26.648   5.177  0.00  0.00    +0.172 C 
BRANCH  17  18
ATOM     18  O   UNL     1     -32.967  27.617   5.824  0.00  0.00    -0.468 OA
ATOM     19  C   UNL     1     -32.528  27.325   7.150  0.00  0.00    +0.253 C 
ENDBRANCH  17  18
BRANCH  15  20
ATOM     20  O   UNL     1     -33.089  27.577   3.049  0.00  0.00    -0.503 OA
ATOM     21  H   UNL     1     -33.030  28.457   3.367  0.00  0.00    +0.292 HD
ENDBRANCH  15  20
ENDBRANCH   5  12
BRANCH   6  22
ATOM     22  O   UNL     1     -38.006  24.607   3.663  0.00  0.00    -0.465 OA
ATOM     23  C   UNL     1     -38.231  25.643   2.726  0.00  0.00    +0.253 C 
ENDBRANCH   6  22
BRANCH  10  24
ATOM     24  O   UNL     1     -37.286  18.372  -0.126  0.00  0.00    -0.465 OA
ATOM     25  C   UNL     1     -37.443  18.522  -1.534  0.00  0.00    +0.253 C 
ENDBRANCH  10  24
BRANCH   8  26
ATOM     26  O   UNL     1     -38.949  20.249   0.946  0.00  0.00    -0.503 OA
ATOM     27  H   UNL     1     -39.385  20.671   0.232  0.00  0.00    +0.292 HD
ENDBRANCH   8  26
BRANCH  11  28
ATOM     28  O   UNL     1     -34.547  18.607   0.161  0.00  0.00    -0.503 OA
ATOM     29  H   UNL     1     -34.754  18.216  -0.665  0.00  0.00    +0.292 HD
ENDBRANCH  11  28
TORSDOF 7
ENDMDL
MODEL 4
REMARK VINA RESULT:      -6.0      6.270      8.572
REMARK  Name = 5315773
REMARK  7 active torsions:
REMARK  status: ('A' for Active; 'I' for Inactive)
REMARK    1  A    between atoms: C_5  and  C_12
REMARK    2  A    between atoms: C_6  and  O_22
REMARK    3  A    between atoms: C_8  and  O_26
REMARK    4  A    between atoms: C_10  and  O_24
REMARK    5  A    between atoms: C_11  and  O_28
REMARK    6  A    between atoms: C_15  and  O_20
REMARK    7  A    between atoms: C_17  and  O_18
REMARK                            x       y       z     vdW  Elec       q    Type
REMARK                         _______ _______ _______ _____ _____    ______ ____
ROOT
ATOM      1  O   UNL     1     -35.271  22.269   2.034  0.00  0.00    -0.450 OA
ATOM      2  O   UNL     1     -38.872  20.757   0.872  0.00  0.00    -0.283 OA
ATOM      3  C   UNL     1     -37.693  22.426   2.049  0.00  0.00    +0.113 A 
ATOM      4  C   UNL     1     -36.432  22.891   2.414  0.00  0.00    +0.155 A 
ATOM      5  C   UNL     1     -35.358  21.135   1.242  0.00  0.00    +0.182 A 
ATOM      6  C   UNL     1     -36.511  20.580   0.827  0.00  0.00    +0.212 A 
ATOM      7  C   UNL     1     -37.793  21.216   1.219  0.00  0.00    +0.238 A 
ATOM      8  C   UNL     1     -38.842  23.101   2.468  0.00  0.00    +0.177 C 
ATOM      9  C   UNL     1     -36.311  24.036   3.204  0.00  0.00    +0.078 C 
ATOM     10  C   UNL     1     -38.719  24.246   3.256  0.00  0.00    +0.206 C 
ATOM     11  C   UNL     1     -37.456  24.712   3.624  0.00  0.00    +0.174 C 
ENDROOT
BRANCH   5  12
ATOM     12  C   UNL     1     -34.040  20.568   0.906  0.00  0.00    +0.041 C 
ATOM     13  C   UNL     1     -33.643  19.349   1.458  0.00  0.00    +0.043 C 
ATOM     14  C   UNL     1     -33.187  21.249   0.038  0.00  0.00    +0.006 C 
ATOM     15  C   UNL     1     -32.394  18.813   1.141  0.00  0.00    +0.168 C 
ATOM     16  C   UNL     1     -31.939  20.714  -0.279  0.00  0.00    +0.040 C 
ATOM     17  C   UNL     1     -31.542  19.496   0.272  0.00  0.00    +0.172 C 
BRANCH  17  18
ATOM     18  O   UNL     1     -30.322  18.981  -0.045  0.00  0.00    -0.468 OA
ATOM     19  C   UNL     1     -29.372  19.875  -0.622  0.00  0.00    +0.253 C 
ENDBRANCH  17  18
BRANCH  15  20
ATOM     20  O   UNL     1     -32.019  17.622   1.685  0.00  0.00    -0.503 OA
ATOM     21  H   UNL     1     -31.471  17.036   1.200  0.00  0.00    +0.292 HD
ENDBRANCH  15  20
ENDBRANCH   5  12
BRANCH   6  22
ATOM     22  O   UNL     1     -36.564  19.432   0.066  0.00  0.00    -0.465 OA
ATOM     23  C   UNL     1     -36.619  19.745  -1.312  0.00  0.00    +0.253 C 
ENDBRANCH   6  22
BRANCH  10  24
ATOM     24  O   UNL     1     -39.835  24.914   3.671  0.00  0.00    -0.465 OA
ATOM     25  C   UNL     1     -40.335  25.934   2.810  0.00  0.00    +0.253 C 
ENDBRANCH  10  24
BRANCH   8  26
ATOM     26  O   UNL     1     -40.094  22.678   2.131  0.00  0.00    -0.503 OA
ATOM     27  H   UNL     1     -40.789  22.724   2.758  0.00  0.00    +0.292 HD
ENDBRANCH   8  26
BRANCH  11  28
ATOM     28  O   UNL     1     -37.328  25.830   4.393  0.00  0.00    -0.503 OA
ATOM     29  H   UNL     1     -37.296  26.674   3.989  0.00  0.00    +0.292 HD
ENDBRANCH  11  28
TORSDOF 7
ENDMDL
MODEL 5
REMARK VINA RESULT:      -5.9      2.553      8.779
REMARK  Name = 5315773
REMARK  7 active torsions:
REMARK  status: ('A' for Active; 'I' for Inactive)
REMARK    1  A    between atoms: C_5  and  C_12
REMARK    2  A    between atoms: C_6  and  O_22
REMARK    3  A    between atoms: C_8  and  O_26
REMARK    4  A    between atoms: C_10  and  O_24
REMARK    5  A    between atoms: C_11  and  O_28
REMARK    6  A    between atoms: C_15  and  O_20
REMARK    7  A    between atoms: C_17  and  O_18
REMARK                            x       y       z     vdW  Elec       q    Type
REMARK                         _______ _______ _______ _____ _____    ______ ____
ROOT
ATOM      1  O   UNL     1     -35.765  25.435   2.432  0.00  0.00    -0.450 OA
ATOM      2  O   UNL     1     -34.324  25.466   6.243  0.00  0.00    -0.283 OA
ATOM      3  C   UNL     1     -34.264  26.398   4.078  0.00  0.00    +0.113 A 
ATOM      4  C   UNL     1     -34.796  26.335   2.792  0.00  0.00    +0.155 A 
ATOM      5  C   UNL     1     -36.242  24.558   3.393  0.00  0.00    +0.182 A 
ATOM      6  C   UNL     1     -35.808  24.510   4.666  0.00  0.00    +0.212 A 
ATOM      7  C   UNL     1     -34.757  25.462   5.099  0.00  0.00    +0.238 A 
ATOM      8  C   UNL     1     -33.276  27.337   4.386  0.00  0.00    +0.177 C 
ATOM      9  C   UNL     1     -34.343  27.211   1.805  0.00  0.00    +0.078 C 
ATOM     10  C   UNL     1     -32.825  28.213   3.398  0.00  0.00    +0.206 C 
ATOM     11  C   UNL     1     -33.357  28.150   2.109  0.00  0.00    +0.174 C 
ENDROOT
BRANCH   5  12
ATOM     12  C   UNL     1     -37.278  23.646   2.874  0.00  0.00    +0.041 C 
ATOM     13  C   UNL     1     -36.932  22.360   2.459  0.00  0.00    +0.043 C 
ATOM     14  C   UNL     1     -38.605  24.070   2.796  0.00  0.00    +0.006 C 
ATOM     15  C   UNL     1     -37.912  21.498   1.967  0.00  0.00    +0.168 C 
ATOM     16  C   UNL     1     -39.585  23.209   2.304  0.00  0.00    +0.040 C 
ATOM     17  C   UNL     1     -39.239  21.922   1.889  0.00  0.00    +0.172 C 
BRANCH  17  18
ATOM     18  O   UNL     1     -40.204  21.089   1.412  0.00  0.00    -0.468 OA
ATOM     19  C   UNL     1     -40.593  21.260   0.050  0.00  0.00    +0.253 C 
ENDBRANCH  17  18
BRANCH  15  20
ATOM     20  O   UNL     1     -37.562  20.244   1.566  0.00  0.00    -0.503 OA
ATOM     21  H   UNL     1     -36.931  20.129   0.883  0.00  0.00    +0.292 HD
ENDBRANCH  15  20
ENDBRANCH   5  12
BRANCH   6  22
ATOM     22  O   UNL     1     -36.281  23.603   5.589  0.00  0.00    -0.465 OA
ATOM     23  C   UNL     1     -35.372  22.532   5.754  0.00  0.00    +0.253 C 
ENDBRANCH   6  22
BRANCH  10  24
ATOM     24  O   UNL     1     -31.862  29.134   3.688  0.00  0.00    -0.465 OA
ATOM     25  C   UNL     1     -32.304  30.417   4.124  0.00  0.00    +0.253 C 
ENDBRANCH  10  24
BRANCH   8  26
ATOM     26  O   UNL     1     -32.731  27.431   5.633  0.00  0.00    -0.503 OA
ATOM     27  H   UNL     1     -31.831  27.209   5.768  0.00  0.00    +0.292 HD
ENDBRANCH   8  26
BRANCH  11  28
ATOM     28  O   UNL     1     -32.922  29.002   1.139  0.00  0.00    -0.503 OA
ATOM     29  H   UNL     1     -32.290  28.712   0.512  0.00  0.00    +0.292 HD
ENDBRANCH  11  28
TORSDOF 7
ENDMDL
MODEL 6
REMARK VINA RESULT:      -5.8      7.301      9.281
REMARK  Name = 5315773
REMARK  7 active torsions:
REMARK  status: ('A' for Active; 'I' for Inactive)
REMARK    1  A    between atoms: C_5  and  C_12
REMARK    2  A    between atoms: C_6  and  O_22
REMARK    3  A    between atoms: C_8  and  O_26
REMARK    4  A    between atoms: C_10  and  O_24
REMARK    5  A    between atoms: C_11  and  O_28
REMARK    6  A    between atoms: C_15  and  O_20
REMARK    7  A    between atoms: C_17  and  O_18
REMARK                            x       y       z     vdW  Elec       q    Type
REMARK                         _______ _______ _______ _____ _____    ______ ____
ROOT
ATOM      1  O   UNL     1     -34.901  20.887   1.600  0.00  0.00    -0.450 OA
ATOM      2  O   UNL     1     -37.975  18.980  -0.276  0.00  0.00    -0.283 OA
ATOM      3  C   UNL     1     -37.282  20.719   1.157  0.00  0.00    +0.113 A 
ATOM      4  C   UNL     1     -36.188  21.326   1.771  0.00  0.00    +0.155 A 
ATOM      5  C   UNL     1     -34.679  19.799   0.769  0.00  0.00    +0.182 A 
ATOM      6  C   UNL     1     -35.645  19.121   0.125  0.00  0.00    +0.212 A 
ATOM      7  C   UNL     1     -37.054  19.557   0.285  0.00  0.00    +0.238 A 
ATOM      8  C   UNL     1     -38.572  21.211   1.370  0.00  0.00    +0.177 C 
ATOM      9  C   UNL     1     -36.378  22.429   2.604  0.00  0.00    +0.078 C 
ATOM     10  C   UNL     1     -38.760  22.314   2.203  0.00  0.00    +0.206 C 
ATOM     11  C   UNL     1     -37.665  22.922   2.820  0.00  0.00    +0.174 C 
ENDROOT
BRANCH   5  12
ATOM     12  C   UNL     1     -33.255  19.432   0.674  0.00  0.00    +0.041 C 
ATOM     13  C   UNL     1     -32.370  20.245  -0.036  0.00  0.00    +0.043 C 
ATOM     14  C   UNL     1     -32.791  18.270   1.291  0.00  0.00    +0.006 C 
ATOM     15  C   UNL     1     -31.022  19.896  -0.127  0.00  0.00    +0.168 C 
ATOM     16  C   UNL     1     -31.444  17.921   1.199  0.00  0.00    +0.040 C 
ATOM     17  C   UNL     1     -30.559  18.734   0.490  0.00  0.00    +0.172 C 
BRANCH  17  18
ATOM     18  O   UNL     1     -29.246  18.384   0.409  0.00  0.00    -0.468 OA
ATOM     19  C   UNL     1     -28.810  17.301   1.230  0.00  0.00    +0.253 C 
ENDBRANCH  17  18
BRANCH  15  20
ATOM     20  O   UNL     1     -30.168  20.698  -0.821  0.00  0.00    -0.503 OA
ATOM     21  H   UNL     1     -29.248  20.669  -0.645  0.00  0.00    +0.292 HD
ENDBRANCH  15  20
ENDBRANCH   5  12
BRANCH   6  22
ATOM     22  O   UNL     1     -35.393  18.022  -0.668  0.00  0.00    -0.465 OA
ATOM     23  C   UNL     1     -35.205  18.407  -2.016  0.00  0.00    +0.253 C 
ENDBRANCH   6  22
BRANCH  10  24
ATOM     24  O   UNL     1     -40.016  22.803   2.418  0.00  0.00    -0.465 OA
ATOM     25  C   UNL     1     -40.444  23.874   1.582  0.00  0.00    +0.253 C 
ENDBRANCH  10  24
BRANCH   8  26
ATOM     26  O   UNL     1     -39.668  20.645   0.787  0.00  0.00    -0.503 OA
ATOM     27  H   UNL     1     -40.498  20.679   1.219  0.00  0.00    +0.292 HD
ENDBRANCH   8  26
BRANCH  11  28
ATOM     28  O   UNL     1     -37.841  24.000   3.634  0.00  0.00    -0.503 OA
ATOM     29  H   UNL     1     -37.855  23.887   4.564  0.00  0.00    +0.292 HD
ENDBRANCH  11  28
TORSDOF 7
ENDMDL
MODEL 7
REMARK VINA RESULT:      -5.8      6.216      9.509
REMARK  Name = 5315773
REMARK  7 active torsions:
REMARK  status: ('A' for Active; 'I' for Inactive)
REMARK    1  A    between atoms: C_5  and  C_12
REMARK    2  A    between atoms: C_6  and  O_22
REMARK    3  A    between atoms: C_8  and  O_26
REMARK    4  A    between atoms: C_10  and  O_24
REMARK    5  A    between atoms: C_11  and  O_28
REMARK    6  A    between atoms: C_15  and  O_20
REMARK    7  A    between atoms: C_17  and  O_18
REMARK                            x       y       z     vdW  Elec       q    Type
REMARK                         _______ _______ _______ _____ _____    ______ ____
ROOT
ATOM      1  O   UNL     1     -33.971  19.826   1.901  0.00  0.00    -0.450 OA
ATOM      2  O   UNL     1     -36.871  18.520  -0.646  0.00  0.00    -0.283 OA
ATOM      3  C   UNL     1     -34.691  18.242   0.209  0.00  0.00    +0.113 A 
ATOM      4  C   UNL     1     -33.741  18.739   1.099  0.00  0.00    +0.155 A 
ATOM      5  C   UNL     1     -35.207  20.450   1.831  0.00  0.00    +0.182 A 
ATOM      6  C   UNL     1     -36.205  20.076   1.010  0.00  0.00    +0.212 A 
ATOM      7  C   UNL     1     -36.000  18.907   0.120  0.00  0.00    +0.238 A 
ATOM      8  C   UNL     1     -34.400  17.130  -0.584  0.00  0.00    +0.177 C 
ATOM      9  C   UNL     1     -32.492  18.126   1.200  0.00  0.00    +0.078 C 
ATOM     10  C   UNL     1     -33.150  16.519  -0.481  0.00  0.00    +0.206 C 
ATOM     11  C   UNL     1     -32.197  17.016   0.409  0.00  0.00    +0.174 C 
ENDROOT
BRANCH   5  12
ATOM     12  C   UNL     1     -35.320  21.603   2.742  0.00  0.00    +0.041 C 
ATOM     13  C   UNL     1     -35.650  21.403   4.083  0.00  0.00    +0.043 C 
ATOM     14  C   UNL     1     -35.101  22.895   2.264  0.00  0.00    +0.006 C 
ATOM     15  C   UNL     1     -35.758  22.494   4.946  0.00  0.00    +0.168 C 
ATOM     16  C   UNL     1     -35.211  23.986   3.125  0.00  0.00    +0.040 C 
ATOM     17  C   UNL     1     -35.539  23.786   4.467  0.00  0.00    +0.172 C 
BRANCH  17  18
ATOM     18  O   UNL     1     -35.641  24.859   5.299  0.00  0.00    -0.468 OA
ATOM     19  C   UNL     1     -34.442  25.578   5.580  0.00  0.00    +0.253 C 
ENDBRANCH  17  18
BRANCH  15  20
ATOM     20  O   UNL     1     -36.079  22.286   6.253  0.00  0.00    -0.503 OA
ATOM     21  H   UNL     1     -36.777  22.770   6.648  0.00  0.00    +0.292 HD
ENDBRANCH  15  20
ENDBRANCH   5  12
BRANCH   6  22
ATOM     22  O   UNL     1     -37.411  20.739   0.941  0.00  0.00    -0.465 OA
ATOM     23  C   UNL     1     -37.444  21.609  -0.174  0.00  0.00    +0.253 C 
ENDBRANCH   6  22
BRANCH  10  24
ATOM     24  O   UNL     1     -32.854  15.431  -1.251  0.00  0.00    -0.465 OA
ATOM     25  C   UNL     1     -32.249  15.680  -2.517  0.00  0.00    +0.253 C 
ENDBRANCH  10  24
BRANCH   8  26
ATOM     26  O   UNL     1     -35.302  16.613  -1.466  0.00  0.00    -0.503 OA
ATOM     27  H   UNL     1     -35.890  17.182  -1.924  0.00  0.00    +0.292 HD
ENDBRANCH   8  26
BRANCH  11  28
ATOM     28  O   UNL     1     -30.975  16.424   0.516  0.00  0.00    -0.503 OA
ATOM     29  H   UNL     1     -30.616  16.241   1.362  0.00  0.00    +0.292 HD
ENDBRANCH  11  28
TORSDOF 7
ENDMDL
MODEL 8
REMARK VINA RESULT:      -5.7      5.112      8.153
REMARK  Name = 5315773
REMARK  7 active torsions:
REMARK  status: ('A' for Active; 'I' for Inactive)
REMARK    1  A    between atoms: C_5  and  C_12
REMARK    2  A    between atoms: C_6  and  O_22
REMARK    3  A    between atoms: C_8  and  O_26
REMARK    4  A    between atoms: C_10  and  O_24
REMARK    5  A    between atoms: C_11  and  O_28
REMARK    6  A    between atoms: C_15  and  O_20
REMARK    7  A    between atoms: C_17  and  O_18
REMARK                            x       y       z     vdW  Elec       q    Type
REMARK                         _______ _______ _______ _____ _____    ______ ____
ROOT
ATOM      1  O   UNL     1     -34.507  20.931   2.188  0.00  0.00    -0.450 OA
ATOM      2  O   UNL     1     -37.704  20.234  -0.240  0.00  0.00    -0.283 OA
ATOM      3  C   UNL     1     -35.601  19.515   0.549  0.00  0.00    +0.113 A 
ATOM      4  C   UNL     1     -34.538  19.811   1.399  0.00  0.00    +0.155 A 
ATOM      5  C   UNL     1     -35.587  21.799   2.147  0.00  0.00    +0.182 A 
ATOM      6  C   UNL     1     -36.670  21.633   1.366  0.00  0.00    +0.212 A 
ATOM      7  C   UNL     1     -36.744  20.438   0.491  0.00  0.00    +0.238 A 
ATOM      8  C   UNL     1     -35.576  18.358  -0.234  0.00  0.00    +0.177 C 
ATOM      9  C   UNL     1     -33.440  18.952   1.470  0.00  0.00    +0.078 C 
ATOM     10  C   UNL     1     -34.478  17.500  -0.160  0.00  0.00    +0.206 C 
ATOM     11  C   UNL     1     -33.412  17.797   0.690  0.00  0.00    +0.174 C 
ENDROOT
BRANCH   5  12
ATOM     12  C   UNL     1     -35.426  22.959   3.041  0.00  0.00    +0.041 C 
ATOM     13  C   UNL     1     -35.026  24.191   2.522  0.00  0.00    +0.043 C 
ATOM     14  C   UNL     1     -35.670  22.826   4.408  0.00  0.00    +0.006 C 
ATOM     15  C   UNL     1     -34.872  25.290   3.369  0.00  0.00    +0.168 C 
ATOM     16  C   UNL     1     -35.515  23.922   5.256  0.00  0.00    +0.040 C 
ATOM     17  C   UNL     1     -35.117  25.155   4.737  0.00  0.00    +0.172 C 
BRANCH  17  18
ATOM     18  O   UNL     1     -34.971  26.219   5.573  0.00  0.00    -0.468 OA
ATOM     19  C   UNL     1     -33.711  26.364   6.225  0.00  0.00    +0.253 C 
ENDBRANCH  17  18
BRANCH  15  20
ATOM     20  O   UNL     1     -34.484  26.487   2.850  0.00  0.00    -0.503 OA
ATOM     21  H   UNL     1     -34.485  27.254   3.388  0.00  0.00    +0.292 HD
ENDBRANCH  15  20
ENDBRANCH   5  12
BRANCH   6  22
ATOM     22  O   UNL     1     -37.713  22.533   1.324  0.00  0.00    -0.465 OA
ATOM     23  C   UNL     1     -38.760  22.129   2.185  0.00  0.00    +0.253 C 
ENDBRANCH   6  22
BRANCH  10  24
ATOM     24  O   UNL     1     -34.444  16.367  -0.920  0.00  0.00    -0.465 OA
ATOM     25  C   UNL     1     -35.079  15.210  -0.384  0.00  0.00    +0.253 C 
ENDBRANCH  10  24
BRANCH   8  26
ATOM     26  O   UNL     1     -36.598  18.032  -1.077  0.00  0.00    -0.503 OA
ATOM     27  H   UNL     1     -36.614  18.376  -1.948  0.00  0.00    +0.292 HD
ENDBRANCH   8  26
BRANCH  11  28
ATOM     28  O   UNL     1     -32.337  16.963   0.767  0.00  0.00    -0.503 OA
ATOM     29  H   UNL     1     -32.307  16.189   0.240  0.00  0.00    +0.292 HD
ENDBRANCH  11  28
TORSDOF 7
ENDMDL
MODEL 9
REMARK VINA RESULT:      -5.7      2.664      5.581
REMARK  Name = 5315773
REMARK  7 active torsions:
REMARK  status: ('A' for Active; 'I' for Inactive)
REMARK    1  A    between atoms: C_5  and  C_12
REMARK    2  A    between atoms: C_6  and  O_22
REMARK    3  A    between atoms: C_8  and  O_26
REMARK    4  A    between atoms: C_10  and  O_24
REMARK    5  A    between atoms: C_11  and  O_28
REMARK    6  A    between atoms: C_15  and  O_20
REMARK    7  A    between atoms: C_17  and  O_18
REMARK                            x       y       z     vdW  Elec       q    Type
REMARK                         _______ _______ _______ _____ _____    ______ ____
ROOT
ATOM      1  O   UNL     1     -37.350  25.911   3.321  0.00  0.00    -0.450 OA
ATOM      2  O   UNL     1     -37.686  21.921   2.566  0.00  0.00    -0.283 OA
ATOM      3  C   UNL     1     -38.677  24.060   2.484  0.00  0.00    +0.113 A 
ATOM      4  C   UNL     1     -38.500  25.412   2.768  0.00  0.00    +0.155 A 
ATOM      5  C   UNL     1     -36.314  25.032   3.599  0.00  0.00    +0.182 A 
ATOM      6  C   UNL     1     -36.360  23.705   3.381  0.00  0.00    +0.212 A 
ATOM      7  C   UNL     1     -37.587  23.120   2.788  0.00  0.00    +0.238 A 
ATOM      8  C   UNL     1     -39.873  23.609   1.920  0.00  0.00    +0.177 C 
ATOM      9  C   UNL     1     -39.520  26.323   2.490  0.00  0.00    +0.078 C 
ATOM     10  C   UNL     1     -40.891  24.521   1.643  0.00  0.00    +0.206 C 
ATOM     11  C   UNL     1     -40.715  25.876   1.928  0.00  0.00    +0.174 C 
ENDROOT
BRANCH   5  12
ATOM     12  C   UNL     1     -35.140  25.698   4.190  0.00  0.00    +0.041 C 
ATOM     13  C   UNL     1     -34.187  26.296   3.366  0.00  0.00    +0.043 C 
ATOM     14  C   UNL     1     -34.979  25.727   5.576  0.00  0.00    +0.006 C 
ATOM     15  C   UNL     1     -33.074  26.925   3.926  0.00  0.00    +0.168 C 
ATOM     16  C   UNL     1     -33.867  26.355   6.136  0.00  0.00    +0.040 C 
ATOM     17  C   UNL     1     -32.914  26.954   5.312  0.00  0.00    +0.172 C 
BRANCH  17  18
ATOM     18  O   UNL     1     -31.834  27.566   5.870  0.00  0.00    -0.468 OA
ATOM     19  C   UNL     1     -31.971  28.945   6.207  0.00  0.00    +0.253 C 
ENDBRANCH  17  18
BRANCH  15  20
ATOM     20  O   UNL     1     -32.152  27.507   3.110  0.00  0.00    -0.503 OA
ATOM     21  H   UNL     1     -31.347  27.066   2.922  0.00  0.00    +0.292 HD
ENDBRANCH  15  20
ENDBRANCH   5  12
BRANCH   6  22
ATOM     22  O   UNL     1     -35.324  22.854   3.699  0.00  0.00    -0.465 OA
ATOM     23  C   UNL     1     -35.549  22.234   4.951  0.00  0.00    +0.253 C 
ENDBRANCH   6  22
BRANCH  10  24
ATOM     24  O   UNL     1     -42.063  24.092   1.092  0.00  0.00    -0.465 OA
ATOM     25  C   UNL     1     -42.147  24.091  -0.331  0.00  0.00    +0.253 C 
ENDBRANCH  10  24
BRANCH   8  26
ATOM     26  O   UNL     1     -40.084  22.293   1.627  0.00  0.00    -0.503 OA
ATOM     27  H   UNL     1     -40.788  21.829   2.036  0.00  0.00    +0.292 HD
ENDBRANCH   8  26
BRANCH  11  28
ATOM     28  O   UNL     1     -41.705  26.773   1.659  0.00  0.00    -0.503 OA
ATOM     29  H   UNL     1     -41.656  27.308   0.891  0.00  0.00    +0.292 HD
ENDBRANCH  11  28
TORSDOF 7
ENDMDL
