MODEL 1
REMARK VINA RESULT:      -7.3      0.000      0.000
REMARK  Name = 60700
REMARK  5 active torsions:
REMARK  status: ('A' for Active; 'I' for Inactive)
REMARK    1  A    between atoms: C_6  and  O_24
REMARK    2  A    between atoms: C_6  and  C_28
REMARK    3  A    between atoms: C_20  and  C_30
REMARK    4  A    between atoms: C_22  and  O_26
REMARK    5  A    between atoms: C_30  and  N_31
REMARK                            x       y       z     vdW  Elec       q    Type
REMARK                         _______ _______ _______ _____ _____    ______ ____
ROOT
ATOM      1  O   UNL     1     -27.419  31.508   6.462  0.00  0.00    -0.442 OA
ATOM      2  O   UNL     1     -30.269  31.553   3.334  0.00  0.00    -0.270 OA
ATOM      3  O   UNL     1     -27.022  30.771   8.545  0.00  0.00    -0.247 OA
ATOM      4  N   UNL     1     -31.326  29.685   4.196  0.00  0.00    -0.249 N 
ATOM      5  N   UNL     1     -32.930  26.749   5.518  0.00  0.00    -0.405 NA
ATOM      6  C   UNL     1     -28.204  29.261   7.078  0.00  0.00    +0.196 C 
ATOM      7  C   UNL     1     -29.305  29.445   6.070  0.00  0.00    +0.017 C 
ATOM      8  C   UNL     1     -31.357  28.644   5.109  0.00  0.00    +0.084 C 
ATOM      9  C   UNL     1     -32.492  29.632   3.289  0.00  0.00    +0.128 C 
ATOM     10  C   UNL     1     -29.243  30.456   5.185  0.00  0.00    +0.074 C 
ATOM     11  C   UNL     1     -33.218  28.423   3.781  0.00  0.00    +0.029 C 
ATOM     12  C   UNL     1     -32.547  27.845   4.849  0.00  0.00    +0.142 C 
ATOM     13  C   UNL     1     -30.401  28.489   6.027  0.00  0.00    +0.016 C 
ATOM     14  C   UNL     1     -30.320  30.633   4.146  0.00  0.00    +0.252 C 
ATOM     15  C   UNL     1     -28.107  31.421   5.194  0.00  0.00    +0.239 C 
ATOM     16  C   UNL     1     -27.515  30.573   7.436  0.00  0.00    +0.346 C 
ATOM     17  C   UNL     1     -34.385  27.840   3.347  0.00  0.00    +0.002 C 
ATOM     18  C   UNL     1     -34.837  26.687   4.011  0.00  0.00    +0.022 C 
ATOM     19  C   UNL     1     -34.073  26.172   5.097  0.00  0.00    +0.113 C 
ATOM     20  C   UNL     1     -36.021  26.045   3.616  0.00  0.00    -0.008 C 
ATOM     21  C   UNL     1     -34.541  25.029   5.739  0.00  0.00    +0.088 C 
ATOM     22  C   UNL     1     -36.460  24.903   4.280  0.00  0.00    +0.124 C 
ATOM     23  C   UNL     1     -35.720  24.395   5.341  0.00  0.00    +0.018 C 
ENDROOT
BRANCH   6  24
ATOM     24  O   UNL     1     -28.754  28.797   8.314  0.00  0.00    -0.373 OA
ATOM     25  H   UNL     1     -29.721  28.760   8.244  0.00  0.00    +0.211 HD
ENDBRANCH   6  24
BRANCH  22  26
ATOM     26  O   UNL     1     -37.608  24.270   3.908  0.00  0.00    -0.506 OA
ATOM     27  H   UNL     1     -37.574  23.393   3.580  0.00  0.00    +0.292 HD
ENDBRANCH  22  26
BRANCH   6  28
ATOM     28  C   UNL     1     -27.156  28.257   6.594  0.00  0.00    +0.042 C 
ATOM     29  C   UNL     1     -27.277  26.938   7.330  0.00  0.00    +0.003 C 
ENDBRANCH   6  28
BRANCH  20  30
ATOM     30  C   UNL     1     -36.847  26.561   2.476  0.00  0.00    -0.047 C 
BRANCH  30  31
ATOM     31  N   UNL     1     -36.953  25.569   1.433  0.00  0.00    +0.387 N 
ATOM     32  C   UNL     1     -35.814  25.646   0.510  0.00  0.00    -0.100 C 
ATOM     33  C   UNL     1     -38.208  25.718   0.685  0.00  0.00    -0.100 C 
ATOM     34  H   UNL     1     -36.949  24.654   1.884  0.00  0.00    -0.079 HD
ENDBRANCH  30  31
ENDBRANCH  20  30
TORSDOF 5
ENDMDL
MODEL 2
REMARK VINA RESULT:      -6.5      6.922     12.783
REMARK  Name = 60700
REMARK  5 active torsions:
REMARK  status: ('A' for Active; 'I' for Inactive)
REMARK    1  A    between atoms: C_6  and  O_24
REMARK    2  A    between atoms: C_6  and  C_28
REMARK    3  A    between atoms: C_20  and  C_30
REMARK    4  A    between atoms: C_22  and  O_26
REMARK    5  A    between atoms: C_30  and  N_31
REMARK                            x       y       z     vdW  Elec       q    Type
REMARK                         _______ _______ _______ _____ _____    ______ ____
ROOT
ATOM      1  O   UNL     1     -36.046  14.580  -1.536  0.00  0.00    -0.442 OA
ATOM      2  O   UNL     1     -33.373  17.465   0.027  0.00  0.00    -0.270 OA
ATOM      3  O   UNL     1     -38.176  13.871  -1.500  0.00  0.00    -0.247 OA
ATOM      4  N   UNL     1     -35.124  18.874   0.571  0.00  0.00    -0.249 N 
ATOM      5  N   UNL     1     -37.853  21.078   1.364  0.00  0.00    -0.405 NA
ATOM      6  C   UNL     1     -37.837  16.261  -1.442  0.00  0.00    +0.196 C 
ATOM      7  C   UNL     1     -36.866  17.153  -0.717  0.00  0.00    +0.017 C 
ATOM      8  C   UNL     1     -36.474  19.179   0.515  0.00  0.00    +0.084 C 
ATOM      9  C   UNL     1     -34.373  19.916   1.300  0.00  0.00    +0.128 C 
ATOM     10  C   UNL     1     -35.558  16.840  -0.691  0.00  0.00    +0.074 C 
ATOM     11  C   UNL     1     -35.451  20.881   1.669  0.00  0.00    +0.029 C 
ATOM     12  C   UNL     1     -36.683  20.445   1.204  0.00  0.00    +0.142 C 
ATOM     13  C   UNL     1     -37.348  18.380  -0.100  0.00  0.00    +0.016 C 
ATOM     14  C   UNL     1     -34.568  17.743  -0.000  0.00  0.00    +0.252 C 
ATOM     15  C   UNL     1     -35.046  15.607  -1.352  0.00  0.00    +0.239 C 
ATOM     16  C   UNL     1     -37.378  14.808  -1.478  0.00  0.00    +0.346 C 
ATOM     17  C   UNL     1     -35.395  22.069   2.359  0.00  0.00    +0.002 C 
ATOM     18  C   UNL     1     -36.591  22.778   2.559  0.00  0.00    +0.022 C 
ATOM     19  C   UNL     1     -37.804  22.244   2.040  0.00  0.00    +0.113 C 
ATOM     20  C   UNL     1     -36.599  23.996   3.257  0.00  0.00    -0.008 C 
ATOM     21  C   UNL     1     -38.977  22.964   2.250  0.00  0.00    +0.088 C 
ATOM     22  C   UNL     1     -37.789  24.692   3.449  0.00  0.00    +0.124 C 
ATOM     23  C   UNL     1     -38.977  24.176   2.945  0.00  0.00    +0.018 C 
ENDROOT
BRANCH   6  24
ATOM     24  O   UNL     1     -39.080  16.227  -0.737  0.00  0.00    -0.373 OA
ATOM     25  H   UNL     1     -38.913  16.283   0.217  0.00  0.00    +0.211 HD
ENDBRANCH   6  24
BRANCH  22  26
ATOM     26  O   UNL     1     -37.812  25.875   4.124  0.00  0.00    -0.506 OA
ATOM     27  H   UNL     1     -37.193  26.036   4.809  0.00  0.00    +0.292 HD
ENDBRANCH  22  26
BRANCH   6  28
ATOM     28  C   UNL     1     -38.091  16.745  -2.871  0.00  0.00    +0.042 C 
ATOM     29  C   UNL     1     -39.553  17.081  -3.086  0.00  0.00    +0.003 C 
ENDBRANCH   6  28
BRANCH  20  30
ATOM     30  C   UNL     1     -35.338  24.586   3.815  0.00  0.00    -0.047 C 
BRANCH  30  31
ATOM     31  N   UNL     1     -35.428  24.716   5.250  0.00  0.00    +0.387 N 
ATOM     32  C   UNL     1     -34.479  25.717   5.752  0.00  0.00    -0.100 C 
ATOM     33  C   UNL     1     -35.188  23.428   5.914  0.00  0.00    -0.100 C 
ATOM     34  H   UNL     1     -36.376  25.024   5.467  0.00  0.00    -0.079 HD
ENDBRANCH  30  31
ENDBRANCH  20  30
TORSDOF 5
ENDMDL
MODEL 3
REMARK VINA RESULT:      -6.5      7.330     12.688
REMARK  Name = 60700
REMARK  5 active torsions:
REMARK  status: ('A' for Active; 'I' for Inactive)
REMARK    1  A    between atoms: C_6  and  O_24
REMARK    2  A    between atoms: C_6  and  C_28
REMARK    3  A    between atoms: C_20  and  C_30
REMARK    4  A    between atoms: C_22  and  O_26
REMARK    5  A    between atoms: C_30  and  N_31
REMARK                            x       y       z     vdW  Elec       q    Type
REMARK                         _______ _______ _______ _____ _____    ______ ____
ROOT
ATOM      1  O   UNL     1     -34.329  14.289  -1.342  0.00  0.00    -0.442 OA
ATOM      2  O   UNL     1     -32.442  17.669   0.369  0.00  0.00    -0.270 OA
ATOM      3  O   UNL     1     -36.276  13.183  -1.500  0.00  0.00    -0.247 OA
ATOM      4  N   UNL     1     -34.478  18.724   0.666  0.00  0.00    -0.249 N 
ATOM      5  N   UNL     1     -37.648  20.376   1.074  0.00  0.00    -0.405 NA
ATOM      6  C   UNL     1     -36.405  15.594  -1.508  0.00  0.00    +0.196 C 
ATOM      7  C   UNL     1     -35.709  16.672  -0.724  0.00  0.00    +0.017 C 
ATOM      8  C   UNL     1     -35.847  18.762   0.456  0.00  0.00    +0.084 C 
ATOM      9  C   UNL     1     -34.024  19.907   1.426  0.00  0.00    +0.128 C 
ATOM     10  C   UNL     1     -34.376  16.619  -0.547  0.00  0.00    +0.074 C 
ATOM     11  C   UNL     1     -35.301  20.653   1.638  0.00  0.00    +0.029 C 
ATOM     12  C   UNL     1     -36.368  19.977   1.065  0.00  0.00    +0.142 C 
ATOM     13  C   UNL     1     -36.480  17.795  -0.213  0.00  0.00    +0.016 C 
ATOM     14  C   UNL     1     -33.659  17.710   0.205  0.00  0.00    +0.252 C 
ATOM     15  C   UNL     1     -33.569  15.494  -1.098  0.00  0.00    +0.239 C 
ATOM     16  C   UNL     1     -35.678  14.256  -1.434  0.00  0.00    +0.346 C 
ATOM     17  C   UNL     1     -35.548  21.843   2.280  0.00  0.00    +0.002 C 
ATOM     18  C   UNL     1     -36.871  22.312   2.323  0.00  0.00    +0.022 C 
ATOM     19  C   UNL     1     -37.896  21.543   1.703  0.00  0.00    +0.113 C 
ATOM     20  C   UNL     1     -37.188  23.520   2.964  0.00  0.00    -0.008 C 
ATOM     21  C   UNL     1     -39.200  22.027   1.758  0.00  0.00    +0.088 C 
ATOM     22  C   UNL     1     -38.502  23.977   3.000  0.00  0.00    +0.124 C 
ATOM     23  C   UNL     1     -39.508  23.230   2.397  0.00  0.00    +0.018 C 
ENDROOT
BRANCH   6  24
ATOM     24  O   UNL     1     -37.690  15.335  -0.937  0.00  0.00    -0.373 OA
ATOM     25  H   UNL     1     -38.302  15.048  -1.633  0.00  0.00    +0.211 HD
ENDBRANCH   6  24
BRANCH  22  26
ATOM     26  O   UNL     1     -38.825  25.147   3.619  0.00  0.00    -0.506 OA
ATOM     27  H   UNL     1     -38.445  25.952   3.326  0.00  0.00    +0.292 HD
ENDBRANCH  22  26
BRANCH   6  28
ATOM     28  C   UNL     1     -36.586  15.989  -2.975  0.00  0.00    +0.042 C 
ATOM     29  C   UNL     1     -38.053  16.118  -3.333  0.00  0.00    +0.003 C 
ENDBRANCH   6  28
BRANCH  20  30
ATOM     30  C   UNL     1     -36.132  24.355   3.625  0.00  0.00    -0.047 C 
BRANCH  30  31
ATOM     31  N   UNL     1     -36.321  24.374   5.057  0.00  0.00    +0.387 N 
ATOM     32  C   UNL     1     -35.937  25.672   5.625  0.00  0.00    -0.100 C 
ATOM     33  C   UNL     1     -35.553  23.303   5.706  0.00  0.00    -0.100 C 
ATOM     34  H   UNL     1     -37.313  24.218   5.234  0.00  0.00    -0.079 HD
ENDBRANCH  30  31
ENDBRANCH  20  30
TORSDOF 5
ENDMDL
MODEL 4
REMARK VINA RESULT:      -6.2      6.871     10.512
REMARK  Name = 60700
REMARK  5 active torsions:
REMARK  status: ('A' for Active; 'I' for Inactive)
REMARK    1  A    between atoms: C_6  and  O_24
REMARK    2  A    between atoms: C_6  and  C_28
REMARK    3  A    between atoms: C_20  and  C_30
REMARK    4  A    between atoms: C_22  and  O_26
REMARK    5  A    between atoms: C_30  and  N_31
REMARK                            x       y       z     vdW  Elec       q    Type
REMARK                         _______ _______ _______ _____ _____    ______ ____
ROOT
ATOM      1  O   UNL     1     -37.839  24.970   4.123  0.00  0.00    -0.442 OA
ATOM      2  O   UNL     1     -39.071  21.999   1.373  0.00  0.00    -0.270 OA
ATOM      3  O   UNL     1     -36.319  25.467   5.698  0.00  0.00    -0.247 OA
ATOM      4  N   UNL     1     -36.975  21.021   1.405  0.00  0.00    -0.249 N 
ATOM      5  N   UNL     1     -33.697  19.541   1.426  0.00  0.00    -0.405 NA
ATOM      6  C   UNL     1     -35.512  24.264   3.768  0.00  0.00    +0.196 C 
ATOM      7  C   UNL     1     -36.056  23.120   2.957  0.00  0.00    +0.017 C 
ATOM      8  C   UNL     1     -35.649  21.051   1.802  0.00  0.00    +0.084 C 
ATOM      9  C   UNL     1     -37.260  19.822   0.590  0.00  0.00    +0.128 C 
ATOM     10  C   UNL     1     -37.344  23.123   2.572  0.00  0.00    +0.074 C 
ATOM     11  C   UNL     1     -35.929  19.145   0.552  0.00  0.00    +0.029 C 
ATOM     12  C   UNL     1     -34.986  19.871   1.264  0.00  0.00    +0.142 C 
ATOM     13  C   UNL     1     -35.163  22.047   2.547  0.00  0.00    +0.016 C 
ATOM     14  C   UNL     1     -37.896  22.002   1.729  0.00  0.00    +0.252 C 
ATOM     15  C   UNL     1     -38.261  24.235   2.952  0.00  0.00    +0.239 C 
ATOM     16  C   UNL     1     -36.581  24.935   4.621  0.00  0.00    +0.346 C 
ATOM     17  C   UNL     1     -35.535  17.976  -0.055  0.00  0.00    +0.002 C 
ATOM     18  C   UNL     1     -34.194  17.578   0.080  0.00  0.00    +0.022 C 
ATOM     19  C   UNL     1     -33.304  18.396   0.833  0.00  0.00    +0.113 C 
ATOM     20  C   UNL     1     -33.730  16.395  -0.515  0.00  0.00    -0.008 C 
ATOM     21  C   UNL     1     -31.981  17.981   0.953  0.00  0.00    +0.088 C 
ATOM     22  C   UNL     1     -32.400  16.009  -0.376  0.00  0.00    +0.124 C 
ATOM     23  C   UNL     1     -31.525  16.802   0.357  0.00  0.00    +0.018 C 
ENDROOT
BRANCH   6  24
ATOM     24  O   UNL     1     -34.555  23.775   4.711  0.00  0.00    -0.373 OA
ATOM     25  H   UNL     1     -34.512  24.377   5.471  0.00  0.00    +0.211 HD
ENDBRANCH   6  24
BRANCH  22  26
ATOM     26  O   UNL     1     -31.935  14.863  -0.948  0.00  0.00    -0.506 OA
ATOM     27  H   UNL     1     -32.044  14.721  -1.868  0.00  0.00    +0.292 HD
ENDBRANCH  22  26
BRANCH   6  28
ATOM     28  C   UNL     1     -34.840  25.315   2.882  0.00  0.00    +0.042 C 
ATOM     29  C   UNL     1     -33.499  25.737   3.448  0.00  0.00    +0.003 C 
ENDBRANCH   6  28
BRANCH  20  30
ATOM     30  C   UNL     1     -34.641  15.512  -1.314  0.00  0.00    -0.047 C 
BRANCH  30  31
ATOM     31  N   UNL     1     -34.232  15.478  -2.698  0.00  0.00    +0.387 N 
ATOM     32  C   UNL     1     -34.898  16.531  -3.475  0.00  0.00    -0.100 C 
ATOM     33  C   UNL     1     -34.510  14.167  -3.301  0.00  0.00    -0.100 C 
ATOM     34  H   UNL     1     -33.225  15.641  -2.721  0.00  0.00    -0.079 HD
ENDBRANCH  30  31
ENDBRANCH  20  30
TORSDOF 5
ENDMDL
MODEL 5
REMARK VINA RESULT:      -6.1      1.883      2.635
REMARK  Name = 60700
REMARK  5 active torsions:
REMARK  status: ('A' for Active; 'I' for Inactive)
REMARK    1  A    between atoms: C_6  and  O_24
REMARK    2  A    between atoms: C_6  and  C_28
REMARK    3  A    between atoms: C_20  and  C_30
REMARK    4  A    between atoms: C_22  and  O_26
REMARK    5  A    between atoms: C_30  and  N_31
REMARK                            x       y       z     vdW  Elec       q    Type
REMARK                         _______ _______ _______ _____ _____    ______ ____
ROOT
ATOM      1  O   UNL     1     -29.754  31.055   5.519  0.00  0.00    -0.442 OA
ATOM      2  O   UNL     1     -33.128  31.007   2.965  0.00  0.00    -0.270 OA
ATOM      3  O   UNL     1     -28.771  30.014   7.248  0.00  0.00    -0.247 OA
ATOM      4  N   UNL     1     -33.524  28.778   3.438  0.00  0.00    -0.249 N 
ATOM      5  N   UNL     1     -34.097  25.298   4.144  0.00  0.00    -0.405 NA
ATOM      6  C   UNL     1     -29.855  28.602   5.618  0.00  0.00    +0.196 C 
ATOM      7  C   UNL     1     -31.155  28.694   4.867  0.00  0.00    +0.017 C 
ATOM      8  C   UNL     1     -33.123  27.593   4.034  0.00  0.00    +0.084 C 
ATOM      9  C   UNL     1     -34.809  28.609   2.730  0.00  0.00    +0.128 C 
ATOM     10  C   UNL     1     -31.513  29.853   4.286  0.00  0.00    +0.074 C 
ATOM     11  C   UNL     1     -35.119  27.170   2.980  0.00  0.00    +0.029 C 
ATOM     12  C   UNL     1     -34.125  26.577   3.745  0.00  0.00    +0.142 C 
ATOM     13  C   UNL     1     -31.986  27.508   4.728  0.00  0.00    +0.016 C 
ATOM     14  C   UNL     1     -32.795  29.953   3.499  0.00  0.00    +0.252 C 
ATOM     15  C   UNL     1     -30.654  31.066   4.388  0.00  0.00    +0.239 C 
ATOM     16  C   UNL     1     -29.427  29.939   6.210  0.00  0.00    +0.346 C 
ATOM     17  C   UNL     1     -36.185  26.399   2.580  0.00  0.00    +0.002 C 
ATOM     18  C   UNL     1     -36.211  25.050   2.969  0.00  0.00    +0.022 C 
ATOM     19  C   UNL     1     -35.140  24.537   3.755  0.00  0.00    +0.113 C 
ATOM     20  C   UNL     1     -37.272  24.211   2.593  0.00  0.00    -0.008 C 
ATOM     21  C   UNL     1     -35.188  23.197   4.128  0.00  0.00    +0.088 C 
ATOM     22  C   UNL     1     -37.289  22.875   2.982  0.00  0.00    +0.124 C 
ATOM     23  C   UNL     1     -36.247  22.368   3.750  0.00  0.00    +0.018 C 
ENDROOT
BRANCH   6  24
ATOM     24  O   UNL     1     -30.013  27.742   6.750  0.00  0.00    -0.373 OA
ATOM     25  H   UNL     1     -30.797  27.184   6.626  0.00  0.00    +0.211 HD
ENDBRANCH   6  24
BRANCH  22  26
ATOM     26  O   UNL     1     -38.313  22.049   2.625  0.00  0.00    -0.506 OA
ATOM     27  H   UNL     1     -38.231  21.124   2.744  0.00  0.00    +0.292 HD
ENDBRANCH  22  26
BRANCH   6  28
ATOM     28  C   UNL     1     -28.731  28.057   4.735  0.00  0.00    +0.042 C 
ATOM     29  C   UNL     1     -27.745  27.238   5.544  0.00  0.00    +0.003 C 
ENDBRANCH   6  28
BRANCH  20  30
ATOM     30  C   UNL     1     -38.415  24.720   1.765  0.00  0.00    -0.047 C 
BRANCH  30  31
ATOM     31  N   UNL     1     -39.669  24.522   2.453  0.00  0.00    +0.387 N 
ATOM     32  C   UNL     1     -40.766  24.301   1.501  0.00  0.00    -0.100 C 
ATOM     33  C   UNL     1     -39.986  25.667   3.316  0.00  0.00    -0.100 C 
ATOM     34  H   UNL     1     -39.568  23.691   3.035  0.00  0.00    -0.079 HD
ENDBRANCH  30  31
ENDBRANCH  20  30
TORSDOF 5
ENDMDL
MODEL 6
REMARK VINA RESULT:      -6.1      6.753     12.325
REMARK  Name = 60700
REMARK  5 active torsions:
REMARK  status: ('A' for Active; 'I' for Inactive)
REMARK    1  A    between atoms: C_6  and  O_24
REMARK    2  A    between atoms: C_6  and  C_28
REMARK    3  A    between atoms: C_20  and  C_30
REMARK    4  A    between atoms: C_22  and  O_26
REMARK    5  A    between atoms: C_30  and  N_31
REMARK                            x       y       z     vdW  Elec       q    Type
REMARK                         _______ _______ _______ _____ _____    ______ ____
ROOT
ATOM      1  O   UNL     1     -36.518  15.636  -2.816  0.00  0.00    -0.442 OA
ATOM      2  O   UNL     1     -35.967  19.814  -3.204  0.00  0.00    -0.270 OA
ATOM      3  O   UNL     1     -36.231  13.887  -1.439  0.00  0.00    -0.247 OA
ATOM      4  N   UNL     1     -35.857  20.068  -0.908  0.00  0.00    -0.249 N 
ATOM      5  N   UNL     1     -35.739  20.456   2.666  0.00  0.00    -0.405 NA
ATOM      6  C   UNL     1     -36.919  15.961  -0.413  0.00  0.00    +0.196 C 
ATOM      7  C   UNL     1     -36.522  17.398  -0.612  0.00  0.00    +0.017 C 
ATOM      8  C   UNL     1     -35.982  19.528   0.362  0.00  0.00    +0.084 C 
ATOM      9  C   UNL     1     -35.497  21.499  -0.844  0.00  0.00    +0.128 C 
ATOM     10  C   UNL     1     -36.421  17.900  -1.856  0.00  0.00    +0.074 C 
ATOM     11  C   UNL     1     -35.427  21.741   0.628  0.00  0.00    +0.029 C 
ATOM     12  C   UNL     1     -35.714  20.581   1.332  0.00  0.00    +0.142 C 
ATOM     13  C   UNL     1     -36.305  18.247   0.550  0.00  0.00    +0.016 C 
ATOM     14  C   UNL     1     -36.059  19.348  -2.071  0.00  0.00    +0.252 C 
ATOM     15  C   UNL     1     -36.677  17.052  -3.054  0.00  0.00    +0.239 C 
ATOM     16  C   UNL     1     -36.512  15.075  -1.585  0.00  0.00    +0.346 C 
ATOM     17  C   UNL     1     -35.138  22.882   1.337  0.00  0.00    +0.002 C 
ATOM     18  C   UNL     1     -35.148  22.813   2.740  0.00  0.00    +0.022 C 
ATOM     19  C   UNL     1     -35.456  21.572   3.368  0.00  0.00    +0.113 C 
ATOM     20  C   UNL     1     -34.860  23.944   3.520  0.00  0.00    -0.008 C 
ATOM     21  C   UNL     1     -35.460  21.528   4.758  0.00  0.00    +0.088 C 
ATOM     22  C   UNL     1     -34.873  23.865   4.910  0.00  0.00    +0.124 C 
ATOM     23  C   UNL     1     -35.173  22.657   5.529  0.00  0.00    +0.018 C 
ENDROOT
BRANCH   6  24
ATOM     24  O   UNL     1     -36.218  15.417   0.708  0.00  0.00    -0.373 OA
ATOM     25  H   UNL     1     -36.524  15.849   1.522  0.00  0.00    +0.211 HD
ENDBRANCH   6  24
BRANCH  22  26
ATOM     26  O   UNL     1     -34.596  24.954   5.680  0.00  0.00    -0.506 OA
ATOM     27  H   UNL     1     -33.789  25.416   5.566  0.00  0.00    +0.292 HD
ENDBRANCH  22  26
BRANCH   6  28
ATOM     28  C   UNL     1     -38.423  15.819  -0.173  0.00  0.00    +0.042 C 
ATOM     29  C   UNL     1     -39.057  14.887  -1.186  0.00  0.00    +0.003 C 
ENDBRANCH   6  28
BRANCH  20  30
ATOM     30  C   UNL     1     -34.533  25.265   2.891  0.00  0.00    -0.047 C 
BRANCH  30  31
ATOM     31  N   UNL     1     -35.470  26.278   3.316  0.00  0.00    +0.387 N 
ATOM     32  C   UNL     1     -36.698  26.235   2.511  0.00  0.00    -0.100 C 
ATOM     33  C   UNL     1     -34.873  27.618   3.238  0.00  0.00    -0.100 C 
ATOM     34  H   UNL     1     -35.708  26.082   4.288  0.00  0.00    -0.079 HD
ENDBRANCH  30  31
ENDBRANCH  20  30
TORSDOF 5
ENDMDL
MODEL 7
REMARK VINA RESULT:      -6.1      7.442     11.191
REMARK  Name = 60700
REMARK  5 active torsions:
REMARK  status: ('A' for Active; 'I' for Inactive)
REMARK    1  A    between atoms: C_6  and  O_24
REMARK    2  A    between atoms: C_6  and  C_28
REMARK    3  A    between atoms: C_20  and  C_30
REMARK    4  A    between atoms: C_22  and  O_26
REMARK    5  A    between atoms: C_30  and  N_31
REMARK                            x       y       z     vdW  Elec       q    Type
REMARK                         _______ _______ _______ _____ _____    ______ ____
ROOT
ATOM      1  O   UNL     1     -38.190  24.050   3.444  0.00  0.00    -0.442 OA
ATOM      2  O   UNL     1     -38.799  20.794   0.809  0.00  0.00    -0.270 OA
ATOM      3  O   UNL     1     -36.848  24.858   5.051  0.00  0.00    -0.247 OA
ATOM      4  N   UNL     1     -36.579  20.169   0.981  0.00  0.00    -0.249 N 
ATOM      5  N   UNL     1     -33.112  19.239   1.215  0.00  0.00    -0.405 NA
ATOM      6  C   UNL     1     -35.766  23.712   3.223  0.00  0.00    +0.196 C 
ATOM      7  C   UNL     1     -36.081  22.458   2.453  0.00  0.00    +0.017 C 
ATOM      8  C   UNL     1     -35.295  20.431   1.429  0.00  0.00    +0.084 C 
ATOM      9  C   UNL     1     -36.629  18.903   0.220  0.00  0.00    +0.128 C 
ATOM     10  C   UNL     1     -37.334  22.236   2.016  0.00  0.00    +0.074 C 
ATOM     11  C   UNL     1     -35.207  18.448   0.273  0.00  0.00    +0.029 C 
ATOM     12  C   UNL     1     -34.427  19.349   0.984  0.00  0.00    +0.142 C 
ATOM     13  C   UNL     1     -35.010  21.525   2.139  0.00  0.00    +0.016 C 
ATOM     14  C   UNL     1     -37.658  21.003   1.213  0.00  0.00    +0.252 C 
ATOM     15  C   UNL     1     -38.432  23.203   2.298  0.00  0.00    +0.239 C 
ATOM     16  C   UNL     1     -36.969  24.241   3.994  0.00  0.00    +0.346 C 
ATOM     17  C   UNL     1     -34.603  17.331  -0.253  0.00  0.00    +0.002 C 
ATOM     18  C   UNL     1     -33.225  17.161  -0.042  0.00  0.00    +0.022 C 
ATOM     19  C   UNL     1     -32.513  18.145   0.701  0.00  0.00    +0.113 C 
ATOM     20  C   UNL     1     -32.550  16.041  -0.553  0.00  0.00    -0.008 C 
ATOM     21  C   UNL     1     -31.149  17.955   0.898  0.00  0.00    +0.088 C 
ATOM     22  C   UNL     1     -31.184  15.881  -0.339  0.00  0.00    +0.124 C 
ATOM     23  C   UNL     1     -30.484  16.838   0.386  0.00  0.00    +0.018 C 
ENDROOT
BRANCH   6  24
ATOM     24  O   UNL     1     -34.792  23.427   4.230  0.00  0.00    -0.373 OA
ATOM     25  H   UNL     1     -34.026  22.990   3.825  0.00  0.00    +0.211 HD
ENDBRANCH   6  24
BRANCH  22  26
ATOM     26  O   UNL     1     -30.516  14.799  -0.829  0.00  0.00    -0.506 OA
ATOM     27  H   UNL     1     -29.796  14.920  -1.416  0.00  0.00    +0.292 HD
ENDBRANCH  22  26
BRANCH   6  28
ATOM     28  C   UNL     1     -35.227  24.815   2.310  0.00  0.00    +0.042 C 
ATOM     29  C   UNL     1     -33.890  25.331   2.801  0.00  0.00    +0.003 C 
ENDBRANCH   6  28
BRANCH  20  30
ATOM     30  C   UNL     1     -33.269  14.987  -1.340  0.00  0.00    -0.047 C 
BRANCH  30  31
ATOM     31  N   UNL     1     -32.779  14.941  -2.698  0.00  0.00    +0.387 N 
ATOM     32  C   UNL     1     -33.510  15.880  -3.558  0.00  0.00    -0.100 C 
ATOM     33  C   UNL     1     -32.876  13.584  -3.251  0.00  0.00    -0.100 C 
ATOM     34  H   UNL     1     -31.796  15.215  -2.674  0.00  0.00    -0.079 HD
ENDBRANCH  30  31
ENDBRANCH  20  30
TORSDOF 5
ENDMDL
MODEL 8
REMARK VINA RESULT:      -6.0      1.815      9.396
REMARK  Name = 60700
REMARK  5 active torsions:
REMARK  status: ('A' for Active; 'I' for Inactive)
REMARK    1  A    between atoms: C_6  and  O_24
REMARK    2  A    between atoms: C_6  and  C_28
REMARK    3  A    between atoms: C_20  and  C_30
REMARK    4  A    between atoms: C_22  and  O_26
REMARK    5  A    between atoms: C_30  and  N_31
REMARK                            x       y       z     vdW  Elec       q    Type
REMARK                         _______ _______ _______ _____ _____    ______ ____
ROOT
ATOM      1  O   UNL     1     -39.143  24.094   2.528  0.00  0.00    -0.442 OA
ATOM      2  O   UNL     1     -36.031  23.774   5.379  0.00  0.00    -0.270 OA
ATOM      3  O   UNL     1     -40.257  25.529   1.210  0.00  0.00    -0.247 OA
ATOM      4  N   UNL     1     -35.085  25.755   4.650  0.00  0.00    -0.249 N 
ATOM      5  N   UNL     1     -33.596  28.810   3.473  0.00  0.00    -0.405 NA
ATOM      6  C   UNL     1     -37.879  25.889   1.423  0.00  0.00    +0.196 C 
ATOM      7  C   UNL     1     -36.922  25.834   2.582  0.00  0.00    +0.017 C 
ATOM      8  C   UNL     1     -35.048  26.797   3.739  0.00  0.00    +0.084 C 
ATOM      9  C   UNL     1     -34.027  25.902   5.670  0.00  0.00    +0.128 C 
ATOM     10  C   UNL     1     -36.970  24.802   3.443  0.00  0.00    +0.074 C 
ATOM     11  C   UNL     1     -33.354  27.166   5.246  0.00  0.00    +0.029 C 
ATOM     12  C   UNL     1     -33.957  27.688   4.110  0.00  0.00    +0.142 C 
ATOM     13  C   UNL     1     -35.912  26.872   2.724  0.00  0.00    +0.016 C 
ATOM     14  C   UNL     1     -35.994  24.713   4.589  0.00  0.00    +0.252 C 
ATOM     15  C   UNL     1     -37.974  23.712   3.287  0.00  0.00    +0.239 C 
ATOM     16  C   UNL     1     -39.194  25.176   1.717  0.00  0.00    +0.346 C 
ATOM     17  C   UNL     1     -32.287  27.840   5.789  0.00  0.00    +0.002 C 
ATOM     18  C   UNL     1     -31.863  29.025   5.164  0.00  0.00    +0.022 C 
ATOM     19  C   UNL     1     -32.549  29.476   4.001  0.00  0.00    +0.113 C 
ATOM     20  C   UNL     1     -30.779  29.760   5.671  0.00  0.00    -0.008 C 
ATOM     21  C   UNL     1     -32.112  30.652   3.400  0.00  0.00    +0.088 C 
ATOM     22  C   UNL     1     -30.366  30.932   5.045  0.00  0.00    +0.124 C 
ATOM     23  C   UNL     1     -31.032  31.378   3.910  0.00  0.00    +0.018 C 
ENDROOT
BRANCH   6  24
ATOM     24  O   UNL     1     -38.255  27.245   1.172  0.00  0.00    -0.373 OA
ATOM     25  H   UNL     1     -38.249  27.412   0.216  0.00  0.00    +0.211 HD
ENDBRANCH   6  24
BRANCH  22  26
ATOM     26  O   UNL     1     -29.316  31.656   5.526  0.00  0.00    -0.506 OA
ATOM     27  H   UNL     1     -29.327  31.966   6.410  0.00  0.00    +0.292 HD
ENDBRANCH  22  26
BRANCH   6  28
ATOM     28  C   UNL     1     -37.261  25.303   0.151  0.00  0.00    +0.042 C 
ATOM     29  C   UNL     1     -37.065  26.371  -0.906  0.00  0.00    +0.003 C 
ENDBRANCH   6  28
BRANCH  20  30
ATOM     30  C   UNL     1     -30.035  29.312   6.894  0.00  0.00    -0.047 C 
BRANCH  30  31
ATOM     31  N   UNL     1     -28.666  28.991   6.566  0.00  0.00    +0.387 N 
ATOM     32  C   UNL     1     -28.504  27.554   6.311  0.00  0.00    -0.100 C 
ATOM     33  C   UNL     1     -27.753  29.409   7.639  0.00  0.00    -0.100 C 
ATOM     34  H   UNL     1     -28.429  29.503   5.717  0.00  0.00    -0.079 HD
ENDBRANCH  30  31
ENDBRANCH  20  30
TORSDOF 5
ENDMDL
MODEL 9
REMARK VINA RESULT:      -6.0      3.239      4.668
REMARK  Name = 60700
REMARK  5 active torsions:
REMARK  status: ('A' for Active; 'I' for Inactive)
REMARK    1  A    between atoms: C_6  and  O_24
REMARK    2  A    between atoms: C_6  and  C_28
REMARK    3  A    between atoms: C_20  and  C_30
REMARK    4  A    between atoms: C_22  and  O_26
REMARK    5  A    between atoms: C_30  and  N_31
REMARK                            x       y       z     vdW  Elec       q    Type
REMARK                         _______ _______ _______ _____ _____    ______ ____
ROOT
ATOM      1  O   UNL     1     -32.698  34.176   1.588  0.00  0.00    -0.442 OA
ATOM      2  O   UNL     1     -35.637  31.528   0.086  0.00  0.00    -0.270 OA
ATOM      3  O   UNL     1     -31.419  34.646   3.372  0.00  0.00    -0.247 OA
ATOM      4  N   UNL     1     -35.049  29.911   1.631  0.00  0.00    -0.249 N 
ATOM      5  N   UNL     1     -34.089  27.386   4.007  0.00  0.00    -0.405 NA
ATOM      6  C   UNL     1     -31.735  32.308   2.862  0.00  0.00    +0.196 C 
ATOM      7  C   UNL     1     -32.923  31.492   2.429  0.00  0.00    +0.017 C 
ATOM      8  C   UNL     1     -34.196  29.463   2.627  0.00  0.00    +0.084 C 
ATOM      9  C   UNL     1     -36.112  28.922   1.358  0.00  0.00    +0.128 C 
ATOM     10  C   UNL     1     -33.726  31.944   1.450  0.00  0.00    +0.074 C 
ATOM     11  C   UNL     1     -35.779  27.828   2.318  0.00  0.00    +0.029 C 
ATOM     12  C   UNL     1     -34.652  28.150   3.061  0.00  0.00    +0.142 C 
ATOM     13  C   UNL     1     -33.156  30.192   3.039  0.00  0.00    +0.016 C 
ATOM     14  C   UNL     1     -34.899  31.122   0.981  0.00  0.00    +0.252 C 
ATOM     15  C   UNL     1     -33.477  33.257   0.791  0.00  0.00    +0.239 C 
ATOM     16  C   UNL     1     -31.944  33.802   2.648  0.00  0.00    +0.346 C 
ATOM     17  C   UNL     1     -36.395  26.622   2.552  0.00  0.00    +0.002 C 
ATOM     18  C   UNL     1     -35.850  25.777   3.533  0.00  0.00    +0.022 C 
ATOM     19  C   UNL     1     -34.689  26.201   4.240  0.00  0.00    +0.113 C 
ATOM     20  C   UNL     1     -36.433  24.533   3.819  0.00  0.00    -0.008 C 
ATOM     21  C   UNL     1     -34.166  25.347   5.208  0.00  0.00    +0.088 C 
ATOM     22  C   UNL     1     -35.885  23.703   4.793  0.00  0.00    +0.124 C 
ATOM     23  C   UNL     1     -34.752  24.110   5.487  0.00  0.00    +0.018 C 
ENDROOT
BRANCH   6  24
ATOM     24  O   UNL     1     -31.544  32.171   4.272  0.00  0.00    -0.373 OA
ATOM     25  H   UNL     1     -31.507  31.229   4.504  0.00  0.00    +0.211 HD
ENDBRANCH   6  24
BRANCH  22  26
ATOM     26  O   UNL     1     -36.441  22.492   5.081  0.00  0.00    -0.506 OA
ATOM     27  H   UNL     1     -37.106  22.138   4.525  0.00  0.00    +0.292 HD
ENDBRANCH  22  26
BRANCH   6  28
ATOM     28  C   UNL     1     -30.457  31.869   2.144  0.00  0.00    +0.042 C 
ATOM     29  C   UNL     1     -29.452  31.286   3.116  0.00  0.00    +0.003 C 
ENDBRANCH   6  28
BRANCH  20  30
ATOM     30  C   UNL     1     -37.656  24.057   3.092  0.00  0.00    -0.047 C 
BRANCH  30  31
ATOM     31  N   UNL     1     -37.395  22.805   2.423  0.00  0.00    +0.387 N 
ATOM     32  C   UNL     1     -36.603  23.011   1.203  0.00  0.00    -0.100 C 
ATOM     33  C   UNL     1     -38.647  22.112   2.089  0.00  0.00    -0.100 C 
ATOM     34  H   UNL     1     -36.861  22.223   3.067  0.00  0.00    -0.079 HD
ENDBRANCH  30  31
ENDBRANCH  20  30
TORSDOF 5
ENDMDL
