MODEL 1
REMARK VINA RESULT:      -5.9      0.000      0.000
REMARK  Name = 196930
REMARK  9 active torsions:
REMARK  status: ('A' for Active; 'I' for Inactive)
REMARK    1  A    between atoms: C_2  and  C_15
REMARK    2  A    between atoms: C_3  and  O_9
REMARK    3  A    between atoms: C_4  and  O_11
REMARK    4  A    between atoms: C_5  and  O_13
REMARK    5  A    between atoms: C_6  and  S_7
REMARK    6  A    between atoms: C_15  and  N_17
REMARK    7  A    between atoms: C_15  and  C_23
REMARK    8  A    between atoms: C_18  and  C_22
REMARK    9  A    between atoms: C_23  and  O_25
REMARK                            x       y       z     vdW  Elec       q    Type
REMARK                         _______ _______ _______ _____ _____    ______ ____
ROOT
ATOM      1  O   UNL     1     -37.991  23.909   3.221  0.00  0.00    -0.341 OA
ATOM      2  C   UNL     1     -36.813  23.210   2.791  0.00  0.00    +0.166 C 
ATOM      3  C   UNL     1     -35.759  23.171   3.904  0.00  0.00    +0.168 C 
ATOM      4  C   UNL     1     -35.439  24.588   4.383  0.00  0.00    +0.170 C 
ATOM      5  C   UNL     1     -36.726  25.316   4.774  0.00  0.00    +0.177 C 
ATOM      6  C   UNL     1     -37.771  25.259   3.651  0.00  0.00    +0.192 C 
ENDROOT
BRANCH   6   7
ATOM      7  S   UNL     1     -37.434  26.397   2.252  0.00  0.00    -0.109 S 
ATOM      8  C   UNL     1     -38.927  26.057   1.296  0.00  0.00    +0.072 C 
ENDBRANCH   6   7
BRANCH   3   9
ATOM      9  O   UNL     1     -36.268  22.399   4.996  0.00  0.00    -0.379 OA
ATOM     10  H   UNL     1     -35.563  21.834   5.349  0.00  0.00    +0.211 HD
ENDBRANCH   3   9
BRANCH   4  11
ATOM     11  O   UNL     1     -34.570  24.535   5.511  0.00  0.00    -0.379 OA
ATOM     12  H   UNL     1     -35.069  24.751   6.314  0.00  0.00    +0.211 HD
ENDBRANCH   4  11
BRANCH   5  13
ATOM     13  O   UNL     1     -36.454  26.664   5.142  0.00  0.00    -0.379 OA
ATOM     14  H   UNL     1     -36.220  27.174   4.349  0.00  0.00    +0.211 HD
ENDBRANCH   5  13
BRANCH   2  15
ATOM     15  C   UNL     1     -37.253  21.814   2.360  0.00  0.00    +0.128 C 
BRANCH  15  17
ATOM     16  O   UNL     1     -35.089  20.107   3.152  0.00  0.00    -0.272 OA
ATOM     17  N   UNL     1     -36.251  21.236   1.493  0.00  0.00    -0.299 N 
ATOM     18  C   UNL     1     -35.239  20.418   1.971  0.00  0.00    +0.253 C 
ATOM     19  H   UNL     1     -36.290  21.429   0.528  0.00  0.00    +0.150 HD
BRANCH  18  22
ATOM     20 CL   UNL     1     -33.408  21.327   0.268  0.00  0.00    -0.087 Cl
ATOM     21 CL   UNL     1     -33.235  18.716   1.566  0.00  0.00    -0.087 Cl
ATOM     22  C   UNL     1     -34.319  19.934   0.875  0.00  0.00    +0.234 C 
ENDBRANCH  18  22
ENDBRANCH  15  17
BRANCH  15  23
ATOM     23  C   UNL     1     -38.643  21.815   1.698  0.00  0.00    +0.131 C 
ATOM     24  C   UNL     1     -38.586  21.495   0.208  0.00  0.00    +0.034 C 
BRANCH  23  25
ATOM     25  O   UNL     1     -39.507  20.865   2.318  0.00  0.00    -0.383 OA
ATOM     26  H   UNL     1     -38.987  20.107   2.625  0.00  0.00    +0.210 HD
ENDBRANCH  23  25
ENDBRANCH  15  23
ENDBRANCH   2  15
TORSDOF 9
ENDMDL
MODEL 2
REMARK VINA RESULT:      -5.7      4.539      6.404
REMARK  Name = 196930
REMARK  9 active torsions:
REMARK  status: ('A' for Active; 'I' for Inactive)
REMARK    1  A    between atoms: C_2  and  C_15
REMARK    2  A    between atoms: C_3  and  O_9
REMARK    3  A    between atoms: C_4  and  O_11
REMARK    4  A    between atoms: C_5  and  O_13
REMARK    5  A    between atoms: C_6  and  S_7
REMARK    6  A    between atoms: C_15  and  N_17
REMARK    7  A    between atoms: C_15  and  C_23
REMARK    8  A    between atoms: C_18  and  C_22
REMARK    9  A    between atoms: C_23  and  O_25
REMARK                            x       y       z     vdW  Elec       q    Type
REMARK                         _______ _______ _______ _____ _____    ______ ____
ROOT
ATOM      1  O   UNL     1     -35.463  25.580   2.546  0.00  0.00    -0.341 OA
ATOM      2  C   UNL     1     -35.245  26.284   3.778  0.00  0.00    +0.166 C 
ATOM      3  C   UNL     1     -34.827  25.322   4.897  0.00  0.00    +0.168 C 
ATOM      4  C   UNL     1     -35.863  24.208   5.053  0.00  0.00    +0.170 C 
ATOM      5  C   UNL     1     -36.109  23.523   3.708  0.00  0.00    +0.177 C 
ATOM      6  C   UNL     1     -36.450  24.541   2.609  0.00  0.00    +0.192 C 
ENDROOT
BRANCH   6   7
ATOM      7  S   UNL     1     -38.159  25.200   2.701  0.00  0.00    -0.109 S 
ATOM      8  C   UNL     1     -38.270  25.826   1.011  0.00  0.00    +0.072 C 
ENDBRANCH   6   7
BRANCH   3   9
ATOM      9  O   UNL     1     -33.556  24.754   4.567  0.00  0.00    -0.379 OA
ATOM     10  H   UNL     1     -33.270  24.165   5.283  0.00  0.00    +0.211 HD
ENDBRANCH   3   9
BRANCH   4  11
ATOM     11  O   UNL     1     -35.398  23.241   5.991  0.00  0.00    -0.379 OA
ATOM     12  H   UNL     1     -34.666  23.615   6.506  0.00  0.00    +0.211 HD
ENDBRANCH   4  11
BRANCH   5  13
ATOM     13  O   UNL     1     -37.133  22.540   3.819  0.00  0.00    -0.379 OA
ATOM     14  H   UNL     1     -36.878  21.750   3.315  0.00  0.00    +0.211 HD
ENDBRANCH   5  13
BRANCH   2  15
ATOM     15  C   UNL     1     -34.186  27.348   3.503  0.00  0.00    +0.128 C 
BRANCH  15  17
ATOM     16  O   UNL     1     -31.371  27.767   3.860  0.00  0.00    -0.272 OA
ATOM     17  N   UNL     1     -33.517  27.697   4.737  0.00  0.00    -0.299 N 
ATOM     18  C   UNL     1     -32.145  27.880   4.809  0.00  0.00    +0.253 C 
ATOM     19  H   UNL     1     -34.055  27.808   5.554  0.00  0.00    +0.150 HD
BRANCH  18  22
ATOM     20 CL   UNL     1     -31.875  29.989   6.409  0.00  0.00    -0.087 Cl
ATOM     21 CL   UNL     1     -32.678  27.347   7.360  0.00  0.00    -0.087 Cl
ATOM     22  C   UNL     1     -31.682  28.241   6.201  0.00  0.00    +0.234 C 
ENDBRANCH  18  22
ENDBRANCH  15  17
BRANCH  15  23
ATOM     23  C   UNL     1     -34.768  28.590   2.805  0.00  0.00    +0.131 C 
ATOM     24  C   UNL     1     -33.924  29.053   1.623  0.00  0.00    +0.034 C 
BRANCH  23  25
ATOM     25  O   UNL     1     -36.089  28.339   2.329  0.00  0.00    -0.383 OA
ATOM     26  H   UNL     1     -36.261  28.888   1.548  0.00  0.00    +0.210 HD
ENDBRANCH  23  25
ENDBRANCH  15  23
ENDBRANCH   2  15
TORSDOF 9
ENDMDL
MODEL 3
REMARK VINA RESULT:      -5.6      2.986      4.778
REMARK  Name = 196930
REMARK  9 active torsions:
REMARK  status: ('A' for Active; 'I' for Inactive)
REMARK    1  A    between atoms: C_2  and  C_15
REMARK    2  A    between atoms: C_3  and  O_9
REMARK    3  A    between atoms: C_4  and  O_11
REMARK    4  A    between atoms: C_5  and  O_13
REMARK    5  A    between atoms: C_6  and  S_7
REMARK    6  A    between atoms: C_15  and  N_17
REMARK    7  A    between atoms: C_15  and  C_23
REMARK    8  A    between atoms: C_18  and  C_22
REMARK    9  A    between atoms: C_23  and  O_25
REMARK                            x       y       z     vdW  Elec       q    Type
REMARK                         _______ _______ _______ _____ _____    ______ ____
ROOT
ATOM      1  O   UNL     1     -39.228  22.504   2.196  0.00  0.00    -0.341 OA
ATOM      2  C   UNL     1     -38.027  23.291   2.207  0.00  0.00    +0.166 C 
ATOM      3  C   UNL     1     -38.323  24.743   2.602  0.00  0.00    +0.168 C 
ATOM      4  C   UNL     1     -39.386  25.338   1.676  0.00  0.00    +0.170 C 
ATOM      5  C   UNL     1     -40.624  24.439   1.648  0.00  0.00    +0.177 C 
ATOM      6  C   UNL     1     -40.258  22.984   1.322  0.00  0.00    +0.192 C 
ENDROOT
BRANCH   6   7
ATOM      7  S   UNL     1     -39.876  22.683  -0.447  0.00  0.00    -0.109 S 
ATOM      8  C   UNL     1     -39.523  20.917  -0.323  0.00  0.00    +0.072 C 
ENDBRANCH   6   7
BRANCH   3   9
ATOM      9  O   UNL     1     -38.793  24.769   3.952  0.00  0.00    -0.379 OA
ATOM     10  H   UNL     1     -39.140  23.895   4.191  0.00  0.00    +0.211 HD
ENDBRANCH   3   9
BRANCH   4  11
ATOM     11  O   UNL     1     -39.760  26.634   2.136  0.00  0.00    -0.379 OA
ATOM     12  H   UNL     1     -40.716  26.657   2.297  0.00  0.00    +0.211 HD
ENDBRANCH   4  11
BRANCH   5  13
ATOM     13  O   UNL     1     -41.589  24.935   0.726  0.00  0.00    -0.379 OA
ATOM     14  H   UNL     1     -41.219  24.915  -0.171  0.00  0.00    +0.211 HD
ENDBRANCH   5  13
BRANCH   2  15
ATOM     15  C   UNL     1     -37.058  22.615   3.173  0.00  0.00    +0.128 C 
BRANCH  15  17
ATOM     16  O   UNL     1     -36.034  22.578   5.851  0.00  0.00    -0.272 OA
ATOM     17  N   UNL     1     -36.206  23.611   3.782  0.00  0.00    -0.299 N 
ATOM     18  C   UNL     1     -35.760  23.504   5.090  0.00  0.00    +0.253 C 
ATOM     19  H   UNL     1     -35.932  24.392   3.249  0.00  0.00    +0.150 HD
BRANCH  18  22
ATOM     20 CL   UNL     1     -33.735  24.975   4.185  0.00  0.00    -0.087 Cl
ATOM     21 CL   UNL     1     -35.924  26.068   5.781  0.00  0.00    -0.087 Cl
ATOM     22  C   UNL     1     -34.882  24.664   5.499  0.00  0.00    +0.234 C 
ENDBRANCH  18  22
ENDBRANCH  15  17
BRANCH  15  23
ATOM     23  C   UNL     1     -36.234  21.503   2.496  0.00  0.00    +0.131 C 
ATOM     24  C   UNL     1     -35.021  22.042   1.747  0.00  0.00    +0.034 C 
BRANCH  23  25
ATOM     25  O   UNL     1     -35.772  20.553   3.454  0.00  0.00    -0.383 OA
ATOM     26  H   UNL     1     -35.281  21.011   4.153  0.00  0.00    +0.210 HD
ENDBRANCH  23  25
ENDBRANCH  15  23
ENDBRANCH   2  15
TORSDOF 9
ENDMDL
MODEL 4
REMARK VINA RESULT:      -5.5      3.523      5.282
REMARK  Name = 196930
REMARK  9 active torsions:
REMARK  status: ('A' for Active; 'I' for Inactive)
REMARK    1  A    between atoms: C_2  and  C_15
REMARK    2  A    between atoms: C_3  and  O_9
REMARK    3  A    between atoms: C_4  and  O_11
REMARK    4  A    between atoms: C_5  and  O_13
REMARK    5  A    between atoms: C_6  and  S_7
REMARK    6  A    between atoms: C_15  and  N_17
REMARK    7  A    between atoms: C_15  and  C_23
REMARK    8  A    between atoms: C_18  and  C_22
REMARK    9  A    between atoms: C_23  and  O_25
REMARK                            x       y       z     vdW  Elec       q    Type
REMARK                         _______ _______ _______ _____ _____    ______ ____
ROOT
ATOM      1  O   UNL     1     -38.077  23.780   3.522  0.00  0.00    -0.341 OA
ATOM      2  C   UNL     1     -36.780  24.293   3.178  0.00  0.00    +0.166 C 
ATOM      3  C   UNL     1     -36.855  25.780   2.813  0.00  0.00    +0.168 C 
ATOM      4  C   UNL     1     -37.872  26.001   1.691  0.00  0.00    +0.170 C 
ATOM      5  C   UNL     1     -39.220  25.388   2.073  0.00  0.00    +0.177 C 
ATOM      6  C   UNL     1     -39.073  23.921   2.501  0.00  0.00    +0.192 C 
ENDROOT
BRANCH   6   7
ATOM      7  S   UNL     1     -38.824  22.754   1.108  0.00  0.00    -0.109 S 
ATOM      8  C   UNL     1     -39.631  21.317   1.846  0.00  0.00    +0.072 C 
ENDBRANCH   6   7
BRANCH   3   9
ATOM      9  O   UNL     1     -37.250  26.522   3.971  0.00  0.00    -0.379 OA
ATOM     10  H   UNL     1     -36.465  26.748   4.494  0.00  0.00    +0.211 HD
ENDBRANCH   3   9
BRANCH   4  11
ATOM     11  O   UNL     1     -38.041  27.396   1.457  0.00  0.00    -0.379 OA
ATOM     12  H   UNL     1     -37.172  27.821   1.389  0.00  0.00    +0.211 HD
ENDBRANCH   4  11
BRANCH   5  13
ATOM     13  O   UNL     1     -40.153  25.511   1.004  0.00  0.00    -0.379 OA
ATOM     14  H   UNL     1     -40.689  26.310   1.134  0.00  0.00    +0.211 HD
ENDBRANCH   5  13
BRANCH   2  15
ATOM     15  C   UNL     1     -35.867  24.035   4.373  0.00  0.00    +0.128 C 
BRANCH  15  17
ATOM     16  O   UNL     1     -35.204  26.165   6.176  0.00  0.00    -0.272 OA
ATOM     17  N   UNL     1     -34.711  24.901   4.295  0.00  0.00    -0.299 N 
ATOM     18  C   UNL     1     -34.475  25.907   5.219  0.00  0.00    +0.253 C 
ATOM     19  H   UNL     1     -34.068  24.770   3.561  0.00  0.00    +0.150 HD
BRANCH  18  22
ATOM     20 CL   UNL     1     -33.576  27.914   3.721  0.00  0.00    -0.087 Cl
ATOM     21 CL   UNL     1     -32.648  27.403   6.444  0.00  0.00    -0.087 Cl
ATOM     22  C   UNL     1     -33.206  26.673   4.930  0.00  0.00    +0.234 C 
ENDBRANCH  18  22
ENDBRANCH  15  17
BRANCH  15  23
ATOM     23  C   UNL     1     -35.458  22.555   4.491  0.00  0.00    +0.131 C 
ATOM     24  C   UNL     1     -35.420  22.068   5.935  0.00  0.00    +0.034 C 
BRANCH  23  25
ATOM     25  O   UNL     1     -36.355  21.716   3.769  0.00  0.00    -0.383 OA
ATOM     26  H   UNL     1     -36.032  20.802   3.790  0.00  0.00    +0.210 HD
ENDBRANCH  23  25
ENDBRANCH  15  23
ENDBRANCH   2  15
TORSDOF 9
ENDMDL
MODEL 5
REMARK VINA RESULT:      -5.4      3.394      6.219
REMARK  Name = 196930
REMARK  9 active torsions:
REMARK  status: ('A' for Active; 'I' for Inactive)
REMARK    1  A    between atoms: C_2  and  C_15
REMARK    2  A    between atoms: C_3  and  O_9
REMARK    3  A    between atoms: C_4  and  O_11
REMARK    4  A    between atoms: C_5  and  O_13
REMARK    5  A    between atoms: C_6  and  S_7
REMARK    6  A    between atoms: C_15  and  N_17
REMARK    7  A    between atoms: C_15  and  C_23
REMARK    8  A    between atoms: C_18  and  C_22
REMARK    9  A    between atoms: C_23  and  O_25
REMARK                            x       y       z     vdW  Elec       q    Type
REMARK                         _______ _______ _______ _____ _____    ______ ____
ROOT
ATOM      1  O   UNL     1     -35.358  20.419   2.727  0.00  0.00    -0.341 OA
ATOM      2  C   UNL     1     -35.912  21.717   2.462  0.00  0.00    +0.166 C 
ATOM      3  C   UNL     1     -37.177  21.611   1.600  0.00  0.00    +0.168 C 
ATOM      4  C   UNL     1     -36.877  20.844   0.311  0.00  0.00    +0.170 C 
ATOM      5  C   UNL     1     -36.235  19.495   0.636  0.00  0.00    +0.177 C 
ATOM      6  C   UNL     1     -35.020  19.656   1.561  0.00  0.00    +0.192 C 
ENDROOT
BRANCH   6   7
ATOM      7  S   UNL     1     -33.514  20.284   0.722  0.00  0.00    -0.109 S 
ATOM      8  C   UNL     1     -32.471  18.833   0.975  0.00  0.00    +0.072 C 
ENDBRANCH   6   7
BRANCH   3   9
ATOM      9  O   UNL     1     -38.187  20.924   2.344  0.00  0.00    -0.379 OA
ATOM     10  H   UNL     1     -37.930  19.996   2.458  0.00  0.00    +0.211 HD
ENDBRANCH   3   9
BRANCH   4  11
ATOM     11  O   UNL     1     -38.084  20.625  -0.415  0.00  0.00    -0.379 OA
ATOM     12  H   UNL     1     -37.883  20.174  -1.249  0.00  0.00    +0.211 HD
ENDBRANCH   4  11
BRANCH   5  13
ATOM     13  O   UNL     1     -35.873  18.806  -0.556  0.00  0.00    -0.379 OA
ATOM     14  H   UNL     1     -36.474  19.062  -1.273  0.00  0.00    +0.211 HD
ENDBRANCH   5  13
BRANCH   2  15
ATOM     15  C   UNL     1     -36.185  22.372   3.813  0.00  0.00    +0.128 C 
BRANCH  15  17
ATOM     16  O   UNL     1     -38.528  23.997   3.508  0.00  0.00    -0.272 OA
ATOM     17  N   UNL     1     -36.222  23.809   3.658  0.00  0.00    -0.299 N 
ATOM     18  C   UNL     1     -37.410  24.509   3.517  0.00  0.00    +0.253 C 
ATOM     19  H   UNL     1     -35.373  24.307   3.652  0.00  0.00    +0.150 HD
BRANCH  18  22
ATOM     20 CL   UNL     1     -35.606  26.389   4.061  0.00  0.00    -0.087 Cl
ATOM     21 CL   UNL     1     -37.255  26.398   1.649  0.00  0.00    -0.087 Cl
ATOM     22  C   UNL     1     -37.191  25.997   3.373  0.00  0.00    +0.234 C 
ENDBRANCH  18  22
ENDBRANCH  15  17
BRANCH  15  23
ATOM     23  C   UNL     1     -35.170  21.944   4.888  0.00  0.00    +0.131 C 
ATOM     24  C   UNL     1     -35.058  22.952   6.026  0.00  0.00    +0.034 C 
BRANCH  23  25
ATOM     25  O   UNL     1     -35.521  20.683   5.453  0.00  0.00    -0.383 OA
ATOM     26  H   UNL     1     -35.736  20.797   6.391  0.00  0.00    +0.210 HD
ENDBRANCH  23  25
ENDBRANCH  15  23
ENDBRANCH   2  15
TORSDOF 9
ENDMDL
MODEL 6
REMARK VINA RESULT:      -5.2      1.888      2.157
REMARK  Name = 196930
REMARK  9 active torsions:
REMARK  status: ('A' for Active; 'I' for Inactive)
REMARK    1  A    between atoms: C_2  and  C_15
REMARK    2  A    between atoms: C_3  and  O_9
REMARK    3  A    between atoms: C_4  and  O_11
REMARK    4  A    between atoms: C_5  and  O_13
REMARK    5  A    between atoms: C_6  and  S_7
REMARK    6  A    between atoms: C_15  and  N_17
REMARK    7  A    between atoms: C_15  and  C_23
REMARK    8  A    between atoms: C_18  and  C_22
REMARK    9  A    between atoms: C_23  and  O_25
REMARK                            x       y       z     vdW  Elec       q    Type
REMARK                         _______ _______ _______ _____ _____    ______ ____
ROOT
ATOM      1  O   UNL     1     -36.440  25.267   2.562  0.00  0.00    -0.341 OA
ATOM      2  C   UNL     1     -35.807  24.080   3.065  0.00  0.00    +0.166 C 
ATOM      3  C   UNL     1     -35.345  24.273   4.514  0.00  0.00    +0.168 C 
ATOM      4  C   UNL     1     -34.431  25.496   4.622  0.00  0.00    +0.170 C 
ATOM      5  C   UNL     1     -35.120  26.723   4.023  0.00  0.00    +0.177 C 
ATOM      6  C   UNL     1     -35.627  26.448   2.600  0.00  0.00    +0.192 C 
ENDROOT
BRANCH   6   7
ATOM      7  S   UNL     1     -34.311  26.437   1.322  0.00  0.00    -0.109 S 
ATOM      8  C   UNL     1     -34.727  28.006   0.532  0.00  0.00    +0.072 C 
ENDBRANCH   6   7
BRANCH   3   9
ATOM      9  O   UNL     1     -36.494  24.458   5.346  0.00  0.00    -0.379 OA
ATOM     10  H   UNL     1     -36.973  25.253   5.064  0.00  0.00    +0.211 HD
ENDBRANCH   3   9
BRANCH   4  11
ATOM     11  O   UNL     1     -34.124  25.753   5.990  0.00  0.00    -0.379 OA
ATOM     12  H   UNL     1     -34.828  26.291   6.384  0.00  0.00    +0.211 HD
ENDBRANCH   4  11
BRANCH   5  13
ATOM     13  O   UNL     1     -34.250  27.850   4.039  0.00  0.00    -0.379 OA
ATOM     14  H   UNL     1     -34.062  28.126   3.127  0.00  0.00    +0.211 HD
ENDBRANCH   5  13
BRANCH   2  15
ATOM     15  C   UNL     1     -36.814  22.942   2.925  0.00  0.00    +0.128 C 
BRANCH  15  17
ATOM     16  O   UNL     1     -35.335  20.583   3.612  0.00  0.00    -0.272 OA
ATOM     17  N   UNL     1     -36.301  21.950   2.007  0.00  0.00    -0.299 N 
ATOM     18  C   UNL     1     -35.595  20.838   2.437  0.00  0.00    +0.253 C 
ATOM     19  H   UNL     1     -36.460  22.069   1.042  0.00  0.00    +0.150 HD
BRANCH  18  22
ATOM     20 CL   UNL     1     -34.973  20.957  -0.148  0.00  0.00    -0.087 Cl
ATOM     21 CL   UNL     1     -33.635  19.177   1.743  0.00  0.00    -0.087 Cl
ATOM     22  C   UNL     1     -35.166  19.947   1.294  0.00  0.00    +0.234 C 
ENDBRANCH  18  22
ENDBRANCH  15  17
BRANCH  15  23
ATOM     23  C   UNL     1     -38.207  23.441   2.498  0.00  0.00    +0.131 C 
ATOM     24  C   UNL     1     -39.152  22.303   2.129  0.00  0.00    +0.034 C 
BRANCH  23  25
ATOM     25  O   UNL     1     -38.820  24.200   3.538  0.00  0.00    -0.383 OA
ATOM     26  H   UNL     1     -38.925  23.645   4.325  0.00  0.00    +0.210 HD
ENDBRANCH  23  25
ENDBRANCH  15  23
ENDBRANCH   2  15
TORSDOF 9
ENDMDL
MODEL 7
REMARK VINA RESULT:      -5.2      3.252      5.581
REMARK  Name = 196930
REMARK  9 active torsions:
REMARK  status: ('A' for Active; 'I' for Inactive)
REMARK    1  A    between atoms: C_2  and  C_15
REMARK    2  A    between atoms: C_3  and  O_9
REMARK    3  A    between atoms: C_4  and  O_11
REMARK    4  A    between atoms: C_5  and  O_13
REMARK    5  A    between atoms: C_6  and  S_7
REMARK    6  A    between atoms: C_15  and  N_17
REMARK    7  A    between atoms: C_15  and  C_23
REMARK    8  A    between atoms: C_18  and  C_22
REMARK    9  A    between atoms: C_23  and  O_25
REMARK                            x       y       z     vdW  Elec       q    Type
REMARK                         _______ _______ _______ _____ _____    ______ ____
ROOT
ATOM      1  O   UNL     1     -36.999  20.940   0.166  0.00  0.00    -0.341 OA
ATOM      2  C   UNL     1     -36.800  20.828   1.584  0.00  0.00    +0.166 C 
ATOM      3  C   UNL     1     -35.315  20.643   1.918  0.00  0.00    +0.168 C 
ATOM      4  C   UNL     1     -34.747  19.438   1.166  0.00  0.00    +0.170 C 
ATOM      5  C   UNL     1     -35.033  19.568  -0.331  0.00  0.00    +0.177 C 
ATOM      6  C   UNL     1     -36.522  19.827  -0.602  0.00  0.00    +0.192 C 
ENDROOT
BRANCH   6   7
ATOM      7  S   UNL     1     -37.586  18.343  -0.426  0.00  0.00    -0.109 S 
ATOM      8  C   UNL     1     -39.060  19.002  -1.233  0.00  0.00    +0.072 C 
ENDBRANCH   6   7
BRANCH   3   9
ATOM      9  O   UNL     1     -34.604  21.825   1.538  0.00  0.00    -0.379 OA
ATOM     10  H   UNL     1     -35.174  22.381   0.984  0.00  0.00    +0.211 HD
ENDBRANCH   3   9
BRANCH   4  11
ATOM     11  O   UNL     1     -33.338  19.359   1.368  0.00  0.00    -0.379 OA
ATOM     12  H   UNL     1     -32.945  20.238   1.252  0.00  0.00    +0.211 HD
ENDBRANCH   4  11
BRANCH   5  13
ATOM     13  O   UNL     1     -34.585  18.415  -1.035  0.00  0.00    -0.379 OA
ATOM     14  H   UNL     1     -34.320  18.667  -1.933  0.00  0.00    +0.211 HD
ENDBRANCH   5  13
BRANCH   2  15
ATOM     15  C   UNL     1     -37.384  22.087   2.218  0.00  0.00    +0.128 C 
BRANCH  15  17
ATOM     16  O   UNL     1     -36.517  24.565   3.372  0.00  0.00    -0.272 OA
ATOM     17  N   UNL     1     -36.821  22.272   3.537  0.00  0.00    -0.299 N 
ATOM     18  C   UNL     1     -36.431  23.515   4.008  0.00  0.00    +0.253 C 
ATOM     19  H   UNL     1     -36.712  21.486   4.121  0.00  0.00    +0.150 HD
BRANCH  18  22
ATOM     20 CL   UNL     1     -35.239  21.824   5.681  0.00  0.00    -0.087 Cl
ATOM     21 CL   UNL     1     -34.595  24.670   5.549  0.00  0.00    -0.087 Cl
ATOM     22  C   UNL     1     -35.876  23.455   5.412  0.00  0.00    +0.234 C 
ENDBRANCH  18  22
ENDBRANCH  15  17
BRANCH  15  23
ATOM     23  C   UNL     1     -38.923  22.064   2.258  0.00  0.00    +0.131 C 
ATOM     24  C   UNL     1     -39.550  23.193   1.448  0.00  0.00    +0.034 C 
BRANCH  23  25
ATOM     25  O   UNL     1     -39.431  20.830   1.756  0.00  0.00    -0.383 OA
ATOM     26  H   UNL     1     -40.299  20.653   2.151  0.00  0.00    +0.210 HD
ENDBRANCH  23  25
ENDBRANCH  15  23
ENDBRANCH   2  15
TORSDOF 9
ENDMDL
MODEL 8
REMARK VINA RESULT:      -5.1      3.098      5.934
REMARK  Name = 196930
REMARK  9 active torsions:
REMARK  status: ('A' for Active; 'I' for Inactive)
REMARK    1  A    between atoms: C_2  and  C_15
REMARK    2  A    between atoms: C_3  and  O_9
REMARK    3  A    between atoms: C_4  and  O_11
REMARK    4  A    between atoms: C_5  and  O_13
REMARK    5  A    between atoms: C_6  and  S_7
REMARK    6  A    between atoms: C_15  and  N_17
REMARK    7  A    between atoms: C_15  and  C_23
REMARK    8  A    between atoms: C_18  and  C_22
REMARK    9  A    between atoms: C_23  and  O_25
REMARK                            x       y       z     vdW  Elec       q    Type
REMARK                         _______ _______ _______ _____ _____    ______ ____
ROOT
ATOM      1  O   UNL     1     -35.224  21.477   2.973  0.00  0.00    -0.341 OA
ATOM      2  C   UNL     1     -35.770  22.621   2.296  0.00  0.00    +0.166 C 
ATOM      3  C   UNL     1     -37.232  22.382   1.902  0.00  0.00    +0.168 C 
ATOM      4  C   UNL     1     -37.355  21.110   1.062  0.00  0.00    +0.170 C 
ATOM      5  C   UNL     1     -36.711  19.931   1.792  0.00  0.00    +0.177 C 
ATOM      6  C   UNL     1     -35.274  20.253   2.228  0.00  0.00    +0.192 C 
ENDROOT
BRANCH   6   7
ATOM      7  S   UNL     1     -34.048  20.209   0.865  0.00  0.00    -0.109 S 
ATOM      8  C   UNL     1     -33.172  18.714   1.373  0.00  0.00    +0.072 C 
ENDBRANCH   6   7
BRANCH   3   9
ATOM      9  O   UNL     1     -38.016  22.250   3.091  0.00  0.00    -0.379 OA
ATOM     10  H   UNL     1     -38.878  21.864   2.870  0.00  0.00    +0.211 HD
ENDBRANCH   3   9
BRANCH   4  11
ATOM     11  O   UNL     1     -38.729  20.817   0.822  0.00  0.00    -0.379 OA
ATOM     12  H   UNL     1     -39.223  20.878   1.655  0.00  0.00    +0.211 HD
ENDBRANCH   4  11
BRANCH   5  13
ATOM     13  O   UNL     1     -36.742  18.757   0.986  0.00  0.00    -0.379 OA
ATOM     14  H   UNL     1     -35.872  18.624   0.576  0.00  0.00    +0.211 HD
ENDBRANCH   5  13
BRANCH   2  15
ATOM     15  C   UNL     1     -35.609  23.814   3.233  0.00  0.00    +0.128 C 
BRANCH  15  17
ATOM     16  O   UNL     1     -36.183  26.390   2.112  0.00  0.00    -0.272 OA
ATOM     17  N   UNL     1     -34.652  24.743   2.676  0.00  0.00    -0.299 N 
ATOM     18  C   UNL     1     -35.028  25.971   2.156  0.00  0.00    +0.253 C 
ATOM     19  H   UNL     1     -33.699  24.494   2.668  0.00  0.00    +0.150 HD
BRANCH  18  22
ATOM     20 CL   UNL     1     -33.452  28.005   2.837  0.00  0.00    -0.087 Cl
ATOM     21 CL   UNL     1     -32.497  25.648   1.400  0.00  0.00    -0.087 Cl
ATOM     22  C   UNL     1     -33.851  26.765   1.637  0.00  0.00    +0.234 C 
ENDBRANCH  18  22
ENDBRANCH  15  17
BRANCH  15  23
ATOM     23  C   UNL     1     -35.222  23.390   4.662  0.00  0.00    +0.131 C 
ATOM     24  C   UNL     1     -34.873  24.576   5.554  0.00  0.00    +0.034 C 
BRANCH  23  25
ATOM     25  O   UNL     1     -36.279  22.667   5.287  0.00  0.00    -0.383 OA
ATOM     26  H   UNL     1     -36.935  22.412   4.621  0.00  0.00    +0.210 HD
ENDBRANCH  23  25
ENDBRANCH  15  23
ENDBRANCH   2  15
TORSDOF 9
ENDMDL
MODEL 9
REMARK VINA RESULT:      -5.1      4.106      5.326
REMARK  Name = 196930
REMARK  9 active torsions:
REMARK  status: ('A' for Active; 'I' for Inactive)
REMARK    1  A    between atoms: C_2  and  C_15
REMARK    2  A    between atoms: C_3  and  O_9
REMARK    3  A    between atoms: C_4  and  O_11
REMARK    4  A    between atoms: C_5  and  O_13
REMARK    5  A    between atoms: C_6  and  S_7
REMARK    6  A    between atoms: C_15  and  N_17
REMARK    7  A    between atoms: C_15  and  C_23
REMARK    8  A    between atoms: C_18  and  C_22
REMARK    9  A    between atoms: C_23  and  O_25
REMARK                            x       y       z     vdW  Elec       q    Type
REMARK                         _______ _______ _______ _____ _____    ______ ____
ROOT
ATOM      1  O   UNL     1     -34.804  28.688   3.332  0.00  0.00    -0.341 OA
ATOM      2  C   UNL     1     -34.370  27.325   3.204  0.00  0.00    +0.166 C 
ATOM      3  C   UNL     1     -33.194  27.030   4.142  0.00  0.00    +0.168 C 
ATOM      4  C   UNL     1     -32.053  28.018   3.890  0.00  0.00    +0.170 C 
ATOM      5  C   UNL     1     -32.569  29.455   3.977  0.00  0.00    +0.177 C 
ATOM      6  C   UNL     1     -33.792  29.671   3.074  0.00  0.00    +0.192 C 
ENDROOT
BRANCH   6   7
ATOM      7  S   UNL     1     -33.392  29.817   1.290  0.00  0.00    -0.109 S 
ATOM      8  C   UNL     1     -35.085  29.875   0.664  0.00  0.00    +0.072 C 
ENDBRANCH   6   7
BRANCH   3   9
ATOM      9  O   UNL     1     -33.641  27.149   5.496  0.00  0.00    -0.379 OA
ATOM     10  H   UNL     1     -33.306  26.401   6.014  0.00  0.00    +0.211 HD
ENDBRANCH   3   9
BRANCH   4  11
ATOM     11  O   UNL     1     -31.025  27.831   4.859  0.00  0.00    -0.379 OA
ATOM     12  H   UNL     1     -30.993  26.897   5.120  0.00  0.00    +0.211 HD
ENDBRANCH   4  11
BRANCH   5  13
ATOM     13  O   UNL     1     -31.538  30.384   3.661  0.00  0.00    -0.379 OA
ATOM     14  H   UNL     1     -30.765  30.211   4.220  0.00  0.00    +0.211 HD
ENDBRANCH   5  13
BRANCH   2  15
ATOM     15  C   UNL     1     -35.579  26.442   3.496  0.00  0.00    +0.128 C 
BRANCH  15  17
ATOM     16  O   UNL     1     -36.538  24.732   5.589  0.00  0.00    -0.272 OA
ATOM     17  N   UNL     1     -35.139  25.093   3.776  0.00  0.00    -0.299 N 
ATOM     18  C   UNL     1     -35.666  24.343   4.815  0.00  0.00    +0.253 C 
ATOM     19  H   UNL     1     -34.441  24.694   3.207  0.00  0.00    +0.150 HD
BRANCH  18  22
ATOM     20 CL   UNL     1     -35.544  22.242   6.444  0.00  0.00    -0.087 Cl
ATOM     21 CL   UNL     1     -35.638  22.011   3.533  0.00  0.00    -0.087 Cl
ATOM     22  C   UNL     1     -35.050  22.966   4.904  0.00  0.00    +0.234 C 
ENDBRANCH  18  22
ENDBRANCH  15  17
BRANCH  15  23
ATOM     23  C   UNL     1     -36.619  26.474   2.360  0.00  0.00    +0.131 C 
ATOM     24  C   UNL     1     -36.583  25.220   1.494  0.00  0.00    +0.034 C 
BRANCH  23  25
ATOM     25  O   UNL     1     -37.940  26.612   2.878  0.00  0.00    -0.383 OA
ATOM     26  H   UNL     1     -37.950  26.352   3.811  0.00  0.00    +0.210 HD
ENDBRANCH  23  25
ENDBRANCH  15  23
ENDBRANCH   2  15
TORSDOF 9
ENDMDL
