MODEL 1
REMARK VINA RESULT:      -7.4      0.000      0.000
REMARK  Name = 194745
REMARK  10 active torsions:
REMARK  status: ('A' for Active; 'I' for Inactive)
REMARK    1  A    between atoms: C_4  and  C_8
REMARK    2  A    between atoms: C_5  and  C_23
REMARK    3  A    between atoms: N_7  and  C_13
REMARK    4  A    between atoms: C_13  and  C_14
REMARK    5  A    between atoms: C_14  and  C_15
REMARK    6  A    between atoms: C_20  and  O_21
REMARK    7  A    between atoms: C_23  and  N_25
REMARK    8  A    between atoms: C_23  and  C_35
REMARK    9  A    between atoms: C_26  and  C_30
REMARK   10  A    between atoms: C_35  and  C_38
REMARK                            x       y       z     vdW  Elec       q    Type
REMARK                         _______ _______ _______ _____ _____    ______ ____
ROOT
ATOM      1  O   UNL     1     -32.228  24.869   0.579  0.00  0.00    -0.277 OA
ATOM      2  O   UNL     1     -31.721  26.333   2.926  0.00  0.00    -0.273 OA
ATOM      3  N   UNL     1     -33.757  25.415   2.261  0.00  0.00    -0.256 N 
ATOM      4  C   UNL     1     -33.359  24.838   1.056  0.00  0.00    +0.209 C 
ATOM      5  C   UNL     1     -32.916  26.125   3.120  0.00  0.00    +0.246 C 
ATOM      6  H   UNL     1     -34.700  25.314   2.524  0.00  0.00    +0.157 HD
ENDROOT
BRANCH   4   8
ATOM      7  N   UNL     1     -35.282  23.471   1.390  0.00  0.00    +0.394 N 
ATOM      8  C   UNL     1     -34.495  24.158   0.361  0.00  0.00    +0.021 C 
ATOM      9  C   UNL     1     -35.446  25.173  -0.276  0.00  0.00    -0.014 C 
ATOM     10  C   UNL     1     -36.683  23.570   0.980  0.00  0.00    -0.077 C 
ATOM     11  C   UNL     1     -36.759  24.998   0.474  0.00  0.00    -0.024 C 
ATOM     12  H   UNL     1     -35.134  23.915   2.297  0.00  0.00    -0.079 HD
BRANCH   7  13
ATOM     13  C   UNL     1     -34.867  22.090   1.600  0.00  0.00    -0.072 C 
BRANCH  13  14
ATOM     14  C   UNL     1     -34.432  21.443   0.284  0.00  0.00    +0.004 C 
BRANCH  14  15
ATOM     15  C   UNL     1     -33.414  20.355   0.512  0.00  0.00    -0.024 C 
ATOM     16  C   UNL     1     -33.747  19.236   1.276  0.00  0.00    -0.001 C 
ATOM     17  C   UNL     1     -32.139  20.465  -0.044  0.00  0.00    -0.001 C 
ATOM     18  C   UNL     1     -32.804  18.229   1.486  0.00  0.00    +0.036 C 
ATOM     19  C   UNL     1     -31.197  19.459   0.167  0.00  0.00    +0.036 C 
ATOM     20  C   UNL     1     -31.530  18.340   0.931  0.00  0.00    +0.134 C 
BRANCH  20  21
ATOM     21  O   UNL     1     -30.611  17.357   1.135  0.00  0.00    -0.506 OA
ATOM     22  H   UNL     1     -30.326  16.825   0.419  0.00  0.00    +0.292 HD
ENDBRANCH  20  21
ENDBRANCH  14  15
ENDBRANCH  13  14
ENDBRANCH   7  13
ENDBRANCH   4   8
BRANCH   5  23
ATOM     23  C   UNL     1     -33.642  26.574   4.385  0.00  0.00    +0.151 C 
BRANCH  23  25
ATOM     24  O   UNL     1     -32.156  27.078   6.828  0.00  0.00    -0.273 OA
ATOM     25  N   UNL     1     -33.048  27.816   4.808  0.00  0.00    -0.297 N 
ATOM     26  C   UNL     1     -32.353  27.963   5.998  0.00  0.00    +0.241 C 
ATOM     27  H   UNL     1     -33.140  28.602   4.221  0.00  0.00    +0.150 HD
BRANCH  26  30
ATOM     28  O   UNL     1     -28.522  29.182   7.446  0.00  0.00    -0.275 OA
ATOM     29  N   UNL     1     -30.853  29.281   7.240  0.00  0.00    -0.298 N 
ATOM     30  C   UNL     1     -31.819  29.347   6.180  0.00  0.00    +0.149 C 
ATOM     31  C   UNL     1     -31.015  29.829   4.988  0.00  0.00    +0.039 C 
ATOM     32  C   UNL     1     -29.592  29.348   5.272  0.00  0.00    +0.087 C 
ATOM     33  C   UNL     1     -29.541  29.272   6.778  0.00  0.00    +0.223 C 
ATOM     34  H   UNL     1     -31.093  29.247   8.194  0.00  0.00    +0.150 HD
ENDBRANCH  26  30
ENDBRANCH  23  25
BRANCH  23  35
ATOM     35  C   UNL     1     -35.143  26.716   4.119  0.00  0.00    +0.059 C 
BRANCH  35  38
ATOM     36  N   UNL     1     -35.149  24.800   5.666  0.00  0.00    -0.246 NA
ATOM     37  N   UNL     1     -36.764  23.759   4.427  0.00  0.00    -0.225 NA
ATOM     38  C   UNL     1     -35.984  25.849   5.046  0.00  0.00    +0.148 C 
ATOM     39  C   UNL     1     -36.967  25.020   4.286  0.00  0.00    +0.098 C 
ATOM     40  C   UNL     1     -35.675  23.686   5.257  0.00  0.00    +0.194 C 
ENDBRANCH  35  38
ENDBRANCH  23  35
ENDBRANCH   5  23
TORSDOF 10
ENDMDL
MODEL 2
REMARK VINA RESULT:      -7.3      3.539      6.307
REMARK  Name = 194745
REMARK  10 active torsions:
REMARK  status: ('A' for Active; 'I' for Inactive)
REMARK    1  A    between atoms: C_4  and  C_8
REMARK    2  A    between atoms: C_5  and  C_23
REMARK    3  A    between atoms: N_7  and  C_13
REMARK    4  A    between atoms: C_13  and  C_14
REMARK    5  A    between atoms: C_14  and  C_15
REMARK    6  A    between atoms: C_20  and  O_21
REMARK    7  A    between atoms: C_23  and  N_25
REMARK    8  A    between atoms: C_23  and  C_35
REMARK    9  A    between atoms: C_26  and  C_30
REMARK   10  A    between atoms: C_35  and  C_38
REMARK                            x       y       z     vdW  Elec       q    Type
REMARK                         _______ _______ _______ _____ _____    ______ ____
ROOT
ATOM      1  O   UNL     1     -35.305  20.575   3.799  0.00  0.00    -0.277 OA
ATOM      2  O   UNL     1     -36.017  22.790   5.378  0.00  0.00    -0.273 OA
ATOM      3  N   UNL     1     -35.975  22.685   3.050  0.00  0.00    -0.256 N 
ATOM      4  C   UNL     1     -35.554  21.366   2.894  0.00  0.00    +0.209 C 
ATOM      5  C   UNL     1     -36.181  23.316   4.279  0.00  0.00    +0.246 C 
ATOM      6  H   UNL     1     -36.139  23.211   2.234  0.00  0.00    +0.157 HD
ENDROOT
BRANCH   4   8
ATOM      7  N   UNL     1     -35.247  19.535   1.400  0.00  0.00    +0.394 N 
ATOM      8  C   UNL     1     -35.415  20.991   1.453  0.00  0.00    +0.021 C 
ATOM      9  C   UNL     1     -36.698  21.286   0.675  0.00  0.00    -0.014 C 
ATOM     10  C   UNL     1     -35.942  19.078   0.197  0.00  0.00    -0.077 C 
ATOM     11  C   UNL     1     -37.202  19.922   0.225  0.00  0.00    -0.024 C 
ATOM     12  H   UNL     1     -35.644  19.108   2.237  0.00  0.00    -0.079 HD
BRANCH   7  13
ATOM     13  C   UNL     1     -33.850  19.120   1.419  0.00  0.00    -0.072 C 
BRANCH  13  14
ATOM     14  C   UNL     1     -32.990  20.056   0.569  0.00  0.00    +0.004 C 
BRANCH  14  15
ATOM     15  C   UNL     1     -31.606  19.497   0.358  0.00  0.00    -0.024 C 
ATOM     16  C   UNL     1     -30.675  20.205  -0.402  0.00  0.00    -0.001 C 
ATOM     17  C   UNL     1     -31.255  18.271   0.924  0.00  0.00    -0.001 C 
ATOM     18  C   UNL     1     -29.394  19.687  -0.597  0.00  0.00    +0.036 C 
ATOM     19  C   UNL     1     -29.975  17.753   0.729  0.00  0.00    +0.036 C 
ATOM     20  C   UNL     1     -29.044  18.461  -0.031  0.00  0.00    +0.134 C 
BRANCH  20  21
ATOM     21  O   UNL     1     -27.795  17.957  -0.220  0.00  0.00    -0.506 OA
ATOM     22  H   UNL     1     -27.299  18.204  -0.976  0.00  0.00    +0.292 HD
ENDBRANCH  20  21
ENDBRANCH  14  15
ENDBRANCH  13  14
ENDBRANCH   7  13
ENDBRANCH   4   8
BRANCH   5  23
ATOM     23  C   UNL     1     -36.701  24.740   4.109  0.00  0.00    +0.151 C 
BRANCH  23  25
ATOM     24  O   UNL     1     -38.264  24.588   1.667  0.00  0.00    -0.273 OA
ATOM     25  N   UNL     1     -38.134  24.666   3.990  0.00  0.00    -0.297 N 
ATOM     26  C   UNL     1     -38.796  24.596   2.774  0.00  0.00    +0.241 C 
ATOM     27  H   UNL     1     -38.672  24.665   4.815  0.00  0.00    +0.150 HD
BRANCH  26  30
ATOM     28  O   UNL     1     -41.542  27.617   4.037  0.00  0.00    -0.275 OA
ATOM     29  N   UNL     1     -40.645  25.456   3.947  0.00  0.00    -0.298 N 
ATOM     30  C   UNL     1     -40.279  24.503   2.936  0.00  0.00    +0.149 C 
ATOM     31  C   UNL     1     -41.035  24.973   1.708  0.00  0.00    +0.039 C 
ATOM     32  C   UNL     1     -41.204  26.477   1.920  0.00  0.00    +0.087 C 
ATOM     33  C   UNL     1     -41.182  26.626   3.421  0.00  0.00    +0.223 C 
ATOM     34  H   UNL     1     -40.528  25.297   4.911  0.00  0.00    +0.150 HD
ENDBRANCH  26  30
ENDBRANCH  23  25
BRANCH  23  35
ATOM     35  C   UNL     1     -36.266  25.613   5.288  0.00  0.00    +0.059 C 
BRANCH  35  38
ATOM     36  N   UNL     1     -35.024  26.700   3.460  0.00  0.00    -0.246 NA
ATOM     37  N   UNL     1     -33.061  25.796   4.209  0.00  0.00    -0.225 NA
ATOM     38  C   UNL     1     -35.127  26.556   4.926  0.00  0.00    +0.148 C 
ATOM     39  C   UNL     1     -33.795  25.965   5.251  0.00  0.00    +0.098 C 
ATOM     40  C   UNL     1     -33.840  26.251   3.175  0.00  0.00    +0.194 C 
ENDBRANCH  35  38
ENDBRANCH  23  35
ENDBRANCH   5  23
TORSDOF 10
ENDMDL
MODEL 3
REMARK VINA RESULT:      -7.1      4.111      6.794
REMARK  Name = 194745
REMARK  10 active torsions:
REMARK  status: ('A' for Active; 'I' for Inactive)
REMARK    1  A    between atoms: C_4  and  C_8
REMARK    2  A    between atoms: C_5  and  C_23
REMARK    3  A    between atoms: N_7  and  C_13
REMARK    4  A    between atoms: C_13  and  C_14
REMARK    5  A    between atoms: C_14  and  C_15
REMARK    6  A    between atoms: C_20  and  O_21
REMARK    7  A    between atoms: C_23  and  N_25
REMARK    8  A    between atoms: C_23  and  C_35
REMARK    9  A    between atoms: C_26  and  C_30
REMARK   10  A    between atoms: C_35  and  C_38
REMARK                            x       y       z     vdW  Elec       q    Type
REMARK                         _______ _______ _______ _____ _____    ______ ____
ROOT
ATOM      1  O   UNL     1     -34.811  19.881   2.948  0.00  0.00    -0.277 OA
ATOM      2  O   UNL     1     -35.253  21.791   4.963  0.00  0.00    -0.273 OA
ATOM      3  N   UNL     1     -35.551  22.081   2.670  0.00  0.00    -0.256 N 
ATOM      4  C   UNL     1     -35.177  20.811   2.235  0.00  0.00    +0.209 C 
ATOM      5  C   UNL     1     -35.566  22.493   4.005  0.00  0.00    +0.246 C 
ATOM      6  H   UNL     1     -35.824  22.735   1.987  0.00  0.00    +0.157 HD
ENDROOT
BRANCH   4   8
ATOM      7  N   UNL     1     -36.431  21.446   0.311  0.00  0.00    +0.394 N 
ATOM      8  C   UNL     1     -35.254  20.686   0.747  0.00  0.00    +0.021 C 
ATOM      9  C   UNL     1     -34.058  21.354   0.069  0.00  0.00    -0.014 C 
ATOM     10  C   UNL     1     -36.082  22.053  -0.974  0.00  0.00    -0.077 C 
ATOM     11  C   UNL     1     -34.655  22.505  -0.729  0.00  0.00    -0.024 C 
ATOM     12  H   UNL     1     -36.661  22.160   1.003  0.00  0.00    -0.079 HD
BRANCH   7  13
ATOM     13  C   UNL     1     -37.637  20.634   0.225  0.00  0.00    -0.072 C 
BRANCH  13  14
ATOM     14  C   UNL     1     -37.704  19.891  -1.110  0.00  0.00    +0.004 C 
BRANCH  14  15
ATOM     15  C   UNL     1     -38.086  18.445  -0.920  0.00  0.00    -0.024 C 
ATOM     16  C   UNL     1     -37.268  17.598  -0.171  0.00  0.00    -0.001 C 
ATOM     17  C   UNL     1     -39.259  17.953  -1.494  0.00  0.00    -0.001 C 
ATOM     18  C   UNL     1     -37.623  16.260   0.004  0.00  0.00    +0.036 C 
ATOM     19  C   UNL     1     -39.612  16.615  -1.319  0.00  0.00    +0.036 C 
ATOM     20  C   UNL     1     -38.795  15.769  -0.570  0.00  0.00    +0.134 C 
BRANCH  20  21
ATOM     21  O   UNL     1     -39.141  14.464  -0.398  0.00  0.00    -0.506 OA
ATOM     22  H   UNL     1     -38.779  13.973   0.313  0.00  0.00    +0.292 HD
ENDBRANCH  20  21
ENDBRANCH  14  15
ENDBRANCH  13  14
ENDBRANCH   7  13
ENDBRANCH   4   8
BRANCH   5  23
ATOM     23  C   UNL     1     -36.083  23.920   4.154  0.00  0.00    +0.151 C 
BRANCH  23  25
ATOM     24  O   UNL     1     -37.517  24.081   1.634  0.00  0.00    -0.273 OA
ATOM     25  N   UNL     1     -37.509  23.887   3.954  0.00  0.00    -0.297 N 
ATOM     26  C   UNL     1     -38.107  23.971   2.706  0.00  0.00    +0.241 C 
ATOM     27  H   UNL     1     -38.090  23.800   4.745  0.00  0.00    +0.150 HD
BRANCH  26  30
ATOM     28  O   UNL     1     -40.917  27.062   3.604  0.00  0.00    -0.275 OA
ATOM     29  N   UNL     1     -40.023  24.900   3.705  0.00  0.00    -0.298 N 
ATOM     30  C   UNL     1     -39.598  23.887   2.781  0.00  0.00    +0.149 C 
ATOM     31  C   UNL     1     -40.274  24.278   1.480  0.00  0.00    +0.039 C 
ATOM     32  C   UNL     1     -40.451  25.793   1.587  0.00  0.00    +0.087 C 
ATOM     33  C   UNL     1     -40.523  26.035   3.074  0.00  0.00    +0.223 C 
ATOM     34  H   UNL     1     -39.967  24.802   4.683  0.00  0.00    +0.150 HD
ENDBRANCH  26  30
ENDBRANCH  23  25
BRANCH  23  35
ATOM     35  C   UNL     1     -35.708  24.485   5.526  0.00  0.00    +0.059 C 
BRANCH  35  38
ATOM     36  N   UNL     1     -35.385  26.454   4.083  0.00  0.00    -0.246 NA
ATOM     37  N   UNL     1     -33.311  26.813   4.976  0.00  0.00    -0.225 NA
ATOM     38  C   UNL     1     -35.410  25.978   5.480  0.00  0.00    +0.148 C 
ATOM     39  C   UNL     1     -34.011  26.276   5.910  0.00  0.00    +0.098 C 
ATOM     40  C   UNL     1     -34.176  26.897   3.915  0.00  0.00    +0.194 C 
ENDBRANCH  35  38
ENDBRANCH  23  35
ENDBRANCH   5  23
TORSDOF 10
ENDMDL
MODEL 4
REMARK VINA RESULT:      -7.0      2.055      3.434
REMARK  Name = 194745
REMARK  10 active torsions:
REMARK  status: ('A' for Active; 'I' for Inactive)
REMARK    1  A    between atoms: C_4  and  C_8
REMARK    2  A    between atoms: C_5  and  C_23
REMARK    3  A    between atoms: N_7  and  C_13
REMARK    4  A    between atoms: C_13  and  C_14
REMARK    5  A    between atoms: C_14  and  C_15
REMARK    6  A    between atoms: C_20  and  O_21
REMARK    7  A    between atoms: C_23  and  N_25
REMARK    8  A    between atoms: C_23  and  C_35
REMARK    9  A    between atoms: C_26  and  C_30
REMARK   10  A    between atoms: C_35  and  C_38
REMARK                            x       y       z     vdW  Elec       q    Type
REMARK                         _______ _______ _______ _____ _____    ______ ____
ROOT
ATOM      1  O   UNL     1     -37.046  24.422   4.691  0.00  0.00    -0.277 OA
ATOM      2  O   UNL     1     -35.254  26.459   5.430  0.00  0.00    -0.273 OA
ATOM      3  N   UNL     1     -35.265  25.262   3.430  0.00  0.00    -0.256 N 
ATOM      4  C   UNL     1     -36.358  24.432   3.674  0.00  0.00    +0.209 C 
ATOM      5  C   UNL     1     -34.781  26.223   4.321  0.00  0.00    +0.246 C 
ATOM      6  H   UNL     1     -34.801  25.164   2.569  0.00  0.00    +0.157 HD
ENDROOT
BRANCH   4   8
ATOM      7  N   UNL     1     -36.924  22.188   3.107  0.00  0.00    +0.394 N 
ATOM      8  C   UNL     1     -36.617  23.502   2.532  0.00  0.00    +0.021 C 
ATOM      9  C   UNL     1     -37.867  23.913   1.752  0.00  0.00    -0.014 C 
ATOM     10  C   UNL     1     -37.942  21.584   2.246  0.00  0.00    -0.077 C 
ATOM     11  C   UNL     1     -38.846  22.766   1.955  0.00  0.00    -0.024 C 
ATOM     12  H   UNL     1     -37.270  22.297   4.060  0.00  0.00    -0.079 HD
BRANCH   7  13
ATOM     13  C   UNL     1     -35.750  21.338   3.249  0.00  0.00    -0.072 C 
BRANCH  13  14
ATOM     14  C   UNL     1     -35.727  20.251   2.174  0.00  0.00    +0.004 C 
BRANCH  14  15
ATOM     15  C   UNL     1     -34.414  20.232   1.433  0.00  0.00    -0.024 C 
ATOM     16  C   UNL     1     -34.030  21.331   0.664  0.00  0.00    -0.001 C 
ATOM     17  C   UNL     1     -33.580  19.117   1.519  0.00  0.00    -0.001 C 
ATOM     18  C   UNL     1     -32.815  21.313  -0.021  0.00  0.00    +0.036 C 
ATOM     19  C   UNL     1     -32.366  19.099   0.834  0.00  0.00    +0.036 C 
ATOM     20  C   UNL     1     -31.982  20.198   0.065  0.00  0.00    +0.134 C 
BRANCH  20  21
ATOM     21  O   UNL     1     -30.797  20.181  -0.603  0.00  0.00    -0.506 OA
ATOM     22  H   UNL     1     -30.027  20.533  -0.201  0.00  0.00    +0.292 HD
ENDBRANCH  20  21
ENDBRANCH  14  15
ENDBRANCH  13  14
ENDBRANCH   7  13
ENDBRANCH   4   8
BRANCH   5  23
ATOM     23  C   UNL     1     -33.613  27.008   3.732  0.00  0.00    +0.151 C 
BRANCH  23  25
ATOM     24  O   UNL     1     -32.196  29.542   3.677  0.00  0.00    -0.273 OA
ATOM     25  N   UNL     1     -32.930  27.653   4.824  0.00  0.00    -0.297 N 
ATOM     26  C   UNL     1     -32.277  28.870   4.703  0.00  0.00    +0.241 C 
ATOM     27  H   UNL     1     -32.926  27.206   5.702  0.00  0.00    +0.150 HD
BRANCH  26  30
ATOM     28  O   UNL     1     -28.870  27.310   6.757  0.00  0.00    -0.275 OA
ATOM     29  N   UNL     1     -31.038  28.177   6.578  0.00  0.00    -0.298 N 
ATOM     30  C   UNL     1     -31.673  29.324   5.993  0.00  0.00    +0.149 C 
ATOM     31  C   UNL     1     -30.534  30.306   5.795  0.00  0.00    +0.039 C 
ATOM     32  C   UNL     1     -29.296  29.423   5.639  0.00  0.00    +0.087 C 
ATOM     33  C   UNL     1     -29.658  28.173   6.402  0.00  0.00    +0.223 C 
ATOM     34  H   UNL     1     -31.527  27.469   7.055  0.00  0.00    +0.150 HD
ENDBRANCH  26  30
ENDBRANCH  23  25
BRANCH  23  35
ATOM     35  C   UNL     1     -32.687  26.080   2.943  0.00  0.00    +0.059 C 
BRANCH  35  38
ATOM     36  N   UNL     1     -33.316  25.334   0.682  0.00  0.00    -0.246 NA
ATOM     37  N   UNL     1     -31.138  25.453  -0.002  0.00  0.00    -0.225 NA
ATOM     38  C   UNL     1     -32.661  26.407   1.457  0.00  0.00    +0.148 C 
ATOM     39  C   UNL     1     -31.275  26.355   0.903  0.00  0.00    +0.098 C 
ATOM     40  C   UNL     1     -32.380  24.879  -0.093  0.00  0.00    +0.194 C 
ENDBRANCH  35  38
ENDBRANCH  23  35
ENDBRANCH   5  23
TORSDOF 10
ENDMDL
MODEL 5
REMARK VINA RESULT:      -7.0      1.705      4.615
REMARK  Name = 194745
REMARK  10 active torsions:
REMARK  status: ('A' for Active; 'I' for Inactive)
REMARK    1  A    between atoms: C_4  and  C_8
REMARK    2  A    between atoms: C_5  and  C_23
REMARK    3  A    between atoms: N_7  and  C_13
REMARK    4  A    between atoms: C_13  and  C_14
REMARK    5  A    between atoms: C_14  and  C_15
REMARK    6  A    between atoms: C_20  and  O_21
REMARK    7  A    between atoms: C_23  and  N_25
REMARK    8  A    between atoms: C_23  and  C_35
REMARK    9  A    between atoms: C_26  and  C_30
REMARK   10  A    between atoms: C_35  and  C_38
REMARK                            x       y       z     vdW  Elec       q    Type
REMARK                         _______ _______ _______ _____ _____    ______ ____
ROOT
ATOM      1  O   UNL     1     -31.773  24.368   0.260  0.00  0.00    -0.277 OA
ATOM      2  O   UNL     1     -30.780  26.037   2.294  0.00  0.00    -0.273 OA
ATOM      3  N   UNL     1     -32.948  26.010   1.439  0.00  0.00    -0.256 N 
ATOM      4  C   UNL     1     -32.801  24.998   0.492  0.00  0.00    +0.209 C 
ATOM      5  C   UNL     1     -31.930  26.467   2.280  0.00  0.00    +0.246 C 
ATOM      6  H   UNL     1     -33.832  26.434   1.520  0.00  0.00    +0.157 HD
ENDROOT
BRANCH   4   8
ATOM      7  N   UNL     1     -34.740  23.616   0.389  0.00  0.00    +0.394 N 
ATOM      8  C   UNL     1     -34.070  24.749  -0.259  0.00  0.00    +0.021 C 
ATOM      9  C   UNL     1     -35.035  25.928  -0.128  0.00  0.00    -0.014 C 
ATOM     10  C   UNL     1     -36.176  23.885   0.318  0.00  0.00    -0.077 C 
ATOM     11  C   UNL     1     -36.232  25.369   0.628  0.00  0.00    -0.024 C 
ATOM     12  H   UNL     1     -34.430  23.536   1.357  0.00  0.00    -0.079 HD
BRANCH   7  13
ATOM     13  C   UNL     1     -34.391  22.331  -0.203  0.00  0.00    -0.072 C 
BRANCH  13  14
ATOM     14  C   UNL     1     -34.588  21.194   0.800  0.00  0.00    +0.004 C 
BRANCH  14  15
ATOM     15  C   UNL     1     -33.438  20.221   0.768  0.00  0.00    -0.024 C 
ATOM     16  C   UNL     1     -32.285  20.526   0.044  0.00  0.00    -0.001 C 
ATOM     17  C   UNL     1     -33.525  19.015   1.464  0.00  0.00    -0.001 C 
ATOM     18  C   UNL     1     -31.220  19.625   0.015  0.00  0.00    +0.036 C 
ATOM     19  C   UNL     1     -32.461  18.114   1.434  0.00  0.00    +0.036 C 
ATOM     20  C   UNL     1     -31.308  18.419   0.710  0.00  0.00    +0.134 C 
BRANCH  20  21
ATOM     21  O   UNL     1     -30.269  17.541   0.682  0.00  0.00    -0.506 OA
ATOM     22  H   UNL     1     -30.341  16.745   0.192  0.00  0.00    +0.292 HD
ENDBRANCH  20  21
ENDBRANCH  14  15
ENDBRANCH  13  14
ENDBRANCH   7  13
ENDBRANCH   4   8
BRANCH   5  23
ATOM     23  C   UNL     1     -32.428  27.539   3.245  0.00  0.00    +0.151 C 
BRANCH  23  25
ATOM     24  O   UNL     1     -35.331  27.525   3.180  0.00  0.00    -0.273 OA
ATOM     25  N   UNL     1     -33.321  26.902   4.178  0.00  0.00    -0.297 N 
ATOM     26  C   UNL     1     -34.702  26.949   4.066  0.00  0.00    +0.241 C 
ATOM     27  H   UNL     1     -32.931  26.406   4.934  0.00  0.00    +0.150 HD
BRANCH  26  30
ATOM     28  O   UNL     1     -38.020  24.273   3.761  0.00  0.00    -0.275 OA
ATOM     29  N   UNL     1     -36.746  25.987   4.722  0.00  0.00    -0.298 N 
ATOM     30  C   UNL     1     -35.389  26.184   5.150  0.00  0.00    +0.149 C 
ATOM     31  C   UNL     1     -34.852  24.774   5.306  0.00  0.00    +0.039 C 
ATOM     32  C   UNL     1     -35.681  23.943   4.328  0.00  0.00    +0.087 C 
ATOM     33  C   UNL     1     -36.978  24.707   4.228  0.00  0.00    +0.223 C 
ATOM     34  H   UNL     1     -37.439  26.684   4.772  0.00  0.00    +0.150 HD
ENDBRANCH  26  30
ENDBRANCH  23  25
BRANCH  23  35
ATOM     35  C   UNL     1     -31.249  28.215   3.949  0.00  0.00    +0.059 C 
BRANCH  35  38
ATOM     36  N   UNL     1     -32.217  29.091   6.036  0.00  0.00    -0.246 NA
ATOM     37  N   UNL     1     -30.129  29.451   6.896  0.00  0.00    -0.225 NA
ATOM     38  C   UNL     1     -31.314  28.073   5.463  0.00  0.00    +0.148 C 
ATOM     39  C   UNL     1     -30.019  28.440   6.109  0.00  0.00    +0.098 C 
ATOM     40  C   UNL     1     -31.453  29.796   6.815  0.00  0.00    +0.194 C 
ENDBRANCH  35  38
ENDBRANCH  23  35
ENDBRANCH   5  23
TORSDOF 10
ENDMDL
MODEL 6
REMARK VINA RESULT:      -6.8      2.031      4.676
REMARK  Name = 194745
REMARK  10 active torsions:
REMARK  status: ('A' for Active; 'I' for Inactive)
REMARK    1  A    between atoms: C_4  and  C_8
REMARK    2  A    between atoms: C_5  and  C_23
REMARK    3  A    between atoms: N_7  and  C_13
REMARK    4  A    between atoms: C_13  and  C_14
REMARK    5  A    between atoms: C_14  and  C_15
REMARK    6  A    between atoms: C_20  and  O_21
REMARK    7  A    between atoms: C_23  and  N_25
REMARK    8  A    between atoms: C_23  and  C_35
REMARK    9  A    between atoms: C_26  and  C_30
REMARK   10  A    between atoms: C_35  and  C_38
REMARK                            x       y       z     vdW  Elec       q    Type
REMARK                         _______ _______ _______ _____ _____    ______ ____
ROOT
ATOM      1  O   UNL     1     -31.434  25.204   0.824  0.00  0.00    -0.277 OA
ATOM      2  O   UNL     1     -31.113  27.018   2.948  0.00  0.00    -0.273 OA
ATOM      3  N   UNL     1     -33.091  26.516   1.822  0.00  0.00    -0.256 N 
ATOM      4  C   UNL     1     -32.599  25.580   0.914  0.00  0.00    +0.209 C 
ATOM      5  C   UNL     1     -32.320  27.177   2.781  0.00  0.00    +0.246 C 
ATOM      6  H   UNL     1     -34.051  26.727   1.783  0.00  0.00    +0.157 HD
ENDROOT
BRANCH   4   8
ATOM      7  N   UNL     1     -34.752  24.560   0.864  0.00  0.00    +0.394 N 
ATOM      8  C   UNL     1     -33.671  25.064   0.009  0.00  0.00    +0.021 C 
ATOM      9  C   UNL     1     -34.292  26.190  -0.818  0.00  0.00    -0.014 C 
ATOM     10  C   UNL     1     -36.006  24.867   0.176  0.00  0.00    -0.077 C 
ATOM     11  C   UNL     1     -35.739  26.264  -0.350  0.00  0.00    -0.024 C 
ATOM     12  H   UNL     1     -34.714  25.014   1.777  0.00  0.00    -0.079 HD
BRANCH   7  13
ATOM     13  C   UNL     1     -34.625  23.140   1.168  0.00  0.00    -0.072 C 
BRANCH  13  14
ATOM     14  C   UNL     1     -34.146  22.359  -0.056  0.00  0.00    +0.004 C 
BRANCH  14  15
ATOM     15  C   UNL     1     -33.479  21.066   0.339  0.00  0.00    -0.024 C 
ATOM     16  C   UNL     1     -34.151  20.153   1.152  0.00  0.00    -0.001 C 
ATOM     17  C   UNL     1     -32.189  20.781  -0.110  0.00  0.00    -0.001 C 
ATOM     18  C   UNL     1     -33.533  18.956   1.517  0.00  0.00    +0.036 C 
ATOM     19  C   UNL     1     -31.571  19.586   0.255  0.00  0.00    +0.036 C 
ATOM     20  C   UNL     1     -32.243  18.672   1.068  0.00  0.00    +0.134 C 
BRANCH  20  21
ATOM     21  O   UNL     1     -31.641  17.505   1.423  0.00  0.00    -0.506 OA
ATOM     22  H   UNL     1     -30.776  17.313   1.120  0.00  0.00    +0.292 HD
ENDBRANCH  20  21
ENDBRANCH  14  15
ENDBRANCH  13  14
ENDBRANCH   7  13
ENDBRANCH   4   8
BRANCH   5  23
ATOM     23  C   UNL     1     -33.166  28.091   3.661  0.00  0.00    +0.151 C 
BRANCH  23  25
ATOM     24  O   UNL     1     -35.755  26.909   3.087  0.00  0.00    -0.273 OA
ATOM     25  N   UNL     1     -33.956  27.252   4.524  0.00  0.00    -0.297 N 
ATOM     26  C   UNL     1     -35.188  26.730   4.163  0.00  0.00    +0.241 C 
ATOM     27  H   UNL     1     -33.602  27.038   5.418  0.00  0.00    +0.150 HD
BRANCH  26  30
ATOM     28  O   UNL     1     -37.174  22.965   3.782  0.00  0.00    -0.275 OA
ATOM     29  N   UNL     1     -36.846  25.126   4.624  0.00  0.00    -0.298 N 
ATOM     30  C   UNL     1     -35.782  25.873   5.234  0.00  0.00    +0.149 C 
ATOM     31  C   UNL     1     -34.827  24.803   5.728  0.00  0.00    +0.039 C 
ATOM     32  C   UNL     1     -35.063  23.622   4.787  0.00  0.00    +0.087 C 
ATOM     33  C   UNL     1     -36.489  23.813   4.334  0.00  0.00    +0.223 C 
ATOM     34  H   UNL     1     -37.734  25.503   4.431  0.00  0.00    +0.150 HD
ENDBRANCH  26  30
ENDBRANCH  23  25
BRANCH  23  35
ATOM     35  C   UNL     1     -32.274  29.051   4.451  0.00  0.00    +0.059 C 
BRANCH  35  38
ATOM     36  N   UNL     1     -34.165  30.543   3.938  0.00  0.00    -0.246 NA
ATOM     37  N   UNL     1     -32.920  31.640   2.366  0.00  0.00    -0.225 NA
ATOM     38  C   UNL     1     -32.753  30.494   4.370  0.00  0.00    +0.148 C 
ATOM     39  C   UNL     1     -32.088  31.236   3.258  0.00  0.00    +0.098 C 
ATOM     40  C   UNL     1     -34.137  31.202   2.821  0.00  0.00    +0.194 C 
ENDBRANCH  35  38
ENDBRANCH  23  35
ENDBRANCH   5  23
TORSDOF 10
ENDMDL
MODEL 7
REMARK VINA RESULT:      -6.7      2.817      4.422
REMARK  Name = 194745
REMARK  10 active torsions:
REMARK  status: ('A' for Active; 'I' for Inactive)
REMARK    1  A    between atoms: C_4  and  C_8
REMARK    2  A    between atoms: C_5  and  C_23
REMARK    3  A    between atoms: N_7  and  C_13
REMARK    4  A    between atoms: C_13  and  C_14
REMARK    5  A    between atoms: C_14  and  C_15
REMARK    6  A    between atoms: C_20  and  O_21
REMARK    7  A    between atoms: C_23  and  N_25
REMARK    8  A    between atoms: C_23  and  C_35
REMARK    9  A    between atoms: C_26  and  C_30
REMARK   10  A    between atoms: C_35  and  C_38
REMARK                            x       y       z     vdW  Elec       q    Type
REMARK                         _______ _______ _______ _____ _____    ______ ____
ROOT
ATOM      1  O   UNL     1     -35.254  20.892   3.841  0.00  0.00    -0.277 OA
ATOM      2  O   UNL     1     -36.136  23.122   5.309  0.00  0.00    -0.273 OA
ATOM      3  N   UNL     1     -36.160  22.872   2.992  0.00  0.00    -0.256 N 
ATOM      4  C   UNL     1     -35.611  21.594   2.900  0.00  0.00    +0.209 C 
ATOM      5  C   UNL     1     -36.388  23.557   4.188  0.00  0.00    +0.246 C 
ATOM      6  H   UNL     1     -36.402  23.325   2.153  0.00  0.00    +0.157 HD
ENDROOT
BRANCH   4   8
ATOM      7  N   UNL     1     -35.314  19.686   1.504  0.00  0.00    +0.394 N 
ATOM      8  C   UNL     1     -35.482  21.144   1.480  0.00  0.00    +0.021 C 
ATOM      9  C   UNL     1     -36.770  21.398   0.696  0.00  0.00    -0.014 C 
ATOM     10  C   UNL     1     -36.018  19.167   0.331  0.00  0.00    -0.077 C 
ATOM     11  C   UNL     1     -37.277  20.012   0.322  0.00  0.00    -0.024 C 
ATOM     12  H   UNL     1     -35.707  19.304   2.364  0.00  0.00    -0.079 HD
BRANCH   7  13
ATOM     13  C   UNL     1     -33.918  19.272   1.536  0.00  0.00    -0.072 C 
BRANCH  13  14
ATOM     14  C   UNL     1     -33.089  20.063   0.523  0.00  0.00    +0.004 C 
BRANCH  14  15
ATOM     15  C   UNL     1     -31.708  19.480   0.362  0.00  0.00    -0.024 C 
ATOM     16  C   UNL     1     -31.382  18.273   0.982  0.00  0.00    -0.001 C 
ATOM     17  C   UNL     1     -30.755  20.148  -0.408  0.00  0.00    -0.001 C 
ATOM     18  C   UNL     1     -30.104  17.735   0.832  0.00  0.00    +0.036 C 
ATOM     19  C   UNL     1     -29.477  19.609  -0.557  0.00  0.00    +0.036 C 
ATOM     20  C   UNL     1     -29.151  18.402   0.063  0.00  0.00    +0.134 C 
BRANCH  20  21
ATOM     21  O   UNL     1     -27.905  17.877  -0.083  0.00  0.00    -0.506 OA
ATOM     22  H   UNL     1     -27.779  17.106  -0.601  0.00  0.00    +0.292 HD
ENDBRANCH  20  21
ENDBRANCH  14  15
ENDBRANCH  13  14
ENDBRANCH   7  13
ENDBRANCH   4   8
BRANCH   5  23
ATOM     23  C   UNL     1     -37.056  24.908   3.952  0.00  0.00    +0.151 C 
BRANCH  23  25
ATOM     24  O   UNL     1     -34.991  26.734   4.864  0.00  0.00    -0.273 OA
ATOM     25  N   UNL     1     -36.163  25.696   3.141  0.00  0.00    -0.297 N 
ATOM     26  C   UNL     1     -35.203  26.546   3.669  0.00  0.00    +0.241 C 
ATOM     27  H   UNL     1     -36.239  25.628   2.162  0.00  0.00    +0.150 HD
BRANCH  26  30
ATOM     28  O   UNL     1     -31.108  25.924   2.617  0.00  0.00    -0.275 OA
ATOM     29  N   UNL     1     -33.029  27.193   3.046  0.00  0.00    -0.298 N 
ATOM     30  C   UNL     1     -34.397  27.224   2.609  0.00  0.00    +0.149 C 
ATOM     31  C   UNL     1     -34.375  26.452   1.303  0.00  0.00    +0.039 C 
ATOM     32  C   UNL     1     -33.194  25.492   1.451  0.00  0.00    +0.087 C 
ATOM     33  C   UNL     1     -32.280  26.205   2.416  0.00  0.00    +0.223 C 
ATOM     34  H   UNL     1     -32.661  27.807   3.722  0.00  0.00    +0.150 HD
ENDBRANCH  26  30
ENDBRANCH  23  25
BRANCH  23  35
ATOM     35  C   UNL     1     -38.422  24.722   3.287  0.00  0.00    +0.059 C 
BRANCH  35  38
ATOM     36  N   UNL     1     -39.038  26.662   1.902  0.00  0.00    -0.246 NA
ATOM     37  N   UNL     1     -40.412  25.358   0.623  0.00  0.00    -0.225 NA
ATOM     38  C   UNL     1     -38.469  25.299   1.880  0.00  0.00    +0.148 C 
ATOM     39  C   UNL     1     -39.464  24.588   1.023  0.00  0.00    +0.098 C 
ATOM     40  C   UNL     1     -40.107  26.577   1.172  0.00  0.00    +0.194 C 
ENDBRANCH  35  38
ENDBRANCH  23  35
ENDBRANCH   5  23
TORSDOF 10
ENDMDL
MODEL 8
REMARK VINA RESULT:      -6.6      3.113      4.643
REMARK  Name = 194745
REMARK  10 active torsions:
REMARK  status: ('A' for Active; 'I' for Inactive)
REMARK    1  A    between atoms: C_4  and  C_8
REMARK    2  A    between atoms: C_5  and  C_23
REMARK    3  A    between atoms: N_7  and  C_13
REMARK    4  A    between atoms: C_13  and  C_14
REMARK    5  A    between atoms: C_14  and  C_15
REMARK    6  A    between atoms: C_20  and  O_21
REMARK    7  A    between atoms: C_23  and  N_25
REMARK    8  A    between atoms: C_23  and  C_35
REMARK    9  A    between atoms: C_26  and  C_30
REMARK   10  A    between atoms: C_35  and  C_38
REMARK                            x       y       z     vdW  Elec       q    Type
REMARK                         _______ _______ _______ _____ _____    ______ ____
ROOT
ATOM      1  O   UNL     1     -34.437  24.155  -0.504  0.00  0.00    -0.277 OA
ATOM      2  O   UNL     1     -34.384  26.814   0.408  0.00  0.00    -0.273 OA
ATOM      3  N   UNL     1     -35.952  25.179   0.951  0.00  0.00    -0.256 N 
ATOM      4  C   UNL     1     -35.439  24.120   0.204  0.00  0.00    +0.209 C 
ATOM      5  C   UNL     1     -35.395  26.458   1.008  0.00  0.00    +0.246 C 
ATOM      6  H   UNL     1     -36.768  25.012   1.477  0.00  0.00    +0.157 HD
ENDROOT
BRANCH   4   8
ATOM      7  N   UNL     1     -36.347  22.575   1.774  0.00  0.00    +0.394 N 
ATOM      8  C   UNL     1     -36.270  22.885   0.342  0.00  0.00    +0.021 C 
ATOM      9  C   UNL     1     -37.711  23.130  -0.105  0.00  0.00    -0.014 C 
ATOM     10  C   UNL     1     -37.687  22.039   2.013  0.00  0.00    -0.077 C 
ATOM     11  C   UNL     1     -38.545  22.950   1.156  0.00  0.00    -0.024 C 
ATOM     12  H   UNL     1     -36.188  23.420   2.322  0.00  0.00    -0.079 HD
BRANCH   7  13
ATOM     13  C   UNL     1     -35.302  21.661   2.218  0.00  0.00    -0.072 C 
BRANCH  13  14
ATOM     14  C   UNL     1     -35.294  20.387   1.374  0.00  0.00    +0.004 C 
BRANCH  14  15
ATOM     15  C   UNL     1     -33.891  19.971   1.012  0.00  0.00    -0.024 C 
ATOM     16  C   UNL     1     -33.381  18.756   1.471  0.00  0.00    -0.001 C 
ATOM     17  C   UNL     1     -33.101  20.802   0.216  0.00  0.00    -0.001 C 
ATOM     18  C   UNL     1     -32.083  18.372   1.135  0.00  0.00    +0.036 C 
ATOM     19  C   UNL     1     -31.803  20.418  -0.119  0.00  0.00    +0.036 C 
ATOM     20  C   UNL     1     -31.294  19.203   0.340  0.00  0.00    +0.134 C 
BRANCH  20  21
ATOM     21  O   UNL     1     -30.028  18.828   0.012  0.00  0.00    -0.506 OA
ATOM     22  H   UNL     1     -29.594  18.159   0.505  0.00  0.00    +0.292 HD
ENDBRANCH  20  21
ENDBRANCH  14  15
ENDBRANCH  13  14
ENDBRANCH   7  13
ENDBRANCH   4   8
BRANCH   5  23
ATOM     23  C   UNL     1     -36.159  27.370   1.963  0.00  0.00    +0.151 C 
BRANCH  23  25
ATOM     24  O   UNL     1     -37.434  25.230   3.455  0.00  0.00    -0.273 OA
ATOM     25  N   UNL     1     -35.860  26.939   3.305  0.00  0.00    -0.297 N 
ATOM     26  C   UNL     1     -36.526  25.901   3.939  0.00  0.00    +0.241 C 
ATOM     27  H   UNL     1     -35.145  27.405   3.797  0.00  0.00    +0.150 HD
BRANCH  26  30
ATOM     28  O   UNL     1     -35.304  22.198   5.686  0.00  0.00    -0.275 OA
ATOM     29  N   UNL     1     -36.353  24.291   5.645  0.00  0.00    -0.298 N 
ATOM     30  C   UNL     1     -36.002  25.644   5.315  0.00  0.00    +0.149 C 
ATOM     31  C   UNL     1     -34.486  25.649   5.378  0.00  0.00    +0.039 C 
ATOM     32  C   UNL     1     -34.090  24.207   5.063  0.00  0.00    +0.087 C 
ATOM     33  C   UNL     1     -35.287  23.407   5.512  0.00  0.00    +0.223 C 
ATOM     34  H   UNL     1     -37.253  24.018   5.934  0.00  0.00    +0.150 HD
ENDBRANCH  26  30
ENDBRANCH  23  25
BRANCH  23  35
ATOM     35  C   UNL     1     -35.774  28.832   1.731  0.00  0.00    +0.059 C 
BRANCH  35  38
ATOM     36  N   UNL     1     -35.250  30.679   3.273  0.00  0.00    -0.246 NA
ATOM     37  N   UNL     1     -33.191  30.943   2.314  0.00  0.00    -0.225 NA
ATOM     38  C   UNL     1     -34.809  29.357   2.786  0.00  0.00    +0.148 C 
ATOM     39  C   UNL     1     -33.478  29.696   2.199  0.00  0.00    +0.098 C 
ATOM     40  C   UNL     1     -34.276  31.478   2.961  0.00  0.00    +0.194 C 
ENDBRANCH  35  38
ENDBRANCH  23  35
ENDBRANCH   5  23
TORSDOF 10
ENDMDL
MODEL 9
REMARK VINA RESULT:      -6.6      3.513      9.113
REMARK  Name = 194745
REMARK  10 active torsions:
REMARK  status: ('A' for Active; 'I' for Inactive)
REMARK    1  A    between atoms: C_4  and  C_8
REMARK    2  A    between atoms: C_5  and  C_23
REMARK    3  A    between atoms: N_7  and  C_13
REMARK    4  A    between atoms: C_13  and  C_14
REMARK    5  A    between atoms: C_14  and  C_15
REMARK    6  A    between atoms: C_20  and  O_21
REMARK    7  A    between atoms: C_23  and  N_25
REMARK    8  A    between atoms: C_23  and  C_35
REMARK    9  A    between atoms: C_26  and  C_30
REMARK   10  A    between atoms: C_35  and  C_38
REMARK                            x       y       z     vdW  Elec       q    Type
REMARK                         _______ _______ _______ _____ _____    ______ ____
ROOT
ATOM      1  O   UNL     1     -37.894  23.026   3.232  0.00  0.00    -0.277 OA
ATOM      2  O   UNL     1     -38.505  21.653   0.855  0.00  0.00    -0.273 OA
ATOM      3  N   UNL     1     -36.444  21.724   1.941  0.00  0.00    -0.256 N 
ATOM      4  C   UNL     1     -36.788  22.540   3.018  0.00  0.00    +0.209 C 
ATOM      5  C   UNL     1     -37.322  21.331   0.928  0.00  0.00    +0.246 C 
ATOM      6  H   UNL     1     -35.516  21.402   1.891  0.00  0.00    +0.157 HD
ENDROOT
BRANCH   4   8
ATOM      7  N   UNL     1     -36.116  23.588   5.050  0.00  0.00    +0.394 N 
ATOM      8  C   UNL     1     -35.624  22.788   3.923  0.00  0.00    +0.021 C 
ATOM      9  C   UNL     1     -35.107  21.486   4.537  0.00  0.00    -0.014 C 
ATOM     10  C   UNL     1     -35.386  23.134   6.234  0.00  0.00    -0.077 C 
ATOM     11  C   UNL     1     -35.363  21.632   6.030  0.00  0.00    -0.024 C 
ATOM     12  H   UNL     1     -37.120  23.448   5.163  0.00  0.00    -0.079 HD
BRANCH   7  13
ATOM     13  C   UNL     1     -35.979  25.023   4.835  0.00  0.00    -0.072 C 
BRANCH  13  14
ATOM     14  C   UNL     1     -34.699  25.341   4.062  0.00  0.00    +0.004 C 
BRANCH  14  15
ATOM     15  C   UNL     1     -33.810  26.287   4.829  0.00  0.00    -0.024 C 
ATOM     16  C   UNL     1     -33.727  26.196   6.219  0.00  0.00    -0.001 C 
ATOM     17  C   UNL     1     -33.068  27.253   4.148  0.00  0.00    -0.001 C 
ATOM     18  C   UNL     1     -32.903  27.072   6.927  0.00  0.00    +0.036 C 
ATOM     19  C   UNL     1     -32.245  28.128   4.856  0.00  0.00    +0.036 C 
ATOM     20  C   UNL     1     -32.162  28.037   6.246  0.00  0.00    +0.134 C 
BRANCH  20  21
ATOM     21  O   UNL     1     -31.359  28.891   6.937  0.00  0.00    -0.506 OA
ATOM     22  H   UNL     1     -30.628  28.559   7.421  0.00  0.00    +0.292 HD
ENDBRANCH  20  21
ENDBRANCH  14  15
ENDBRANCH  13  14
ENDBRANCH   7  13
ENDBRANCH   4   8
BRANCH   5  23
ATOM     23  C   UNL     1     -36.654  20.389  -0.069  0.00  0.00    +0.151 C 
BRANCH  23  25
ATOM     24  O   UNL     1     -34.562  20.011  -2.046  0.00  0.00    -0.273 OA
ATOM     25  N   UNL     1     -35.231  20.481   0.133  0.00  0.00    -0.297 N 
ATOM     26  C   UNL     1     -34.303  20.283  -0.877  0.00  0.00    +0.241 C 
ATOM     27  H   UNL     1     -34.901  20.695   1.036  0.00  0.00    +0.150 HD
BRANCH  26  30
ATOM     28  O   UNL     1     -32.036  17.805   1.765  0.00  0.00    -0.275 OA
ATOM     29  N   UNL     1     -32.811  19.832   0.885  0.00  0.00    -0.298 N 
ATOM     30  C   UNL     1     -32.897  20.462  -0.402  0.00  0.00    +0.149 C 
ATOM     31  C   UNL     1     -31.891  19.700  -1.245  0.00  0.00    +0.039 C 
ATOM     32  C   UNL     1     -31.829  18.316  -0.600  0.00  0.00    +0.087 C 
ATOM     33  C   UNL     1     -32.207  18.580   0.837  0.00  0.00    +0.223 C 
ATOM     34  H   UNL     1     -33.145  20.243   1.715  0.00  0.00    +0.150 HD
ENDBRANCH  26  30
ENDBRANCH  23  25
BRANCH  23  35
ATOM     35  C   UNL     1     -37.169  18.960   0.117  0.00  0.00    +0.059 C 
BRANCH  35  38
ATOM     36  N   UNL     1     -38.764  19.292  -1.729  0.00  0.00    -0.246 NA
ATOM     37  N   UNL     1     -39.812  17.323  -1.228  0.00  0.00    -0.225 NA
ATOM     38  C   UNL     1     -37.752  18.378  -1.163  0.00  0.00    +0.148 C 
ATOM     39  C   UNL     1     -38.581  17.165  -0.893  0.00  0.00    +0.098 C 
ATOM     40  C   UNL     1     -39.863  18.603  -1.719  0.00  0.00    +0.194 C 
ENDBRANCH  35  38
ENDBRANCH  23  35
ENDBRANCH   5  23
TORSDOF 10
ENDMDL
