MODEL 1
REMARK VINA RESULT:      -5.8      0.000      0.000
REMARK  Name = 512299
REMARK  5 active torsions:
REMARK  status: ('A' for Active; 'I' for Inactive)
REMARK    1  A    between atoms: N_2  and  C1*_14
REMARK    2  A    between atoms: C_7  and  C_22
REMARK    3  A    between atoms: C3*_12  and  O3*_16
REMARK    4  A    between atoms: C4*_15  and  C5*_18
REMARK    5  A    between atoms: C5*_18  and  O5*_19
REMARK                            x       y       z     vdW  Elec       q    Type
REMARK                         _______ _______ _______ _____ _____    ______ ____
ROOT
ATOM      1  O   UNL     1     -39.348  23.470   2.387  0.00  0.00    -0.193 OA
ATOM      2  N   UNL     1     -37.134  23.157   2.948  0.00  0.00    -0.180 N 
ATOM      3  N   UNL     1     -38.393  21.531   1.705  0.00  0.00    -0.306 NA
ATOM      4  N   UNL     1     -37.482  19.544   0.981  0.00  0.00    -0.332 N 
ATOM      5  C   UNL     1     -36.031  22.322   2.885  0.00  0.00    +0.083 C 
ATOM      6  C   UNL     1     -38.347  22.752   2.346  0.00  0.00    +0.275 C 
ATOM      7  C   UNL     1     -36.039  21.132   2.275  0.00  0.00    +0.061 C 
ATOM      8  C   UNL     1     -37.346  20.745   1.645  0.00  0.00    +0.193 C 
ATOM      9  H   UNL     1     -38.343  19.302   0.572  0.00  0.00    +0.145 HD
ATOM     10  H   UNL     1     -36.715  18.929   0.915  0.00  0.00    +0.145 HD
ENDROOT
BRANCH   2  14
ATOM     11  O4* UNL     1     -36.344  25.390   2.809  0.00  0.00    -0.334 OA
ATOM     12  C3* UNL     1     -35.546  25.637   5.027  0.00  0.00    +0.144 C 
ATOM     13  C2* UNL     1     -36.177  24.271   4.898  0.00  0.00    +0.084 C 
ATOM     14  C1* UNL     1     -37.008  24.417   3.632  0.00  0.00    +0.209 C 
ATOM     15  C4* UNL     1     -35.316  26.044   3.579  0.00  0.00    +0.173 C 
BRANCH  12  16
ATOM     16  O3* UNL     1     -36.484  26.539   5.610  0.00  0.00    -0.382 OA
ATOM     17  H3* UNL     1     -36.060  27.399   5.753  0.00  0.00    +0.210 HD
ENDBRANCH  12  16
BRANCH  15  18
ATOM     18  C5* UNL     1     -33.967  25.587   3.041  0.00  0.00    +0.169 C 
BRANCH  18  19
ATOM     19  O5* UNL     1     -32.987  25.760   4.053  0.00  0.00    -0.379 OA
ATOM     20  H5* UNL     1     -33.070  25.048   4.707  0.00  0.00    +0.211 HD
ENDBRANCH  18  19
ENDBRANCH  15  18
ENDBRANCH   2  14
BRANCH   7  22
ATOM     21 BR   UNL     1     -32.705  18.937   1.025  0.00  0.00    -0.048 Br
ATOM     22  C   UNL     1     -34.873  20.290   2.234  0.00  0.00    +0.012 C 
ATOM     23  C   UNL     1     -34.209  20.018   1.108  0.00  0.00    +0.041 C 
ENDBRANCH   7  22
TORSDOF 5
ENDMDL
MODEL 2
REMARK VINA RESULT:      -5.6      1.031      1.053
REMARK  Name = 512299
REMARK  5 active torsions:
REMARK  status: ('A' for Active; 'I' for Inactive)
REMARK    1  A    between atoms: N_2  and  C1*_14
REMARK    2  A    between atoms: C_7  and  C_22
REMARK    3  A    between atoms: C3*_12  and  O3*_16
REMARK    4  A    between atoms: C4*_15  and  C5*_18
REMARK    5  A    between atoms: C5*_18  and  O5*_19
REMARK                            x       y       z     vdW  Elec       q    Type
REMARK                         _______ _______ _______ _____ _____    ______ ____
ROOT
ATOM      1  O   UNL     1     -38.585  24.262   3.237  0.00  0.00    -0.193 OA
ATOM      2  N   UNL     1     -36.445  23.437   3.471  0.00  0.00    -0.180 N 
ATOM      3  N   UNL     1     -38.170  22.239   2.303  0.00  0.00    -0.306 NA
ATOM      4  N   UNL     1     -37.812  20.183   1.330  0.00  0.00    -0.332 N 
ATOM      5  C   UNL     1     -35.569  22.398   3.203  0.00  0.00    +0.083 C 
ATOM      6  C   UNL     1     -37.780  23.357   3.013  0.00  0.00    +0.275 C 
ATOM      7  C   UNL     1     -35.912  21.301   2.520  0.00  0.00    +0.061 C 
ATOM      8  C   UNL     1     -37.337  21.259   2.049  0.00  0.00    +0.193 C 
ATOM      9  H   UNL     1     -38.747  20.168   1.026  0.00  0.00    +0.145 HD
ATOM     10  H   UNL     1     -37.213  19.430   1.119  0.00  0.00    +0.145 HD
ENDROOT
BRANCH   2  14
ATOM     11  O4* UNL     1     -35.655  25.671   3.343  0.00  0.00    -0.334 OA
ATOM     12  C3* UNL     1     -33.977  25.564   5.014  0.00  0.00    +0.144 C 
ATOM     13  C2* UNL     1     -34.685  24.231   4.965  0.00  0.00    +0.084 C 
ATOM     14  C1* UNL     1     -35.964  24.572   4.215  0.00  0.00    +0.209 C 
ATOM     15  C4* UNL     1     -34.359  26.201   3.687  0.00  0.00    +0.173 C 
BRANCH  12  16
ATOM     16  O3* UNL     1     -34.522  26.350   6.071  0.00  0.00    -0.382 OA
ATOM     17  H3* UNL     1     -34.405  25.885   6.914  0.00  0.00    +0.210 HD
ENDBRANCH  12  16
BRANCH  15  18
ATOM     18  C5* UNL     1     -33.396  25.850   2.560  0.00  0.00    +0.169 C 
BRANCH  18  19
ATOM     19  O5* UNL     1     -32.066  25.985   3.035  0.00  0.00    -0.379 OA
ATOM     20  H5* UNL     1     -32.075  26.413   3.905  0.00  0.00    +0.211 HD
ENDBRANCH  18  19
ENDBRANCH  15  18
ENDBRANCH   2  14
BRANCH   7  22
ATOM     21 BR   UNL     1     -32.934  18.878   0.859  0.00  0.00    -0.048 Br
ATOM     22  C   UNL     1     -34.974  20.240   2.265  0.00  0.00    +0.012 C 
ATOM     23  C   UNL     1     -34.152  20.231   1.213  0.00  0.00    +0.041 C 
ENDBRANCH   7  22
TORSDOF 5
ENDMDL
MODEL 3
REMARK VINA RESULT:      -5.6      2.409      4.046
REMARK  Name = 512299
REMARK  5 active torsions:
REMARK  status: ('A' for Active; 'I' for Inactive)
REMARK    1  A    between atoms: N_2  and  C1*_14
REMARK    2  A    between atoms: C_7  and  C_22
REMARK    3  A    between atoms: C3*_12  and  O3*_16
REMARK    4  A    between atoms: C4*_15  and  C5*_18
REMARK    5  A    between atoms: C5*_18  and  O5*_19
REMARK                            x       y       z     vdW  Elec       q    Type
REMARK                         _______ _______ _______ _____ _____    ______ ____
ROOT
ATOM      1  O   UNL     1     -36.036  25.745   5.900  0.00  0.00    -0.193 OA
ATOM      2  N   UNL     1     -36.343  24.619   3.912  0.00  0.00    -0.180 N 
ATOM      3  N   UNL     1     -35.419  23.565   5.863  0.00  0.00    -0.306 NA
ATOM      4  N   UNL     1     -34.775  21.354   5.892  0.00  0.00    -0.332 N 
ATOM      5  C   UNL     1     -36.210  23.422   3.227  0.00  0.00    +0.083 C 
ATOM      6  C   UNL     1     -35.935  24.695   5.262  0.00  0.00    +0.275 C 
ATOM      7  C   UNL     1     -35.713  22.308   3.774  0.00  0.00    +0.061 C 
ATOM      8  C   UNL     1     -35.298  22.433   5.212  0.00  0.00    +0.193 C 
ATOM      9  H   UNL     1     -34.507  21.448   6.834  0.00  0.00    +0.145 HD
ATOM     10  H   UNL     1     -34.671  20.488   5.434  0.00  0.00    +0.145 HD
ENDROOT
BRANCH   2  14
ATOM     11  O4* UNL     1     -38.326  25.785   3.328  0.00  0.00    -0.334 OA
ATOM     12  C3* UNL     1     -37.743  26.418   1.119  0.00  0.00    +0.144 C 
ATOM     13  C2* UNL     1     -36.566  25.699   1.734  0.00  0.00    +0.084 C 
ATOM     14  C1* UNL     1     -36.893  25.754   3.218  0.00  0.00    +0.209 C 
ATOM     15  C4* UNL     1     -38.898  26.016   2.025  0.00  0.00    +0.173 C 
BRANCH  12  16
ATOM     16  O3* UNL     1     -37.548  27.825   1.227  0.00  0.00    -0.382 OA
ATOM     17  H3* UNL     1     -38.162  28.284   0.631  0.00  0.00    +0.210 HD
ENDBRANCH  12  16
BRANCH  15  18
ATOM     18  C5* UNL     1     -39.583  24.731   1.580  0.00  0.00    +0.169 C 
BRANCH  18  19
ATOM     19  O5* UNL     1     -39.763  23.893   2.711  0.00  0.00    -0.379 OA
ATOM     20  H5* UNL     1     -39.583  24.398   3.519  0.00  0.00    +0.211 HD
ENDBRANCH  18  19
ENDBRANCH  15  18
ENDBRANCH   2  14
BRANCH   7  22
ATOM     21 BR   UNL     1     -34.847  19.460   0.837  0.00  0.00    -0.048 Br
ATOM     22  C   UNL     1     -35.588  21.085   3.029  0.00  0.00    +0.012 C 
ATOM     23  C   UNL     1     -35.022  21.022   1.820  0.00  0.00    +0.041 C 
ENDBRANCH   7  22
TORSDOF 5
ENDMDL
MODEL 4
REMARK VINA RESULT:      -5.5      2.668      3.324
REMARK  Name = 512299
REMARK  5 active torsions:
REMARK  status: ('A' for Active; 'I' for Inactive)
REMARK    1  A    between atoms: N_2  and  C1*_14
REMARK    2  A    between atoms: C_7  and  C_22
REMARK    3  A    between atoms: C3*_12  and  O3*_16
REMARK    4  A    between atoms: C4*_15  and  C5*_18
REMARK    5  A    between atoms: C5*_18  and  O5*_19
REMARK                            x       y       z     vdW  Elec       q    Type
REMARK                         _______ _______ _______ _____ _____    ______ ____
ROOT
ATOM      1  O   UNL     1     -35.181  21.052   5.357  0.00  0.00    -0.193 OA
ATOM      2  N   UNL     1     -35.337  22.590   3.646  0.00  0.00    -0.180 N 
ATOM      3  N   UNL     1     -35.191  20.225   3.247  0.00  0.00    -0.306 NA
ATOM      4  N   UNL     1     -35.198  19.321   1.129  0.00  0.00    -0.332 N 
ATOM      5  C   UNL     1     -35.388  22.798   2.278  0.00  0.00    +0.083 C 
ATOM      6  C   UNL     1     -35.233  21.272   4.145  0.00  0.00    +0.275 C 
ATOM      7  C   UNL     1     -35.348  21.809   1.378  0.00  0.00    +0.061 C 
ATOM      8  C   UNL     1     -35.243  20.425   1.953  0.00  0.00    +0.193 C 
ATOM      9  H   UNL     1     -35.129  18.419   1.517  0.00  0.00    +0.145 HD
ATOM     10  H   UNL     1     -35.237  19.435   0.151  0.00  0.00    +0.145 HD
ENDROOT
BRANCH   2  14
ATOM     11  O4* UNL     1     -36.732  24.226   4.651  0.00  0.00    -0.334 OA
ATOM     12  C3* UNL     1     -35.274  26.089   4.509  0.00  0.00    +0.144 C 
ATOM     13  C2* UNL     1     -34.549  24.877   3.974  0.00  0.00    +0.084 C 
ATOM     14  C1* UNL     1     -35.388  23.732   4.521  0.00  0.00    +0.209 C 
ATOM     15  C4* UNL     1     -36.732  25.657   4.475  0.00  0.00    +0.173 C 
BRANCH  12  16
ATOM     16  O3* UNL     1     -34.895  26.308   5.865  0.00  0.00    -0.382 OA
ATOM     17  H3* UNL     1     -35.687  26.310   6.426  0.00  0.00    +0.210 HD
ENDBRANCH  12  16
BRANCH  15  18
ATOM     18  C5* UNL     1     -37.413  25.964   3.148  0.00  0.00    +0.169 C 
BRANCH  18  19
ATOM     19  O5* UNL     1     -38.754  26.354   3.400  0.00  0.00    -0.379 OA
ATOM     20  H5* UNL     1     -38.952  26.236   4.342  0.00  0.00    +0.211 HD
ENDBRANCH  18  19
ENDBRANCH  15  18
ENDBRANCH   2  14
BRANCH   7  22
ATOM     21 BR   UNL     1     -36.526  23.013  -2.450  0.00  0.00    -0.048 Br
ATOM     22  C   UNL     1     -35.400  22.066  -0.036  0.00  0.00    +0.012 C 
ATOM     23  C   UNL     1     -36.432  22.670  -0.630  0.00  0.00    +0.041 C 
ENDBRANCH   7  22
TORSDOF 5
ENDMDL
MODEL 5
REMARK VINA RESULT:      -5.5      3.931      5.847
REMARK  Name = 512299
REMARK  5 active torsions:
REMARK  status: ('A' for Active; 'I' for Inactive)
REMARK    1  A    between atoms: N_2  and  C1*_14
REMARK    2  A    between atoms: C_7  and  C_22
REMARK    3  A    between atoms: C3*_12  and  O3*_16
REMARK    4  A    between atoms: C4*_15  and  C5*_18
REMARK    5  A    between atoms: C5*_18  and  O5*_19
REMARK                            x       y       z     vdW  Elec       q    Type
REMARK                         _______ _______ _______ _____ _____    ______ ____
ROOT
ATOM      1  O   UNL     1     -35.622  28.791   1.944  0.00  0.00    -0.193 OA
ATOM      2  N   UNL     1     -36.359  26.731   2.671  0.00  0.00    -0.180 N 
ATOM      3  N   UNL     1     -34.514  27.878   3.697  0.00  0.00    -0.306 NA
ATOM      4  N   UNL     1     -33.349  27.006   5.482  0.00  0.00    -0.332 N 
ATOM      5  C   UNL     1     -36.189  25.693   3.571  0.00  0.00    +0.083 C 
ATOM      6  C   UNL     1     -35.500  27.851   2.732  0.00  0.00    +0.275 C 
ATOM      7  C   UNL     1     -35.245  25.682   4.518  0.00  0.00    +0.061 C 
ATOM      8  C   UNL     1     -34.358  26.894   4.549  0.00  0.00    +0.193 C 
ATOM      9  H   UNL     1     -32.775  27.805   5.493  0.00  0.00    +0.145 HD
ATOM     10  H   UNL     1     -33.205  26.287   6.139  0.00  0.00    +0.145 HD
ENDROOT
BRANCH   2  14
ATOM     11  O4* UNL     1     -38.700  26.554   2.325  0.00  0.00    -0.334 OA
ATOM     12  C3* UNL     1     -38.689  25.055   0.489  0.00  0.00    +0.144 C 
ATOM     13  C2* UNL     1     -37.258  25.378   0.849  0.00  0.00    +0.084 C 
ATOM     14  C1* UNL     1     -37.412  26.633   1.694  0.00  0.00    +0.209 C 
ATOM     15  C4* UNL     1     -39.456  25.478   1.732  0.00  0.00    +0.173 C 
BRANCH  12  16
ATOM     16  O3* UNL     1     -39.099  25.877  -0.601  0.00  0.00    -0.382 OA
ATOM     17  H3* UNL     1     -38.836  26.795  -0.431  0.00  0.00    +0.210 HD
ENDBRANCH  12  16
BRANCH  15  18
ATOM     18  C5* UNL     1     -39.575  24.366   2.765  0.00  0.00    +0.169 C 
BRANCH  18  19
ATOM     19  O5* UNL     1     -39.766  24.947   4.046  0.00  0.00    -0.379 OA
ATOM     20  H5* UNL     1     -38.934  25.346   4.346  0.00  0.00    +0.211 HD
ENDBRANCH  18  19
ENDBRANCH  15  18
ENDBRANCH   2  14
BRANCH   7  22
ATOM     21 BR   UNL     1     -35.347  21.910   6.322  0.00  0.00    -0.048 Br
ATOM     22  C   UNL     1     -35.097  24.582   5.432  0.00  0.00    +0.012 C 
ATOM     23  C   UNL     1     -35.524  23.347   5.162  0.00  0.00    +0.041 C 
ENDBRANCH   7  22
TORSDOF 5
ENDMDL
MODEL 6
REMARK VINA RESULT:      -5.3      2.709      3.477
REMARK  Name = 512299
REMARK  5 active torsions:
REMARK  status: ('A' for Active; 'I' for Inactive)
REMARK    1  A    between atoms: N_2  and  C1*_14
REMARK    2  A    between atoms: C_7  and  C_22
REMARK    3  A    between atoms: C3*_12  and  O3*_16
REMARK    4  A    between atoms: C4*_15  and  C5*_18
REMARK    5  A    between atoms: C5*_18  and  O5*_19
REMARK                            x       y       z     vdW  Elec       q    Type
REMARK                         _______ _______ _______ _____ _____    ______ ____
ROOT
ATOM      1  O   UNL     1     -34.832  21.304   4.774  0.00  0.00    -0.193 OA
ATOM      2  N   UNL     1     -36.326  22.494   3.483  0.00  0.00    -0.180 N 
ATOM      3  N   UNL     1     -35.726  20.218   2.997  0.00  0.00    -0.306 NA
ATOM      4  N   UNL     1     -36.601  19.060   1.209  0.00  0.00    -0.332 N 
ATOM      5  C   UNL     1     -37.161  22.489   2.378  0.00  0.00    +0.083 C 
ATOM      6  C   UNL     1     -35.587  21.332   3.800  0.00  0.00    +0.275 C 
ATOM      7  C   UNL     1     -37.320  21.431   1.577  0.00  0.00    +0.061 C 
ATOM      8  C   UNL     1     -36.520  20.217   1.954  0.00  0.00    +0.193 C 
ATOM      9  H   UNL     1     -36.072  18.270   1.467  0.00  0.00    +0.145 HD
ATOM     10  H   UNL     1     -37.189  19.022   0.420  0.00  0.00    +0.145 HD
ENDROOT
BRANCH   2  14
ATOM     11  O4* UNL     1     -37.465  24.435   4.236  0.00  0.00    -0.334 OA
ATOM     12  C3* UNL     1     -35.670  25.979   4.129  0.00  0.00    +0.144 C 
ATOM     13  C2* UNL     1     -35.147  24.615   3.748  0.00  0.00    +0.084 C 
ATOM     14  C1* UNL     1     -36.235  23.693   4.275  0.00  0.00    +0.209 C 
ATOM     15  C4* UNL     1     -37.175  25.822   3.972  0.00  0.00    +0.173 C 
BRANCH  12  16
ATOM     16  O3* UNL     1     -35.379  26.232   5.501  0.00  0.00    -0.382 OA
ATOM     17  H3* UNL     1     -36.012  26.879   5.852  0.00  0.00    +0.210 HD
ENDBRANCH  12  16
BRANCH  15  18
ATOM     18  C5* UNL     1     -37.664  26.143   2.566  0.00  0.00    +0.169 C 
BRANCH  18  19
ATOM     19  O5* UNL     1     -37.160  27.414   2.184  0.00  0.00    -0.379 OA
ATOM     20  H5* UNL     1     -37.082  27.978   2.968  0.00  0.00    +0.211 HD
ENDBRANCH  18  19
ENDBRANCH  15  18
ENDBRANCH   2  14
BRANCH   7  22
ATOM     21 BR   UNL     1     -40.647  21.208  -0.949  0.00  0.00    -0.048 Br
ATOM     22  C   UNL     1     -38.195  21.466   0.436  0.00  0.00    +0.012 C 
ATOM     23  C   UNL     1     -39.496  21.172   0.505  0.00  0.00    +0.041 C 
ENDBRANCH   7  22
TORSDOF 5
ENDMDL
MODEL 7
REMARK VINA RESULT:      -5.3      3.230      4.406
REMARK  Name = 512299
REMARK  5 active torsions:
REMARK  status: ('A' for Active; 'I' for Inactive)
REMARK    1  A    between atoms: N_2  and  C1*_14
REMARK    2  A    between atoms: C_7  and  C_22
REMARK    3  A    between atoms: C3*_12  and  O3*_16
REMARK    4  A    between atoms: C4*_15  and  C5*_18
REMARK    5  A    between atoms: C5*_18  and  O5*_19
REMARK                            x       y       z     vdW  Elec       q    Type
REMARK                         _______ _______ _______ _____ _____    ______ ____
ROOT
ATOM      1  O   UNL     1     -35.400  20.954   2.517  0.00  0.00    -0.193 OA
ATOM      2  N   UNL     1     -36.284  23.075   2.710  0.00  0.00    -0.180 N 
ATOM      3  N   UNL     1     -37.636  21.155   2.201  0.00  0.00    -0.306 NA
ATOM      4  N   UNL     1     -39.910  21.291   1.871  0.00  0.00    -0.332 N 
ATOM      5  C   UNL     1     -37.419  23.865   2.651  0.00  0.00    +0.083 C 
ATOM      6  C   UNL     1     -36.391  21.685   2.476  0.00  0.00    +0.275 C 
ATOM      7  C   UNL     1     -38.640  23.388   2.386  0.00  0.00    +0.061 C 
ATOM      8  C   UNL     1     -38.709  21.906   2.149  0.00  0.00    +0.193 C 
ATOM      9  H   UNL     1     -39.943  20.319   1.718  0.00  0.00    +0.145 HD
ATOM     10  H   UNL     1     -40.737  21.824   1.827  0.00  0.00    +0.145 HD
ENDROOT
BRANCH   2  14
ATOM     11  O4* UNL     1     -34.780  23.740   4.421  0.00  0.00    -0.334 OA
ATOM     12  C3* UNL     1     -34.055  25.797   3.495  0.00  0.00    +0.144 C 
ATOM     13  C2* UNL     1     -34.996  25.140   2.514  0.00  0.00    +0.084 C 
ATOM     14  C1* UNL     1     -35.021  23.701   3.005  0.00  0.00    +0.209 C 
ATOM     15  C4* UNL     1     -34.351  25.064   4.795  0.00  0.00    +0.173 C 
BRANCH  12  16
ATOM     16  O3* UNL     1     -32.708  25.524   3.115  0.00  0.00    -0.382 OA
ATOM     17  H3* UNL     1     -32.618  25.619   2.154  0.00  0.00    +0.210 HD
ENDBRANCH  12  16
BRANCH  15  18
ATOM     18  C5* UNL     1     -35.472  25.709   5.599  0.00  0.00    +0.169 C 
BRANCH  18  19
ATOM     19  O5* UNL     1     -35.851  26.922   4.966  0.00  0.00    -0.379 OA
ATOM     20  H5* UNL     1     -36.492  27.390   5.524  0.00  0.00    +0.211 HD
ENDBRANCH  18  19
ENDBRANCH  15  18
ENDBRANCH   2  14
BRANCH   7  22
ATOM     21 BR   UNL     1     -41.475  26.371   3.129  0.00  0.00    -0.048 Br
ATOM     22  C   UNL     1     -39.795  24.242   2.330  0.00  0.00    +0.012 C 
ATOM     23  C   UNL     1     -39.995  25.254   3.177  0.00  0.00    +0.041 C 
ENDBRANCH   7  22
TORSDOF 5
ENDMDL
MODEL 8
REMARK VINA RESULT:      -5.2      3.598      5.792
REMARK  Name = 512299
REMARK  5 active torsions:
REMARK  status: ('A' for Active; 'I' for Inactive)
REMARK    1  A    between atoms: N_2  and  C1*_14
REMARK    2  A    between atoms: C_7  and  C_22
REMARK    3  A    between atoms: C3*_12  and  O3*_16
REMARK    4  A    between atoms: C4*_15  and  C5*_18
REMARK    5  A    between atoms: C5*_18  and  O5*_19
REMARK                            x       y       z     vdW  Elec       q    Type
REMARK                         _______ _______ _______ _____ _____    ______ ____
ROOT
ATOM      1  O   UNL     1     -35.557  21.769   5.597  0.00  0.00    -0.193 OA
ATOM      2  N   UNL     1     -36.166  22.632   3.548  0.00  0.00    -0.180 N 
ATOM      3  N   UNL     1     -35.951  23.999   5.511  0.00  0.00    -0.306 NA
ATOM      4  N   UNL     1     -36.335  26.270   5.491  0.00  0.00    -0.332 N 
ATOM      5  C   UNL     1     -36.524  23.758   2.826  0.00  0.00    +0.083 C 
ATOM      6  C   UNL     1     -35.875  22.752   4.925  0.00  0.00    +0.275 C 
ATOM      7  C   UNL     1     -36.611  24.981   3.360  0.00  0.00    +0.061 C 
ATOM      8  C   UNL     1     -36.288  25.064   4.825  0.00  0.00    +0.193 C 
ATOM      9  H   UNL     1     -36.121  26.311   6.450  0.00  0.00    +0.145 HD
ATOM     10  H   UNL     1     -36.582  27.090   5.005  0.00  0.00    +0.145 HD
ENDROOT
BRANCH   2  14
ATOM     11  O4* UNL     1     -34.903  21.252   2.087  0.00  0.00    -0.334 OA
ATOM     12  C3* UNL     1     -36.683  20.321   0.829  0.00  0.00    +0.144 C 
ATOM     13  C2* UNL     1     -37.272  21.208   1.901  0.00  0.00    +0.084 C 
ATOM     14  C1* UNL     1     -36.106  21.365   2.865  0.00  0.00    +0.209 C 
ATOM     15  C4* UNL     1     -35.234  20.778   0.766  0.00  0.00    +0.173 C 
BRANCH  12  16
ATOM     16  O3* UNL     1     -36.714  18.965   1.268  0.00  0.00    -0.382 OA
ATOM     17  H3* UNL     1     -35.851  18.553   1.107  0.00  0.00    +0.210 HD
ENDBRANCH  12  16
BRANCH  15  18
ATOM     18  C5* UNL     1     -35.015  21.926  -0.210  0.00  0.00    +0.169 C 
BRANCH  18  19
ATOM     19  O5* UNL     1     -34.049  22.812   0.333  0.00  0.00    -0.379 OA
ATOM     20  H5* UNL     1     -34.080  22.769   1.301  0.00  0.00    +0.211 HD
ENDBRANCH  18  19
ENDBRANCH  15  18
ENDBRANCH   2  14
BRANCH   7  22
ATOM     21 BR   UNL     1     -36.563  28.423   0.985  0.00  0.00    -0.048 Br
ATOM     22  C   UNL     1     -36.990  26.127   2.578  0.00  0.00    +0.012 C 
ATOM     23  C   UNL     1     -36.103  26.939   1.997  0.00  0.00    +0.041 C 
ENDBRANCH   7  22
TORSDOF 5
ENDMDL
MODEL 9
REMARK VINA RESULT:      -5.2      3.856      6.187
REMARK  Name = 512299
REMARK  5 active torsions:
REMARK  status: ('A' for Active; 'I' for Inactive)
REMARK    1  A    between atoms: N_2  and  C1*_14
REMARK    2  A    between atoms: C_7  and  C_22
REMARK    3  A    between atoms: C3*_12  and  O3*_16
REMARK    4  A    between atoms: C4*_15  and  C5*_18
REMARK    5  A    between atoms: C5*_18  and  O5*_19
REMARK                            x       y       z     vdW  Elec       q    Type
REMARK                         _______ _______ _______ _____ _____    ______ ____
ROOT
ATOM      1  O   UNL     1     -33.075  26.321   5.548  0.00  0.00    -0.193 OA
ATOM      2  N   UNL     1     -34.652  25.504   4.077  0.00  0.00    -0.180 N 
ATOM      3  N   UNL     1     -34.112  27.841   4.224  0.00  0.00    -0.306 NA
ATOM      4  N   UNL     1     -35.127  29.434   2.906  0.00  0.00    -0.332 N 
ATOM      5  C   UNL     1     -35.575  25.800   3.089  0.00  0.00    +0.083 C 
ATOM      6  C   UNL     1     -33.903  26.549   4.663  0.00  0.00    +0.275 C 
ATOM      7  C   UNL     1     -35.807  27.038   2.639  0.00  0.00    +0.061 C 
ATOM      8  C   UNL     1     -34.985  28.116   3.286  0.00  0.00    +0.193 C 
ATOM      9  H   UNL     1     -34.582  30.132   3.337  0.00  0.00    +0.145 HD
ATOM     10  H   UNL     1     -35.772  29.677   2.203  0.00  0.00    +0.145 HD
ENDROOT
BRANCH   2  14
ATOM     11  O4* UNL     1     -34.745  23.235   3.388  0.00  0.00    -0.334 OA
ATOM     12  C3* UNL     1     -35.685  22.293   5.349  0.00  0.00    +0.144 C 
ATOM     13  C2* UNL     1     -35.463  23.767   5.589  0.00  0.00    +0.084 C 
ATOM     14  C1* UNL     1     -34.487  24.132   4.481  0.00  0.00    +0.209 C 
ATOM     15  C4* UNL     1     -35.623  22.182   3.833  0.00  0.00    +0.173 C 
BRANCH  12  16
ATOM     16  O3* UNL     1     -34.600  21.554   5.905  0.00  0.00    -0.382 OA
ATOM     17  H3* UNL     1     -33.793  22.093   5.876  0.00  0.00    +0.210 HD
ENDBRANCH  12  16
BRANCH  15  18
ATOM     18  C5* UNL     1     -36.976  22.387   3.166  0.00  0.00    +0.169 C 
BRANCH  18  19
ATOM     19  O5* UNL     1     -36.768  22.775   1.817  0.00  0.00    -0.379 OA
ATOM     20  H5* UNL     1     -36.468  23.697   1.789  0.00  0.00    +0.211 HD
ENDBRANCH  18  19
ENDBRANCH  15  18
ENDBRANCH   2  14
BRANCH   7  22
ATOM     21 BR   UNL     1     -39.187  26.943   0.178  0.00  0.00    -0.048 Br
ATOM     22  C   UNL     1     -36.778  27.305   1.613  0.00  0.00    +0.012 C 
ATOM     23  C   UNL     1     -37.918  26.621   1.491  0.00  0.00    +0.041 C 
ENDBRANCH   7  22
TORSDOF 5
ENDMDL
