MODEL 1
REMARK VINA RESULT:      -6.1      0.000      0.000
REMARK  Name = 21607505
REMARK  7 active torsions:
REMARK  status: ('A' for Active; 'I' for Inactive)
REMARK    1  A    between atoms: C_6  and  C_12
REMARK    2  A    between atoms: C_7  and  O_20
REMARK    3  A    between atoms: C_8  and  C_22
REMARK    4  A    between atoms: C_17  and  O_18
REMARK    5  A    between atoms: C_22  and  O_23
REMARK    6  A    between atoms: C_22  and  C_25
REMARK    7  A    between atoms: C_25  and  O_26
REMARK                            x       y       z     vdW  Elec       q    Type
REMARK                         _______ _______ _______ _____ _____    ______ ____
ROOT
ATOM      1  O   UNL     1     -37.723  24.638   0.961  0.00  0.00    -0.442 OA
ATOM      2  O   UNL     1     -34.654  23.285   1.840  0.00  0.00    -0.445 OA
ATOM      3  O   UNL     1     -34.986  24.939   0.291  0.00  0.00    -0.246 OA
ATOM      4  O   UNL     1     -38.824  26.436   0.056  0.00  0.00    -0.250 OA
ATOM      5  C   UNL     1     -36.711  24.440   1.955  0.00  0.00    +0.255 C 
ATOM      6  C   UNL     1     -36.841  25.667   2.864  0.00  0.00    +0.083 C 
ATOM      7  C   UNL     1     -36.858  23.063   2.586  0.00  0.00    +0.201 C 
ATOM      8  C   UNL     1     -35.422  22.682   2.889  0.00  0.00    +0.229 C 
ATOM      9  C   UNL     1     -37.252  26.752   1.872  0.00  0.00    +0.118 C 
ATOM     10  C   UNL     1     -35.377  24.288   1.248  0.00  0.00    +0.357 C 
ATOM     11  C   UNL     1     -38.040  25.966   0.866  0.00  0.00    +0.318 C 
ENDROOT
BRANCH   6  12
ATOM     12  C   UNL     1     -35.685  26.015   3.771  0.00  0.00    -0.018 C 
ATOM     13  C   UNL     1     -34.622  26.777   3.288  0.00  0.00    -0.001 C 
ATOM     14  C   UNL     1     -35.680  25.571   5.094  0.00  0.00    -0.001 C 
ATOM     15  C   UNL     1     -33.554  27.097   4.125  0.00  0.00    +0.036 C 
ATOM     16  C   UNL     1     -34.612  25.891   5.933  0.00  0.00    +0.036 C 
ATOM     17  C   UNL     1     -33.549  26.654   5.449  0.00  0.00    +0.134 C 
BRANCH  17  18
ATOM     18  O   UNL     1     -32.507  26.966   6.267  0.00  0.00    -0.506 OA
ATOM     19  H   UNL     1     -31.646  27.068   5.911  0.00  0.00    +0.292 HD
ENDBRANCH  17  18
ENDBRANCH   6  12
BRANCH   7  20
ATOM     20  O   UNL     1     -37.634  23.043   3.767  0.00  0.00    -0.377 OA
ATOM     21  H   UNL     1     -38.476  22.594   3.593  0.00  0.00    +0.211 HD
ENDBRANCH   7  20
BRANCH   8  22
ATOM     22  C   UNL     1     -35.196  21.179   2.884  0.00  0.00    +0.182 C 
BRANCH  22  23
ATOM     23  O   UNL     1     -35.550  20.654   4.163  0.00  0.00    -0.378 OA
ATOM     24  H   UNL     1     -34.745  20.406   4.644  0.00  0.00    +0.211 HD
ENDBRANCH  22  23
BRANCH  22  25
ATOM     25  C   UNL     1     -36.055  20.488   1.831  0.00  0.00    +0.170 C 
BRANCH  25  26
ATOM     26  O   UNL     1     -36.887  19.527   2.470  0.00  0.00    -0.379 OA
ATOM     27  H   UNL     1     -36.448  19.198   3.269  0.00  0.00    +0.211 HD
ENDBRANCH  25  26
ENDBRANCH  22  25
ENDBRANCH   8  22
TORSDOF 7
ENDMDL
MODEL 2
REMARK VINA RESULT:      -5.9      2.143      3.074
REMARK  Name = 21607505
REMARK  7 active torsions:
REMARK  status: ('A' for Active; 'I' for Inactive)
REMARK    1  A    between atoms: C_6  and  C_12
REMARK    2  A    between atoms: C_7  and  O_20
REMARK    3  A    between atoms: C_8  and  C_22
REMARK    4  A    between atoms: C_17  and  O_18
REMARK    5  A    between atoms: C_22  and  O_23
REMARK    6  A    between atoms: C_22  and  C_25
REMARK    7  A    between atoms: C_25  and  O_26
REMARK                            x       y       z     vdW  Elec       q    Type
REMARK                         _______ _______ _______ _____ _____    ______ ____
ROOT
ATOM      1  O   UNL     1     -38.648  21.540   0.939  0.00  0.00    -0.442 OA
ATOM      2  O   UNL     1     -35.249  21.989   0.430  0.00  0.00    -0.445 OA
ATOM      3  O   UNL     1     -36.902  23.398  -0.295  0.00  0.00    -0.246 OA
ATOM      4  O   UNL     1     -40.708  22.544   1.048  0.00  0.00    -0.250 OA
ATOM      5  C   UNL     1     -37.349  21.784   1.491  0.00  0.00    +0.255 C 
ATOM      6  C   UNL     1     -37.634  22.581   2.768  0.00  0.00    +0.083 C 
ATOM      7  C   UNL     1     -36.579  20.478   1.617  0.00  0.00    +0.201 C 
ATOM      8  C   UNL     1     -35.147  20.912   1.370  0.00  0.00    +0.229 C 
ATOM      9  C   UNL     1     -38.861  23.394   2.366  0.00  0.00    +0.118 C 
ATOM     10  C   UNL     1     -36.519  22.503   0.443  0.00  0.00    +0.357 C 
ATOM     11  C   UNL     1     -39.541  22.468   1.401  0.00  0.00    +0.318 C 
ENDROOT
BRANCH   6  12
ATOM     12  C   UNL     1     -36.505  23.366   3.392  0.00  0.00    -0.018 C 
ATOM     13  C   UNL     1     -35.768  22.815   4.440  0.00  0.00    -0.001 C 
ATOM     14  C   UNL     1     -36.199  24.642   2.920  0.00  0.00    -0.001 C 
ATOM     15  C   UNL     1     -34.726  23.540   5.017  0.00  0.00    +0.036 C 
ATOM     16  C   UNL     1     -35.156  25.368   3.497  0.00  0.00    +0.036 C 
ATOM     17  C   UNL     1     -34.420  24.817   4.546  0.00  0.00    +0.134 C 
BRANCH  17  18
ATOM     18  O   UNL     1     -33.402  25.525   5.108  0.00  0.00    -0.506 OA
ATOM     19  H   UNL     1     -33.522  26.431   5.318  0.00  0.00    +0.292 HD
ENDBRANCH  17  18
ENDBRANCH   6  12
BRANCH   7  20
ATOM     20  O   UNL     1     -36.695  19.854   2.881  0.00  0.00    -0.377 OA
ATOM     21  H   UNL     1     -37.063  18.963   2.768  0.00  0.00    +0.211 HD
ENDBRANCH   7  20
BRANCH   8  22
ATOM     22  C   UNL     1     -34.288  19.805   0.782  0.00  0.00    +0.182 C 
BRANCH  22  23
ATOM     23  O   UNL     1     -33.798  18.986   1.844  0.00  0.00    -0.378 OA
ATOM     24  H   UNL     1     -34.047  19.378   2.695  0.00  0.00    +0.211 HD
ENDBRANCH  22  23
BRANCH  22  25
ATOM     25  C   UNL     1     -35.087  18.923  -0.170  0.00  0.00    +0.170 C 
BRANCH  25  26
ATOM     26  O   UNL     1     -35.082  17.587   0.321  0.00  0.00    -0.379 OA
ATOM     27  H   UNL     1     -35.484  16.998  -0.336  0.00  0.00    +0.211 HD
ENDBRANCH  25  26
ENDBRANCH  22  25
ENDBRANCH   8  22
TORSDOF 7
ENDMDL
MODEL 3
REMARK VINA RESULT:      -5.8      1.634      5.685
REMARK  Name = 21607505
REMARK  7 active torsions:
REMARK  status: ('A' for Active; 'I' for Inactive)
REMARK    1  A    between atoms: C_6  and  C_12
REMARK    2  A    between atoms: C_7  and  O_20
REMARK    3  A    between atoms: C_8  and  C_22
REMARK    4  A    between atoms: C_17  and  O_18
REMARK    5  A    between atoms: C_22  and  O_23
REMARK    6  A    between atoms: C_22  and  C_25
REMARK    7  A    between atoms: C_25  and  O_26
REMARK                            x       y       z     vdW  Elec       q    Type
REMARK                         _______ _______ _______ _____ _____    ______ ____
ROOT
ATOM      1  O   UNL     1     -35.225  26.633   4.534  0.00  0.00    -0.442 OA
ATOM      2  O   UNL     1     -35.673  25.629   1.246  0.00  0.00    -0.445 OA
ATOM      3  O   UNL     1     -33.704  25.536   2.411  0.00  0.00    -0.246 OA
ATOM      4  O   UNL     1     -33.949  26.437   6.430  0.00  0.00    -0.250 OA
ATOM      5  C   UNL     1     -35.834  25.734   3.600  0.00  0.00    +0.255 C 
ATOM      6  C   UNL     1     -36.032  24.446   4.405  0.00  0.00    +0.083 C 
ATOM      7  C   UNL     1     -37.059  26.382   2.970  0.00  0.00    +0.201 C 
ATOM      8  C   UNL     1     -37.059  25.801   1.570  0.00  0.00    +0.229 C 
ATOM      9  C   UNL     1     -34.819  24.461   5.330  0.00  0.00    +0.118 C 
ATOM     10  C   UNL     1     -34.922  25.618   2.392  0.00  0.00    +0.357 C 
ATOM     11  C   UNL     1     -34.605  25.932   5.532  0.00  0.00    +0.318 C 
ENDROOT
BRANCH   6  12
ATOM     12  C   UNL     1     -36.264  23.157   3.651  0.00  0.00    -0.018 C 
ATOM     13  C   UNL     1     -37.478  22.937   3.001  0.00  0.00    -0.001 C 
ATOM     14  C   UNL     1     -35.264  22.186   3.607  0.00  0.00    -0.001 C 
ATOM     15  C   UNL     1     -37.693  21.747   2.307  0.00  0.00    +0.036 C 
ATOM     16  C   UNL     1     -35.478  20.995   2.912  0.00  0.00    +0.036 C 
ATOM     17  C   UNL     1     -36.692  20.775   2.262  0.00  0.00    +0.134 C 
BRANCH  17  18
ATOM     18  O   UNL     1     -36.901  19.614   1.584  0.00  0.00    -0.506 OA
ATOM     19  H   UNL     1     -36.172  19.097   1.304  0.00  0.00    +0.292 HD
ENDBRANCH  17  18
ENDBRANCH   6  12
BRANCH   7  20
ATOM     20  O   UNL     1     -38.276  26.087   3.627  0.00  0.00    -0.377 OA
ATOM     21  H   UNL     1     -38.962  26.704   3.329  0.00  0.00    +0.211 HD
ENDBRANCH   7  20
BRANCH   8  22
ATOM     22  C   UNL     1     -37.708  26.721   0.549  0.00  0.00    +0.182 C 
BRANCH  22  23
ATOM     23  O   UNL     1     -38.961  27.171   1.064  0.00  0.00    -0.378 OA
ATOM     24  H   UNL     1     -38.948  28.137   1.145  0.00  0.00    +0.211 HD
ENDBRANCH  22  23
BRANCH  22  25
ATOM     25  C   UNL     1     -36.842  27.942   0.267  0.00  0.00    +0.170 C 
BRANCH  25  26
ATOM     26  O   UNL     1     -37.503  29.103   0.757  0.00  0.00    -0.379 OA
ATOM     27  H   UNL     1     -38.267  28.839   1.293  0.00  0.00    +0.211 HD
ENDBRANCH  25  26
ENDBRANCH  22  25
ENDBRANCH   8  22
TORSDOF 7
ENDMDL
MODEL 4
REMARK VINA RESULT:      -5.8      2.453      4.467
REMARK  Name = 21607505
REMARK  7 active torsions:
REMARK  status: ('A' for Active; 'I' for Inactive)
REMARK    1  A    between atoms: C_6  and  C_12
REMARK    2  A    between atoms: C_7  and  O_20
REMARK    3  A    between atoms: C_8  and  C_22
REMARK    4  A    between atoms: C_17  and  O_18
REMARK    5  A    between atoms: C_22  and  O_23
REMARK    6  A    between atoms: C_22  and  C_25
REMARK    7  A    between atoms: C_25  and  O_26
REMARK                            x       y       z     vdW  Elec       q    Type
REMARK                         _______ _______ _______ _____ _____    ______ ____
ROOT
ATOM      1  O   UNL     1     -36.374  25.767   0.239  0.00  0.00    -0.442 OA
ATOM      2  O   UNL     1     -38.644  23.684   1.828  0.00  0.00    -0.445 OA
ATOM      3  O   UNL     1     -37.348  23.115   0.028  0.00  0.00    -0.246 OA
ATOM      4  O   UNL     1     -34.509  25.891  -1.091  0.00  0.00    -0.250 OA
ATOM      5  C   UNL     1     -36.758  25.044   1.414  0.00  0.00    +0.255 C 
ATOM      6  C   UNL     1     -35.428  24.725   2.103  0.00  0.00    +0.083 C 
ATOM      7  C   UNL     1     -37.800  25.831   2.197  0.00  0.00    +0.201 C 
ATOM      8  C   UNL     1     -38.659  24.737   2.799  0.00  0.00    +0.229 C 
ATOM      9  C   UNL     1     -34.494  24.528   0.912  0.00  0.00    +0.118 C 
ATOM     10  C   UNL     1     -37.577  23.841   0.983  0.00  0.00    +0.357 C 
ATOM     11  C   UNL     1     -35.080  25.471  -0.097  0.00  0.00    +0.318 C 
ENDROOT
BRANCH   6  12
ATOM     12  C   UNL     1     -35.402  23.629   3.143  0.00  0.00    -0.018 C 
ATOM     13  C   UNL     1     -35.414  23.953   4.499  0.00  0.00    -0.001 C 
ATOM     14  C   UNL     1     -35.365  22.293   2.745  0.00  0.00    -0.001 C 
ATOM     15  C   UNL     1     -35.389  22.942   5.459  0.00  0.00    +0.036 C 
ATOM     16  C   UNL     1     -35.340  21.280   3.705  0.00  0.00    +0.036 C 
ATOM     17  C   UNL     1     -35.352  21.605   5.062  0.00  0.00    +0.134 C 
BRANCH  17  18
ATOM     18  O   UNL     1     -35.328  20.617   5.998  0.00  0.00    -0.506 OA
ATOM     19  H   UNL     1     -34.601  20.545   6.585  0.00  0.00    +0.292 HD
ENDBRANCH  17  18
ENDBRANCH   6  12
BRANCH   7  20
ATOM     20  O   UNL     1     -37.264  26.656   3.213  0.00  0.00    -0.377 OA
ATOM     21  H   UNL     1     -36.747  26.113   3.830  0.00  0.00    +0.211 HD
ENDBRANCH   7  20
BRANCH   8  22
ATOM     22  C   UNL     1     -40.091  25.180   3.047  0.00  0.00    +0.182 C 
BRANCH  22  23
ATOM     23  O   UNL     1     -40.077  26.462   3.674  0.00  0.00    -0.378 OA
ATOM     24  H   UNL     1     -40.896  26.584   4.178  0.00  0.00    +0.211 HD
ENDBRANCH  22  23
BRANCH  22  25
ATOM     25  C   UNL     1     -40.873  25.295   1.744  0.00  0.00    +0.170 C 
BRANCH  25  26
ATOM     26  O   UNL     1     -41.305  23.998   1.346  0.00  0.00    -0.379 OA
ATOM     27  H   UNL     1     -40.583  23.364   1.472  0.00  0.00    +0.211 HD
ENDBRANCH  25  26
ENDBRANCH  22  25
ENDBRANCH   8  22
TORSDOF 7
ENDMDL
MODEL 5
REMARK VINA RESULT:      -5.7      1.634      4.666
REMARK  Name = 21607505
REMARK  7 active torsions:
REMARK  status: ('A' for Active; 'I' for Inactive)
REMARK    1  A    between atoms: C_6  and  C_12
REMARK    2  A    between atoms: C_7  and  O_20
REMARK    3  A    between atoms: C_8  and  C_22
REMARK    4  A    between atoms: C_17  and  O_18
REMARK    5  A    between atoms: C_22  and  O_23
REMARK    6  A    between atoms: C_22  and  C_25
REMARK    7  A    between atoms: C_25  and  O_26
REMARK                            x       y       z     vdW  Elec       q    Type
REMARK                         _______ _______ _______ _____ _____    ______ ____
ROOT
ATOM      1  O   UNL     1     -34.049  24.585   4.403  0.00  0.00    -0.442 OA
ATOM      2  O   UNL     1     -36.386  22.298   3.251  0.00  0.00    -0.445 OA
ATOM      3  O   UNL     1     -36.267  23.121   5.385  0.00  0.00    -0.246 OA
ATOM      4  O   UNL     1     -33.553  26.170   5.986  0.00  0.00    -0.250 OA
ATOM      5  C   UNL     1     -35.158  24.294   3.545  0.00  0.00    +0.255 C 
ATOM      6  C   UNL     1     -35.857  25.646   3.374  0.00  0.00    +0.083 C 
ATOM      7  C   UNL     1     -34.677  23.572   2.294  0.00  0.00    +0.201 C 
ATOM      8  C   UNL     1     -35.838  22.651   1.975  0.00  0.00    +0.229 C 
ATOM      9  C   UNL     1     -35.624  26.297   4.734  0.00  0.00    +0.118 C 
ATOM     10  C   UNL     1     -35.988  23.205   4.199  0.00  0.00    +0.357 C 
ATOM     11  C   UNL     1     -34.295  25.720   5.127  0.00  0.00    +0.318 C 
ENDROOT
BRANCH   6  12
ATOM     12  C   UNL     1     -37.284  25.659   2.879  0.00  0.00    -0.018 C 
ATOM     13  C   UNL     1     -38.313  25.205   3.703  0.00  0.00    -0.001 C 
ATOM     14  C   UNL     1     -37.572  26.125   1.596  0.00  0.00    -0.001 C 
ATOM     15  C   UNL     1     -39.630  25.216   3.246  0.00  0.00    +0.036 C 
ATOM     16  C   UNL     1     -38.890  26.137   1.137  0.00  0.00    +0.036 C 
ATOM     17  C   UNL     1     -39.919  25.682   1.962  0.00  0.00    +0.134 C 
BRANCH  17  18
ATOM     18  O   UNL     1     -41.205  25.693   1.516  0.00  0.00    -0.506 OA
ATOM     19  H   UNL     1     -41.747  26.443   1.667  0.00  0.00    +0.292 HD
ENDBRANCH  17  18
ENDBRANCH   6  12
BRANCH   7  20
ATOM     20  O   UNL     1     -34.406  24.424   1.198  0.00  0.00    -0.377 OA
ATOM     21  H   UNL     1     -33.957  23.920   0.501  0.00  0.00    +0.211 HD
ENDBRANCH   7  20
BRANCH   8  22
ATOM     22  C   UNL     1     -35.409  21.392   1.241  0.00  0.00    +0.182 C 
BRANCH  22  23
ATOM     23  O   UNL     1     -34.110  21.599   0.688  0.00  0.00    -0.378 OA
ATOM     24  H   UNL     1     -33.449  21.575   1.397  0.00  0.00    +0.211 HD
ENDBRANCH  22  23
BRANCH  22  25
ATOM     25  C   UNL     1     -35.342  20.193   2.179  0.00  0.00    +0.170 C 
BRANCH  25  26
ATOM     26  O   UNL     1     -36.662  19.719   2.421  0.00  0.00    -0.379 OA
ATOM     27  H   UNL     1     -37.134  20.351   2.986  0.00  0.00    +0.211 HD
ENDBRANCH  25  26
ENDBRANCH  22  25
ENDBRANCH   8  22
TORSDOF 7
ENDMDL
MODEL 6
REMARK VINA RESULT:      -5.6      0.959      1.450
REMARK  Name = 21607505
REMARK  7 active torsions:
REMARK  status: ('A' for Active; 'I' for Inactive)
REMARK    1  A    between atoms: C_6  and  C_12
REMARK    2  A    between atoms: C_7  and  O_20
REMARK    3  A    between atoms: C_8  and  C_22
REMARK    4  A    between atoms: C_17  and  O_18
REMARK    5  A    between atoms: C_22  and  O_23
REMARK    6  A    between atoms: C_22  and  C_25
REMARK    7  A    between atoms: C_25  and  O_26
REMARK                            x       y       z     vdW  Elec       q    Type
REMARK                         _______ _______ _______ _____ _____    ______ ____
ROOT
ATOM      1  O   UNL     1     -37.765  23.964   0.448  0.00  0.00    -0.442 OA
ATOM      2  O   UNL     1     -34.795  22.688   1.698  0.00  0.00    -0.445 OA
ATOM      3  O   UNL     1     -34.977  24.290   0.071  0.00  0.00    -0.246 OA
ATOM      4  O   UNL     1     -38.784  25.715  -0.629  0.00  0.00    -0.250 OA
ATOM      5  C   UNL     1     -36.866  23.813   1.552  0.00  0.00    +0.255 C 
ATOM      6  C   UNL     1     -37.111  25.065   2.401  0.00  0.00    +0.083 C 
ATOM      7  C   UNL     1     -37.063  22.453   2.206  0.00  0.00    +0.201 C 
ATOM      8  C   UNL     1     -35.664  22.105   2.676  0.00  0.00    +0.229 C 
ATOM      9  C   UNL     1     -37.425  26.112   1.337  0.00  0.00    +0.118 C 
ATOM     10  C   UNL     1     -35.461  23.661   1.000  0.00  0.00    +0.357 C 
ATOM     11  C   UNL     1     -38.088  25.284   0.276  0.00  0.00    +0.318 C 
ENDROOT
BRANCH   6  12
ATOM     12  C   UNL     1     -36.065  25.458   3.418  0.00  0.00    -0.018 C 
ATOM     13  C   UNL     1     -36.202  25.064   4.749  0.00  0.00    -0.001 C 
ATOM     14  C   UNL     1     -34.963  26.217   3.025  0.00  0.00    -0.001 C 
ATOM     15  C   UNL     1     -35.238  25.428   5.688  0.00  0.00    +0.036 C 
ATOM     16  C   UNL     1     -33.997  26.582   3.964  0.00  0.00    +0.036 C 
ATOM     17  C   UNL     1     -34.134  26.188   5.296  0.00  0.00    +0.134 C 
BRANCH  17  18
ATOM     18  O   UNL     1     -33.193  26.543   6.211  0.00  0.00    -0.506 OA
ATOM     19  H   UNL     1     -33.226  27.389   6.613  0.00  0.00    +0.292 HD
ENDBRANCH  17  18
ENDBRANCH   6  12
BRANCH   7  20
ATOM     20  O   UNL     1     -37.964  22.456   3.296  0.00  0.00    -0.377 OA
ATOM     21  H   UNL     1     -38.490  23.271   3.278  0.00  0.00    +0.211 HD
ENDBRANCH   7  20
BRANCH   8  22
ATOM     22  C   UNL     1     -35.420  20.607   2.744  0.00  0.00    +0.182 C 
BRANCH  22  23
ATOM     23  O   UNL     1     -36.675  19.930   2.680  0.00  0.00    -0.378 OA
ATOM     24  H   UNL     1     -36.607  19.079   3.140  0.00  0.00    +0.211 HD
ENDBRANCH  22  23
BRANCH  22  25
ATOM     25  C   UNL     1     -34.560  20.128   1.580  0.00  0.00    +0.170 C 
BRANCH  25  26
ATOM     26  O   UNL     1     -35.377  20.000   0.422  0.00  0.00    -0.379 OA
ATOM     27  H   UNL     1     -35.856  19.157   0.454  0.00  0.00    +0.211 HD
ENDBRANCH  25  26
ENDBRANCH  22  25
ENDBRANCH   8  22
TORSDOF 7
ENDMDL
MODEL 7
REMARK VINA RESULT:      -5.5      3.246      5.230
REMARK  Name = 21607505
REMARK  7 active torsions:
REMARK  status: ('A' for Active; 'I' for Inactive)
REMARK    1  A    between atoms: C_6  and  C_12
REMARK    2  A    between atoms: C_7  and  O_20
REMARK    3  A    between atoms: C_8  and  C_22
REMARK    4  A    between atoms: C_17  and  O_18
REMARK    5  A    between atoms: C_22  and  O_23
REMARK    6  A    between atoms: C_22  and  C_25
REMARK    7  A    between atoms: C_25  and  O_26
REMARK                            x       y       z     vdW  Elec       q    Type
REMARK                         _______ _______ _______ _____ _____    ______ ____
ROOT
ATOM      1  O   UNL     1     -33.241  27.741   1.138  0.00  0.00    -0.442 OA
ATOM      2  O   UNL     1     -32.998  25.878   4.051  0.00  0.00    -0.445 OA
ATOM      3  O   UNL     1     -31.486  25.864   2.331  0.00  0.00    -0.246 OA
ATOM      4  O   UNL     1     -32.114  28.663  -0.635  0.00  0.00    -0.250 OA
ATOM      5  C   UNL     1     -33.080  27.708   2.560  0.00  0.00    +0.255 C 
ATOM      6  C   UNL     1     -32.275  28.974   2.870  0.00  0.00    +0.083 C 
ATOM      7  C   UNL     1     -34.432  27.534   3.238  0.00  0.00    +0.201 C 
ATOM      8  C   UNL     1     -34.085  26.715   4.465  0.00  0.00    +0.229 C 
ATOM      9  C   UNL     1     -31.385  29.093   1.635  0.00  0.00    +0.118 C 
ATOM     10  C   UNL     1     -32.407  26.398   2.929  0.00  0.00    +0.357 C 
ATOM     11  C   UNL     1     -32.262  28.509   0.568  0.00  0.00    +0.318 C 
ENDROOT
BRANCH   6  12
ATOM     12  C   UNL     1     -31.564  29.066   4.200  0.00  0.00    -0.018 C 
ATOM     13  C   UNL     1     -32.177  29.705   5.277  0.00  0.00    -0.001 C 
ATOM     14  C   UNL     1     -30.292  28.512   4.350  0.00  0.00    -0.001 C 
ATOM     15  C   UNL     1     -31.521  29.791   6.504  0.00  0.00    +0.036 C 
ATOM     16  C   UNL     1     -29.635  28.598   5.578  0.00  0.00    +0.036 C 
ATOM     17  C   UNL     1     -30.249  29.238   6.655  0.00  0.00    +0.134 C 
BRANCH  17  18
ATOM     18  O   UNL     1     -29.608  29.321   7.852  0.00  0.00    -0.506 OA
ATOM     19  H   UNL     1     -28.802  28.862   7.985  0.00  0.00    +0.292 HD
ENDBRANCH  17  18
ENDBRANCH   6  12
BRANCH   7  20
ATOM     20  O   UNL     1     -35.055  28.747   3.613  0.00  0.00    -0.377 OA
ATOM     21  H   UNL     1     -35.202  29.292   2.824  0.00  0.00    +0.211 HD
ENDBRANCH   7  20
BRANCH   8  22
ATOM     22  C   UNL     1     -35.239  25.849   4.943  0.00  0.00    +0.182 C 
BRANCH  22  23
ATOM     23  O   UNL     1     -36.356  26.688   5.234  0.00  0.00    -0.378 OA
ATOM     24  H   UNL     1     -36.084  27.386   5.850  0.00  0.00    +0.211 HD
ENDBRANCH  22  23
BRANCH  22  25
ATOM     25  C   UNL     1     -35.661  24.844   3.878  0.00  0.00    +0.170 C 
BRANCH  25  26
ATOM     26  O   UNL     1     -34.867  23.671   4.006  0.00  0.00    -0.379 OA
ATOM     27  H   UNL     1     -35.396  22.963   4.407  0.00  0.00    +0.211 HD
ENDBRANCH  25  26
ENDBRANCH  22  25
ENDBRANCH   8  22
TORSDOF 7
ENDMDL
MODEL 8
REMARK VINA RESULT:      -5.4      1.781      5.151
REMARK  Name = 21607505
REMARK  7 active torsions:
REMARK  status: ('A' for Active; 'I' for Inactive)
REMARK    1  A    between atoms: C_6  and  C_12
REMARK    2  A    between atoms: C_7  and  O_20
REMARK    3  A    between atoms: C_8  and  C_22
REMARK    4  A    between atoms: C_17  and  O_18
REMARK    5  A    between atoms: C_22  and  O_23
REMARK    6  A    between atoms: C_22  and  C_25
REMARK    7  A    between atoms: C_25  and  O_26
REMARK                            x       y       z     vdW  Elec       q    Type
REMARK                         _______ _______ _______ _____ _____    ______ ____
ROOT
ATOM      1  O   UNL     1     -35.466  21.076   2.414  0.00  0.00    -0.442 OA
ATOM      2  O   UNL     1     -34.735  24.464   2.501  0.00  0.00    -0.445 OA
ATOM      3  O   UNL     1     -34.762  23.155   0.622  0.00  0.00    -0.246 OA
ATOM      4  O   UNL     1     -36.174  19.311   1.131  0.00  0.00    -0.250 OA
ATOM      5  C   UNL     1     -35.905  22.418   2.658  0.00  0.00    +0.255 C 
ATOM      6  C   UNL     1     -37.405  22.377   2.353  0.00  0.00    +0.083 C 
ATOM      7  C   UNL     1     -35.467  22.869   4.044  0.00  0.00    +0.201 C 
ATOM      8  C   UNL     1     -35.214  24.351   3.847  0.00  0.00    +0.229 C 
ATOM      9  C   UNL     1     -37.470  21.357   1.220  0.00  0.00    +0.118 C 
ATOM     10  C   UNL     1     -35.084  23.349   1.784  0.00  0.00    +0.357 C 
ATOM     11  C   UNL     1     -36.332  20.442   1.565  0.00  0.00    +0.318 C 
ENDROOT
BRANCH   6  12
ATOM     12  C   UNL     1     -38.123  23.682   2.100  0.00  0.00    -0.018 C 
ATOM     13  C   UNL     1     -38.707  24.375   3.160  0.00  0.00    -0.001 C 
ATOM     14  C   UNL     1     -38.200  24.194   0.805  0.00  0.00    -0.001 C 
ATOM     15  C   UNL     1     -39.370  25.579   2.926  0.00  0.00    +0.036 C 
ATOM     16  C   UNL     1     -38.864  25.400   0.570  0.00  0.00    +0.036 C 
ATOM     17  C   UNL     1     -39.449  26.092   1.631  0.00  0.00    +0.134 C 
BRANCH  17  18
ATOM     18  O   UNL     1     -40.095  27.267   1.402  0.00  0.00    -0.506 OA
ATOM     19  H   UNL     1     -39.860  27.796   0.665  0.00  0.00    +0.292 HD
ENDBRANCH  17  18
ENDBRANCH   6  12
BRANCH   7  20
ATOM     20  O   UNL     1     -36.433  22.663   5.056  0.00  0.00    -0.377 OA
ATOM     21  H   UNL     1     -36.499  21.715   5.251  0.00  0.00    +0.211 HD
ENDBRANCH   7  20
BRANCH   8  22
ATOM     22  C   UNL     1     -34.173  24.906   4.804  0.00  0.00    +0.182 C 
BRANCH  22  23
ATOM     23  O   UNL     1     -33.115  25.493   4.048  0.00  0.00    -0.378 OA
ATOM     24  H   UNL     1     -32.285  25.424   4.545  0.00  0.00    +0.211 HD
ENDBRANCH  22  23
BRANCH  22  25
ATOM     25  C   UNL     1     -34.764  25.978   5.712  0.00  0.00    +0.170 C 
BRANCH  25  26
ATOM     26  O   UNL     1     -35.696  26.754   4.967  0.00  0.00    -0.379 OA
ATOM     27  H   UNL     1     -35.848  26.338   4.104  0.00  0.00    +0.211 HD
ENDBRANCH  25  26
ENDBRANCH  22  25
ENDBRANCH   8  22
TORSDOF 7
ENDMDL
MODEL 9
REMARK VINA RESULT:      -5.4      2.118      5.271
REMARK  Name = 21607505
REMARK  7 active torsions:
REMARK  status: ('A' for Active; 'I' for Inactive)
REMARK    1  A    between atoms: C_6  and  C_12
REMARK    2  A    between atoms: C_7  and  O_20
REMARK    3  A    between atoms: C_8  and  C_22
REMARK    4  A    between atoms: C_17  and  O_18
REMARK    5  A    between atoms: C_22  and  O_23
REMARK    6  A    between atoms: C_22  and  C_25
REMARK    7  A    between atoms: C_25  and  O_26
REMARK                            x       y       z     vdW  Elec       q    Type
REMARK                         _______ _______ _______ _____ _____    ______ ____
ROOT
ATOM      1  O   UNL     1     -35.442  26.296   5.010  0.00  0.00    -0.442 OA
ATOM      2  O   UNL     1     -37.381  26.143   2.140  0.00  0.00    -0.445 OA
ATOM      3  O   UNL     1     -35.745  27.689   2.561  0.00  0.00    -0.246 OA
ATOM      4  O   UNL     1     -33.484  27.034   5.949  0.00  0.00    -0.250 OA
ATOM      5  C   UNL     1     -35.816  25.591   3.820  0.00  0.00    +0.255 C 
ATOM      6  C   UNL     1     -34.560  24.793   3.454  0.00  0.00    +0.083 C 
ATOM      7  C   UNL     1     -37.111  24.824   4.050  0.00  0.00    +0.201 C 
ATOM      8  C   UNL     1     -37.775  24.879   2.689  0.00  0.00    +0.229 C 
ATOM      9  C   UNL     1     -33.446  25.733   3.906  0.00  0.00    +0.118 C 
ATOM     10  C   UNL     1     -36.269  26.609   2.790  0.00  0.00    +0.357 C 
ATOM     11  C   UNL     1     -34.081  26.422   5.078  0.00  0.00    +0.318 C 
ENDROOT
BRANCH   6  12
ATOM     12  C   UNL     1     -34.435  24.258   2.047  0.00  0.00    -0.018 C 
ATOM     13  C   UNL     1     -34.897  22.978   1.744  0.00  0.00    -0.001 C 
ATOM     14  C   UNL     1     -33.855  25.044   1.052  0.00  0.00    -0.001 C 
ATOM     15  C   UNL     1     -34.780  22.483   0.445  0.00  0.00    +0.036 C 
ATOM     16  C   UNL     1     -33.737  24.550  -0.248  0.00  0.00    +0.036 C 
ATOM     17  C   UNL     1     -34.200  23.269  -0.551  0.00  0.00    +0.134 C 
BRANCH  17  18
ATOM     18  O   UNL     1     -34.086  22.787  -1.819  0.00  0.00    -0.506 OA
ATOM     19  H   UNL     1     -33.249  22.773  -2.241  0.00  0.00    +0.292 HD
ENDBRANCH  17  18
ENDBRANCH   6  12
BRANCH   7  20
ATOM     20  O   UNL     1     -36.929  23.483   4.458  0.00  0.00    -0.377 OA
ATOM     21  H   UNL     1     -37.063  22.893   3.699  0.00  0.00    +0.211 HD
ENDBRANCH   7  20
BRANCH   8  22
ATOM     22  C   UNL     1     -39.291  24.810   2.768  0.00  0.00    +0.182 C 
BRANCH  22  23
ATOM     23  O   UNL     1     -39.677  24.689   4.137  0.00  0.00    -0.378 OA
ATOM     24  H   UNL     1     -39.072  25.207   4.690  0.00  0.00    +0.211 HD
ENDBRANCH  22  23
BRANCH  22  25
ATOM     25  C   UNL     1     -39.938  26.066   2.199  0.00  0.00    +0.170 C 
BRANCH  25  26
ATOM     26  O   UNL     1     -40.371  26.893   3.274  0.00  0.00    -0.379 OA
ATOM     27  H   UNL     1     -39.705  27.577   3.444  0.00  0.00    +0.211 HD
ENDBRANCH  25  26
ENDBRANCH  22  25
ENDBRANCH   8  22
TORSDOF 7
ENDMDL
