MODEL 1
REMARK VINA RESULT:      -6.2      0.000      0.000
REMARK  Name = 189165
REMARK  4 active torsions:
REMARK  status: ('A' for Active; 'I' for Inactive)
REMARK    1  A    between atoms: N_1  and  C_10
REMARK    2  A    between atoms: C_11  and  C_17
REMARK    3  A    between atoms: C_13  and  O_15
REMARK    4  A    between atoms: C_17  and  O_18
REMARK                            x       y       z     vdW  Elec       q    Type
REMARK                         _______ _______ _______ _____ _____    ______ ____
ROOT
ATOM      1  N   UNL     1     -34.483  26.274   4.249  0.00  0.00    -0.273 N 
ATOM      2  N   UNL     1     -33.462  27.467   2.668  0.00  0.00    -0.242 NA
ATOM      3  N   UNL     1     -33.196  26.967   6.189  0.00  0.00    -0.228 NA
ATOM      4  N   UNL     1     -31.459  28.568   5.575  0.00  0.00    -0.229 NA
ATOM      5  C   UNL     1     -33.499  26.978   4.883  0.00  0.00    +0.150 C 
ATOM      6  C   UNL     1     -34.420  26.600   2.921  0.00  0.00    +0.221 C 
ATOM      7  C   UNL     1     -32.878  27.712   3.885  0.00  0.00    +0.140 C 
ATOM      8  C   UNL     1     -31.821  28.530   4.270  0.00  0.00    +0.143 C 
ATOM      9  C   UNL     1     -32.159  27.795   6.441  0.00  0.00    +0.253 C 
ATOM     10  N   UNL     1     -31.135  29.311   3.323  0.00  0.00    -0.342 N 
ATOM     11  H   UNL     1     -30.389  29.887   3.608  0.00  0.00    +0.144 HD
ATOM     12  H   UNL     1     -31.401  29.283   2.376  0.00  0.00    +0.144 HD
ENDROOT
BRANCH   1  13
ATOM     13  C   UNL     1     -35.428  25.345   4.863  0.00  0.00    +0.079 C 
ATOM     14  C   UNL     1     -35.562  23.038   5.597  0.00  0.00    +0.058 C 
ATOM     15  C   UNL     1     -34.756  24.320   5.796  0.00  0.00    +0.025 C 
ATOM     16  C   UNL     1     -35.878  23.073   4.104  0.00  0.00    +0.115 C 
ATOM     17  C   UNL     1     -36.264  24.529   3.858  0.00  0.00    +0.049 C 
BRANCH  16  18
ATOM     18  O   UNL     1     -36.943  22.196   3.787  0.00  0.00    -0.384 OA
ATOM     19  H   UNL     1     -36.911  21.978   2.842  0.00  0.00    +0.210 HD
ENDBRANCH  16  18
BRANCH  14  20
ATOM     20  C   UNL     1     -34.809  21.787   6.022  0.00  0.00    +0.140 C 
BRANCH  20  21
ATOM     21  O   UNL     1     -35.580  20.650   5.672  0.00  0.00    -0.382 OA
ATOM     22  H   UNL     1     -35.892  20.210   6.479  0.00  0.00    +0.210 HD
ENDBRANCH  20  21
ENDBRANCH  14  20
ENDBRANCH   1  13
TORSDOF 4
ENDMDL
MODEL 2
REMARK VINA RESULT:      -5.8      1.324      2.513
REMARK  Name = 189165
REMARK  4 active torsions:
REMARK  status: ('A' for Active; 'I' for Inactive)
REMARK    1  A    between atoms: N_1  and  C_10
REMARK    2  A    between atoms: C_11  and  C_17
REMARK    3  A    between atoms: C_13  and  O_15
REMARK    4  A    between atoms: C_17  and  O_18
REMARK                            x       y       z     vdW  Elec       q    Type
REMARK                         _______ _______ _______ _____ _____    ______ ____
ROOT
ATOM      1  N   UNL     1     -33.647  26.517   5.612  0.00  0.00    -0.273 N 
ATOM      2  N   UNL     1     -31.955  27.905   6.031  0.00  0.00    -0.242 NA
ATOM      3  N   UNL     1     -33.868  26.842   3.215  0.00  0.00    -0.228 NA
ATOM      4  N   UNL     1     -32.232  28.451   2.384  0.00  0.00    -0.229 NA
ATOM      5  C   UNL     1     -33.308  27.073   4.412  0.00  0.00    +0.150 C 
ATOM      6  C   UNL     1     -32.807  27.048   6.554  0.00  0.00    +0.221 C 
ATOM      7  C   UNL     1     -32.257  27.930   4.693  0.00  0.00    +0.140 C 
ATOM      8  C   UNL     1     -31.715  28.634   3.623  0.00  0.00    +0.143 C 
ATOM      9  C   UNL     1     -33.262  27.578   2.259  0.00  0.00    +0.253 C 
ATOM     10  N   UNL     1     -30.644  29.525   3.817  0.00  0.00    -0.342 N 
ATOM     11  H   UNL     1     -30.268  30.017   3.052  0.00  0.00    +0.144 HD
ATOM     12  H   UNL     1     -30.269  29.655   4.718  0.00  0.00    +0.144 HD
ENDROOT
BRANCH   1  13
ATOM     13  C   UNL     1     -34.705  25.541   5.857  0.00  0.00    +0.079 C 
ATOM     14  C   UNL     1     -35.893  23.756   4.722  0.00  0.00    +0.058 C 
ATOM     15  C   UNL     1     -34.488  24.207   5.116  0.00  0.00    +0.025 C 
ATOM     16  C   UNL     1     -36.577  25.074   4.367  0.00  0.00    +0.115 C 
ATOM     17  C   UNL     1     -36.118  26.021   5.473  0.00  0.00    +0.049 C 
BRANCH  16  18
ATOM     18  O   UNL     1     -37.985  24.933   4.359  0.00  0.00    -0.384 OA
ATOM     19  H   UNL     1     -38.373  25.593   3.764  0.00  0.00    +0.210 HD
ENDBRANCH  16  18
BRANCH  14  20
ATOM     20  C   UNL     1     -35.900  22.750   3.582  0.00  0.00    +0.140 C 
BRANCH  20  21
ATOM     21  O   UNL     1     -37.214  22.240   3.433  0.00  0.00    -0.382 OA
ATOM     22  H   UNL     1     -37.390  21.588   4.130  0.00  0.00    +0.210 HD
ENDBRANCH  20  21
ENDBRANCH  14  20
ENDBRANCH   1  13
TORSDOF 4
ENDMDL
MODEL 3
REMARK VINA RESULT:      -5.8      1.926      2.738
REMARK  Name = 189165
REMARK  4 active torsions:
REMARK  status: ('A' for Active; 'I' for Inactive)
REMARK    1  A    between atoms: N_1  and  C_10
REMARK    2  A    between atoms: C_11  and  C_17
REMARK    3  A    between atoms: C_13  and  O_15
REMARK    4  A    between atoms: C_17  and  O_18
REMARK                            x       y       z     vdW  Elec       q    Type
REMARK                         _______ _______ _______ _____ _____    ______ ____
ROOT
ATOM      1  N   UNL     1     -34.977  25.438   2.931  0.00  0.00    -0.273 N 
ATOM      2  N   UNL     1     -36.207  27.233   2.452  0.00  0.00    -0.242 NA
ATOM      3  N   UNL     1     -33.047  26.512   3.940  0.00  0.00    -0.228 NA
ATOM      4  N   UNL     1     -33.303  28.939   3.977  0.00  0.00    -0.229 NA
ATOM      5  C   UNL     1     -34.253  26.515   3.354  0.00  0.00    +0.150 C 
ATOM      6  C   UNL     1     -36.142  25.919   2.396  0.00  0.00    +0.221 C 
ATOM      7  C   UNL     1     -35.034  27.619   3.048  0.00  0.00    +0.140 C 
ATOM      8  C   UNL     1     -34.518  28.867   3.382  0.00  0.00    +0.143 C 
ATOM      9  C   UNL     1     -32.652  27.774   4.216  0.00  0.00    +0.253 C 
ATOM     10  N   UNL     1     -35.243  30.040   3.111  0.00  0.00    -0.342 N 
ATOM     11  H   UNL     1     -34.868  30.918   3.353  0.00  0.00    +0.144 HD
ATOM     12  H   UNL     1     -36.126  29.984   2.680  0.00  0.00    +0.144 HD
ENDROOT
BRANCH   1  13
ATOM     13  C   UNL     1     -34.591  24.033   3.025  0.00  0.00    +0.079 C 
ATOM     14  C   UNL     1     -35.525  21.817   2.703  0.00  0.00    +0.058 C 
ATOM     15  C   UNL     1     -35.280  23.139   1.976  0.00  0.00    +0.025 C 
ATOM     16  C   UNL     1     -35.882  22.275   4.114  0.00  0.00    +0.115 C 
ATOM     17  C   UNL     1     -34.871  23.384   4.394  0.00  0.00    +0.049 C 
BRANCH  16  18
ATOM     18  O   UNL     1     -35.757  21.215   5.043  0.00  0.00    -0.384 OA
ATOM     19  H   UNL     1     -35.945  21.543   5.936  0.00  0.00    +0.210 HD
ENDBRANCH  16  18
BRANCH  14  20
ATOM     20  C   UNL     1     -36.608  20.970   2.054  0.00  0.00    +0.140 C 
BRANCH  20  21
ATOM     21  O   UNL     1     -36.725  19.753   2.772  0.00  0.00    -0.382 OA
ATOM     22  H   UNL     1     -35.932  19.619   3.314  0.00  0.00    +0.210 HD
ENDBRANCH  20  21
ENDBRANCH  14  20
ENDBRANCH   1  13
TORSDOF 4
ENDMDL
MODEL 4
REMARK VINA RESULT:      -5.7      1.502      3.062
REMARK  Name = 189165
REMARK  4 active torsions:
REMARK  status: ('A' for Active; 'I' for Inactive)
REMARK    1  A    between atoms: N_1  and  C_10
REMARK    2  A    between atoms: C_11  and  C_17
REMARK    3  A    between atoms: C_13  and  O_15
REMARK    4  A    between atoms: C_17  and  O_18
REMARK                            x       y       z     vdW  Elec       q    Type
REMARK                         _______ _______ _______ _____ _____    ______ ____
ROOT
ATOM      1  N   UNL     1     -33.858  26.342   4.727  0.00  0.00    -0.273 N 
ATOM      2  N   UNL     1     -33.169  26.974   6.750  0.00  0.00    -0.242 NA
ATOM      3  N   UNL     1     -32.590  27.892   3.352  0.00  0.00    -0.228 NA
ATOM      4  N   UNL     1     -31.207  29.364   4.721  0.00  0.00    -0.229 NA
ATOM      5  C   UNL     1     -32.975  27.364   4.524  0.00  0.00    +0.150 C 
ATOM      6  C   UNL     1     -33.942  26.145   6.080  0.00  0.00    +0.221 C 
ATOM      7  C   UNL     1     -32.559  27.741   5.790  0.00  0.00    +0.140 C 
ATOM      8  C   UNL     1     -31.640  28.783   5.866  0.00  0.00    +0.143 C 
ATOM      9  C   UNL     1     -31.702  28.889   3.552  0.00  0.00    +0.253 C 
ATOM     10  N   UNL     1     -31.161  29.229   7.110  0.00  0.00    -0.342 N 
ATOM     11  H   UNL     1     -30.510  29.967   7.151  0.00  0.00    +0.144 HD
ATOM     12  H   UNL     1     -31.476  28.804   7.940  0.00  0.00    +0.144 HD
ENDROOT
BRANCH   1  13
ATOM     13  C   UNL     1     -34.583  25.595   3.704  0.00  0.00    +0.079 C 
ATOM     14  C   UNL     1     -36.855  25.146   2.982  0.00  0.00    +0.058 C 
ATOM     15  C   UNL     1     -35.877  26.291   3.242  0.00  0.00    +0.025 C 
ATOM     16  C   UNL     1     -36.514  24.159   4.096  0.00  0.00    +0.115 C 
ATOM     17  C   UNL     1     -34.988  24.168   4.122  0.00  0.00    +0.049 C 
BRANCH  16  18
ATOM     18  O   UNL     1     -37.019  22.869   3.808  0.00  0.00    -0.384 OA
ATOM     19  H   UNL     1     -36.654  22.230   4.440  0.00  0.00    +0.210 HD
ENDBRANCH  16  18
BRANCH  14  20
ATOM     20  C   UNL     1     -38.310  25.587   2.995  0.00  0.00    +0.140 C 
BRANCH  20  21
ATOM     21  O   UNL     1     -38.969  24.952   4.078  0.00  0.00    -0.382 OA
ATOM     22  H   UNL     1     -39.673  24.379   3.737  0.00  0.00    +0.210 HD
ENDBRANCH  20  21
ENDBRANCH  14  20
ENDBRANCH   1  13
TORSDOF 4
ENDMDL
MODEL 5
REMARK VINA RESULT:      -5.7      4.896      7.502
REMARK  Name = 189165
REMARK  4 active torsions:
REMARK  status: ('A' for Active; 'I' for Inactive)
REMARK    1  A    between atoms: N_1  and  C_10
REMARK    2  A    between atoms: C_11  and  C_17
REMARK    3  A    between atoms: C_13  and  O_15
REMARK    4  A    between atoms: C_17  and  O_18
REMARK                            x       y       z     vdW  Elec       q    Type
REMARK                         _______ _______ _______ _____ _____    ______ ____
ROOT
ATOM      1  N   UNL     1     -37.912  22.927   2.283  0.00  0.00    -0.273 N 
ATOM      2  N   UNL     1     -40.107  23.103   1.944  0.00  0.00    -0.242 NA
ATOM      3  N   UNL     1     -37.419  21.030   0.850  0.00  0.00    -0.228 NA
ATOM      4  N   UNL     1     -39.433  20.210  -0.258  0.00  0.00    -0.229 NA
ATOM      5  C   UNL     1     -38.239  21.934   1.405  0.00  0.00    +0.150 C 
ATOM      6  C   UNL     1     -39.067  23.602   2.578  0.00  0.00    +0.221 C 
ATOM      7  C   UNL     1     -39.604  22.061   1.207  0.00  0.00    +0.140 C 
ATOM      8  C   UNL     1     -40.201  21.153   0.338  0.00  0.00    +0.143 C 
ATOM      9  C   UNL     1     -38.108  20.207   0.030  0.00  0.00    +0.253 C 
ATOM     10  N   UNL     1     -41.582  21.209   0.077  0.00  0.00    -0.342 N 
ATOM     11  H   UNL     1     -41.992  20.561  -0.540  0.00  0.00    +0.144 HD
ATOM     12  H   UNL     1     -42.137  21.896   0.511  0.00  0.00    +0.144 HD
ENDROOT
BRANCH   1  13
ATOM     13  C   UNL     1     -36.585  23.223   2.815  0.00  0.00    +0.079 C 
ATOM     14  C   UNL     1     -35.279  22.926   4.837  0.00  0.00    +0.058 C 
ATOM     15  C   UNL     1     -36.061  22.145   3.783  0.00  0.00    +0.025 C 
ATOM     16  C   UNL     1     -36.117  24.191   5.003  0.00  0.00    +0.115 C 
ATOM     17  C   UNL     1     -36.483  24.564   3.569  0.00  0.00    +0.049 C 
BRANCH  16  18
ATOM     18  O   UNL     1     -35.372  25.219   5.629  0.00  0.00    -0.384 OA
ATOM     19  H   UNL     1     -34.634  25.479   5.056  0.00  0.00    +0.210 HD
ENDBRANCH  16  18
BRANCH  14  20
ATOM     20  C   UNL     1     -35.092  22.156   6.135  0.00  0.00    +0.140 C 
BRANCH  20  21
ATOM     21  O   UNL     1     -35.375  20.787   5.898  0.00  0.00    -0.382 OA
ATOM     22  H   UNL     1     -36.336  20.655   5.874  0.00  0.00    +0.210 HD
ENDBRANCH  20  21
ENDBRANCH  14  20
ENDBRANCH   1  13
TORSDOF 4
ENDMDL
MODEL 6
REMARK VINA RESULT:      -5.7      3.945      6.639
REMARK  Name = 189165
REMARK  4 active torsions:
REMARK  status: ('A' for Active; 'I' for Inactive)
REMARK    1  A    between atoms: N_1  and  C_10
REMARK    2  A    between atoms: C_11  and  C_17
REMARK    3  A    between atoms: C_13  and  O_15
REMARK    4  A    between atoms: C_17  and  O_18
REMARK                            x       y       z     vdW  Elec       q    Type
REMARK                         _______ _______ _______ _____ _____    ______ ____
ROOT
ATOM      1  N   UNL     1     -36.360  24.525   3.659  0.00  0.00    -0.273 N 
ATOM      2  N   UNL     1     -36.318  22.356   3.147  0.00  0.00    -0.242 NA
ATOM      3  N   UNL     1     -38.653  25.050   3.056  0.00  0.00    -0.228 NA
ATOM      4  N   UNL     1     -39.820  23.082   2.209  0.00  0.00    -0.229 NA
ATOM      5  C   UNL     1     -37.606  24.223   3.189  0.00  0.00    +0.150 C 
ATOM      6  C   UNL     1     -35.622  23.372   3.614  0.00  0.00    +0.221 C 
ATOM      7  C   UNL     1     -37.559  22.874   2.878  0.00  0.00    +0.140 C 
ATOM      8  C   UNL     1     -38.723  22.304   2.370  0.00  0.00    +0.143 C 
ATOM      9  C   UNL     1     -39.719  24.388   2.556  0.00  0.00    +0.253 C 
ATOM     10  N   UNL     1     -38.766  20.941   2.030  0.00  0.00    -0.342 N 
ATOM     11  H   UNL     1     -39.595  20.549   1.672  0.00  0.00    +0.144 HD
ATOM     12  H   UNL     1     -37.967  20.378   2.150  0.00  0.00    +0.144 HD
ENDROOT
BRANCH   1  13
ATOM     13  C   UNL     1     -35.891  25.828   4.122  0.00  0.00    +0.079 C 
ATOM     14  C   UNL     1     -33.871  27.169   4.179  0.00  0.00    +0.058 C 
ATOM     15  C   UNL     1     -34.809  26.445   3.216  0.00  0.00    +0.025 C 
ATOM     16  C   UNL     1     -33.845  26.233   5.385  0.00  0.00    +0.115 C 
ATOM     17  C   UNL     1     -35.307  25.825   5.549  0.00  0.00    +0.049 C 
BRANCH  16  18
ATOM     18  O   UNL     1     -33.361  26.896   6.537  0.00  0.00    -0.384 OA
ATOM     19  H   UNL     1     -33.572  26.371   7.325  0.00  0.00    +0.210 HD
ENDBRANCH  16  18
BRANCH  14  20
ATOM     20  C   UNL     1     -32.494  27.429   3.591  0.00  0.00    +0.140 C 
BRANCH  20  21
ATOM     21  O   UNL     1     -31.587  27.685   4.650  0.00  0.00    -0.382 OA
ATOM     22  H   UNL     1     -30.691  27.791   4.291  0.00  0.00    +0.210 HD
ENDBRANCH  20  21
ENDBRANCH  14  20
ENDBRANCH   1  13
TORSDOF 4
ENDMDL
MODEL 7
REMARK VINA RESULT:      -5.7      1.390      1.595
REMARK  Name = 189165
REMARK  4 active torsions:
REMARK  status: ('A' for Active; 'I' for Inactive)
REMARK    1  A    between atoms: N_1  and  C_10
REMARK    2  A    between atoms: C_11  and  C_17
REMARK    3  A    between atoms: C_13  and  O_15
REMARK    4  A    between atoms: C_17  and  O_18
REMARK                            x       y       z     vdW  Elec       q    Type
REMARK                         _______ _______ _______ _____ _____    ______ ____
ROOT
ATOM      1  N   UNL     1     -34.934  25.567   4.013  0.00  0.00    -0.273 N 
ATOM      2  N   UNL     1     -34.146  27.204   2.723  0.00  0.00    -0.242 NA
ATOM      3  N   UNL     1     -33.778  26.077   6.087  0.00  0.00    -0.228 NA
ATOM      4  N   UNL     1     -32.351  28.042   5.846  0.00  0.00    -0.229 NA
ATOM      5  C   UNL     1     -34.086  26.292   4.799  0.00  0.00    +0.150 C 
ATOM      6  C   UNL     1     -34.937  26.152   2.775  0.00  0.00    +0.221 C 
ATOM      7  C   UNL     1     -33.608  27.302   3.982  0.00  0.00    +0.140 C 
ATOM      8  C   UNL     1     -32.708  28.199   4.549  0.00  0.00    +0.143 C 
ATOM      9  C   UNL     1     -32.901  27.005   6.525  0.00  0.00    +0.253 C 
ATOM     10  N   UNL     1     -32.174  29.257   3.792  0.00  0.00    -0.342 N 
ATOM     11  H   UNL     1     -31.539  29.886   4.205  0.00  0.00    +0.144 HD
ATOM     12  H   UNL     1     -32.436  29.369   2.850  0.00  0.00    +0.144 HD
ENDROOT
BRANCH   1  13
ATOM     13  C   UNL     1     -35.699  24.387   4.407  0.00  0.00    +0.079 C 
ATOM     14  C   UNL     1     -36.045  22.081   3.737  0.00  0.00    +0.058 C 
ATOM     15  C   UNL     1     -34.952  23.063   4.155  0.00  0.00    +0.025 C 
ATOM     16  C   UNL     1     -36.976  22.956   2.901  0.00  0.00    +0.115 C 
ATOM     17  C   UNL     1     -37.065  24.249   3.707  0.00  0.00    +0.049 C 
BRANCH  16  18
ATOM     18  O   UNL     1     -38.246  22.351   2.750  0.00  0.00    -0.384 OA
ATOM     19  H   UNL     1     -38.134  21.418   2.510  0.00  0.00    +0.210 HD
ENDBRANCH  16  18
BRANCH  14  20
ATOM     20  C   UNL     1     -35.509  20.878   2.978  0.00  0.00    +0.140 C 
BRANCH  20  21
ATOM     21  O   UNL     1     -36.566  19.955   2.782  0.00  0.00    -0.382 OA
ATOM     22  H   UNL     1     -36.379  19.139   3.272  0.00  0.00    +0.210 HD
ENDBRANCH  20  21
ENDBRANCH  14  20
ENDBRANCH   1  13
TORSDOF 4
ENDMDL
MODEL 8
REMARK VINA RESULT:      -5.5      2.874      4.021
REMARK  Name = 189165
REMARK  4 active torsions:
REMARK  status: ('A' for Active; 'I' for Inactive)
REMARK    1  A    between atoms: N_1  and  C_10
REMARK    2  A    between atoms: C_11  and  C_17
REMARK    3  A    between atoms: C_13  and  O_15
REMARK    4  A    between atoms: C_17  and  O_18
REMARK                            x       y       z     vdW  Elec       q    Type
REMARK                         _______ _______ _______ _____ _____    ______ ____
ROOT
ATOM      1  N   UNL     1     -36.785  24.144   2.891  0.00  0.00    -0.273 N 
ATOM      2  N   UNL     1     -36.435  26.161   2.011  0.00  0.00    -0.242 NA
ATOM      3  N   UNL     1     -35.604  24.398   4.998  0.00  0.00    -0.228 NA
ATOM      4  N   UNL     1     -34.618  26.621   5.199  0.00  0.00    -0.229 NA
ATOM      5  C   UNL     1     -36.042  24.832   3.807  0.00  0.00    +0.150 C 
ATOM      6  C   UNL     1     -36.995  24.983   1.830  0.00  0.00    +0.221 C 
ATOM      7  C   UNL     1     -35.836  26.080   3.243  0.00  0.00    +0.140 C 
ATOM      8  C   UNL     1     -35.093  26.992   3.986  0.00  0.00    +0.143 C 
ATOM      9  C   UNL     1     -34.899  25.365   5.624  0.00  0.00    +0.253 C 
ATOM     10  N   UNL     1     -34.837  28.283   3.491  0.00  0.00    -0.342 N 
ATOM     11  H   UNL     1     -34.311  28.920   4.027  0.00  0.00    +0.144 HD
ATOM     12  H   UNL     1     -35.185  28.550   2.610  0.00  0.00    +0.144 HD
ENDROOT
BRANCH   1  13
ATOM     13  C   UNL     1     -37.269  22.772   3.010  0.00  0.00    +0.079 C 
ATOM     14  C   UNL     1     -37.115  20.636   1.870  0.00  0.00    +0.058 C 
ATOM     15  C   UNL     1     -36.256  21.722   2.514  0.00  0.00    +0.025 C 
ATOM     16  C   UNL     1     -38.226  21.443   1.203  0.00  0.00    +0.115 C 
ATOM     17  C   UNL     1     -38.583  22.490   2.255  0.00  0.00    +0.049 C 
BRANCH  16  18
ATOM     18  O   UNL     1     -39.337  20.623   0.892  0.00  0.00    -0.384 OA
ATOM     19  H   UNL     1     -40.096  21.181   0.663  0.00  0.00    +0.210 HD
ENDBRANCH  16  18
BRANCH  14  20
ATOM     20  C   UNL     1     -36.341  19.761   0.896  0.00  0.00    +0.140 C 
BRANCH  20  21
ATOM     21  O   UNL     1     -37.024  18.527   0.752  0.00  0.00    -0.382 OA
ATOM     22  H   UNL     1     -36.681  18.056  -0.024  0.00  0.00    +0.210 HD
ENDBRANCH  20  21
ENDBRANCH  14  20
ENDBRANCH   1  13
TORSDOF 4
ENDMDL
MODEL 9
REMARK VINA RESULT:      -5.5      2.379      3.992
REMARK  Name = 189165
REMARK  4 active torsions:
REMARK  status: ('A' for Active; 'I' for Inactive)
REMARK    1  A    between atoms: N_1  and  C_10
REMARK    2  A    between atoms: C_11  and  C_17
REMARK    3  A    between atoms: C_13  and  O_15
REMARK    4  A    between atoms: C_17  and  O_18
REMARK                            x       y       z     vdW  Elec       q    Type
REMARK                         _______ _______ _______ _____ _____    ______ ____
ROOT
ATOM      1  N   UNL     1     -35.578  24.096   3.471  0.00  0.00    -0.273 N 
ATOM      2  N   UNL     1     -34.825  24.228   5.564  0.00  0.00    -0.242 NA
ATOM      3  N   UNL     1     -34.872  26.264   2.636  0.00  0.00    -0.228 NA
ATOM      4  N   UNL     1     -33.718  27.546   4.362  0.00  0.00    -0.229 NA
ATOM      5  C   UNL     1     -34.986  25.321   3.583  0.00  0.00    +0.150 C 
ATOM      6  C   UNL     1     -35.457  23.477   4.687  0.00  0.00    +0.221 C 
ATOM      7  C   UNL     1     -34.525  25.383   4.888  0.00  0.00    +0.140 C 
ATOM      8  C   UNL     1     -33.869  26.550   5.268  0.00  0.00    +0.143 C 
ATOM      9  C   UNL     1     -34.221  27.344   3.120  0.00  0.00    +0.253 C 
ATOM     10  N   UNL     1     -33.366  26.698   6.573  0.00  0.00    -0.342 N 
ATOM     11  H   UNL     1     -32.904  27.528   6.831  0.00  0.00    +0.144 HD
ATOM     12  H   UNL     1     -33.477  25.972   7.229  0.00  0.00    +0.144 HD
ENDROOT
BRANCH   1  13
ATOM     13  C   UNL     1     -36.224  23.540   2.285  0.00  0.00    +0.079 C 
ATOM     14  C   UNL     1     -38.333  22.559   1.598  0.00  0.00    +0.058 C 
ATOM     15  C   UNL     1     -37.738  23.817   2.229  0.00  0.00    +0.025 C 
ATOM     16  C   UNL     1     -37.474  21.449   2.198  0.00  0.00    +0.115 C 
ATOM     17  C   UNL     1     -36.059  22.016   2.123  0.00  0.00    +0.049 C 
BRANCH  16  18
ATOM     18  O   UNL     1     -37.591  20.252   1.452  0.00  0.00    -0.384 OA
ATOM     19  H   UNL     1     -38.155  20.408   0.678  0.00  0.00    +0.210 HD
ENDBRANCH  16  18
BRANCH  14  20
ATOM     20  C   UNL     1     -39.817  22.391   1.885  0.00  0.00    +0.140 C 
BRANCH  20  21
ATOM     21  O   UNL     1     -40.076  21.025   2.161  0.00  0.00    -0.382 OA
ATOM     22  H   UNL     1     -39.400  20.684   2.769  0.00  0.00    +0.210 HD
ENDBRANCH  20  21
ENDBRANCH  14  20
ENDBRANCH   1  13
TORSDOF 4
ENDMDL
