MODEL 1
REMARK VINA RESULT:      -7.1      0.000      0.000
REMARK  Name = 196806
REMARK  5 active torsions:
REMARK  status: ('A' for Active; 'I' for Inactive)
REMARK    1  A    between atoms: N_2  and  N_5
REMARK    2  A    between atoms: C_3  and  C_18
REMARK    3  A    between atoms: C_13  and  O_15
REMARK    4  A    between atoms: C_20  and  S_24
REMARK    5  A    between atoms: S_24  and  N_27
REMARK                            x       y       z     vdW  Elec       q    Type
REMARK                         _______ _______ _______ _____ _____    ______ ____
ROOT
ATOM      1  O   UNL     1     -33.870  26.163   2.570  0.00  0.00    -0.269 OA
ATOM      2  N   UNL     1     -35.506  26.868   4.049  0.00  0.00    -0.229 N 
ATOM      3  C   UNL     1     -34.296  26.970   3.392  0.00  0.00    +0.262 C 
ATOM      4  H   UNL     1     -35.791  27.552   4.698  0.00  0.00    +0.173 HD
ENDROOT
BRANCH   2   5
ATOM      5  N   UNL     1     -36.297  25.789   3.769  0.00  0.00    -0.240 N 
ATOM      6  C   UNL     1     -36.696  25.515   2.383  0.00  0.00    +0.097 C 
ATOM      7  C   UNL     1     -37.058  24.007   2.328  0.00  0.00    +0.049 C 
ATOM      8  C   UNL     1     -36.354  23.484   3.539  0.00  0.00    -0.003 C 
ATOM      9  C   UNL     1     -35.938  24.555   4.340  0.00  0.00    +0.061 C 
ATOM     10  C   UNL     1     -37.865  26.399   1.973  0.00  0.00    +0.024 C 
ATOM     11  C   UNL     1     -36.128  22.169   3.906  0.00  0.00    +0.034 C 
ATOM     12  C   UNL     1     -35.276  24.316   5.536  0.00  0.00    +0.019 C 
ATOM     13  C   UNL     1     -35.459  21.926   5.105  0.00  0.00    +0.133 C 
ATOM     14  C   UNL     1     -35.035  22.992   5.914  0.00  0.00    +0.038 C 
BRANCH  13  15
ATOM     15  O   UNL     1     -35.216  20.645   5.498  0.00  0.00    -0.506 OA
ATOM     16  H   UNL     1     -35.448  19.931   4.937  0.00  0.00    +0.292 HD
ENDBRANCH  13  15
ENDBRANCH   2   5
BRANCH   3  18
ATOM     17 CL   UNL     1     -31.066  31.829   4.656  0.00  0.00    -0.081 Cl
ATOM     18  C   UNL     1     -33.486  28.173   3.718  0.00  0.00    +0.056 C 
ATOM     19  C   UNL     1     -32.565  28.098   4.741  0.00  0.00    +0.025 C 
ATOM     20  C   UNL     1     -31.805  29.226   5.046  0.00  0.00    +0.132 C 
ATOM     21  C   UNL     1     -33.682  29.324   2.985  0.00  0.00    +0.006 C 
ATOM     22  C   UNL     1     -31.982  30.405   4.320  0.00  0.00    +0.076 C 
ATOM     23  C   UNL     1     -32.921  30.453   3.290  0.00  0.00    +0.013 C 
BRANCH  20  24
ATOM     24  S   UNL     1     -30.640  29.106   6.351  0.00  0.00    +0.058 S 
ATOM     25  O   UNL     1     -29.322  29.395   5.808  0.00  0.00    -0.153 OA
ATOM     26  O   UNL     1     -31.143  29.868   7.483  0.00  0.00    -0.153 OA
BRANCH  24  27
ATOM     27  N   UNL     1     -30.740  27.442   6.716  0.00  0.00    -0.203 NA
ATOM     28  H   UNL     1     -29.944  26.955   6.304  0.00  0.00    +0.144 HD
ATOM     29  H   UNL     1     -31.605  27.061   6.332  0.00  0.00    +0.144 HD
ENDBRANCH  24  27
ENDBRANCH  20  24
ENDBRANCH   3  18
TORSDOF 5
ENDMDL
MODEL 2
REMARK VINA RESULT:      -6.9      5.951      8.210
REMARK  Name = 196806
REMARK  5 active torsions:
REMARK  status: ('A' for Active; 'I' for Inactive)
REMARK    1  A    between atoms: N_2  and  N_5
REMARK    2  A    between atoms: C_3  and  C_18
REMARK    3  A    between atoms: C_13  and  O_15
REMARK    4  A    between atoms: C_20  and  S_24
REMARK    5  A    between atoms: S_24  and  N_27
REMARK                            x       y       z     vdW  Elec       q    Type
REMARK                         _______ _______ _______ _____ _____    ______ ____
ROOT
ATOM      1  O   UNL     1     -38.340  25.826   1.557  0.00  0.00    -0.269 OA
ATOM      2  N   UNL     1     -38.677  24.728   3.568  0.00  0.00    -0.229 N 
ATOM      3  C   UNL     1     -39.080  25.449   2.462  0.00  0.00    +0.262 C 
ATOM      4  H   UNL     1     -39.323  24.455   4.259  0.00  0.00    +0.173 HD
ENDROOT
BRANCH   2   5
ATOM      5  N   UNL     1     -37.353  24.403   3.671  0.00  0.00    -0.240 N 
ATOM      6  C   UNL     1     -36.648  24.610   4.942  0.00  0.00    +0.097 C 
ATOM      7  C   UNL     1     -35.422  23.658   4.915  0.00  0.00    +0.049 C 
ATOM      8  C   UNL     1     -35.835  22.664   3.877  0.00  0.00    -0.003 C 
ATOM      9  C   UNL     1     -36.953  23.145   3.184  0.00  0.00    +0.061 C 
ATOM     10  C   UNL     1     -36.237  26.066   5.100  0.00  0.00    +0.024 C 
ATOM     11  C   UNL     1     -35.248  21.451   3.561  0.00  0.00    +0.034 C 
ATOM     12  C   UNL     1     -37.510  22.401   2.154  0.00  0.00    +0.019 C 
ATOM     13  C   UNL     1     -35.808  20.699   2.528  0.00  0.00    +0.133 C 
ATOM     14  C   UNL     1     -36.931  21.170   1.830  0.00  0.00    +0.038 C 
BRANCH  13  15
ATOM     15  O   UNL     1     -35.260  19.499   2.191  0.00  0.00    -0.506 OA
ATOM     16  H   UNL     1     -34.332  19.419   2.089  0.00  0.00    +0.292 HD
ENDBRANCH  13  15
ENDBRANCH   2   5
BRANCH   3  18
ATOM     17 CL   UNL     1     -44.920  26.644   2.126  0.00  0.00    -0.081 Cl
ATOM     18  C   UNL     1     -40.533  25.757   2.388  0.00  0.00    +0.056 C 
ATOM     19  C   UNL     1     -41.037  26.779   3.165  0.00  0.00    +0.025 C 
ATOM     20  C   UNL     1     -42.400  27.067   3.095  0.00  0.00    +0.132 C 
ATOM     21  C   UNL     1     -41.328  25.009   1.545  0.00  0.00    +0.006 C 
ATOM     22  C   UNL     1     -43.228  26.326   2.250  0.00  0.00    +0.076 C 
ATOM     23  C   UNL     1     -42.692  25.298   1.475  0.00  0.00    +0.013 C 
BRANCH  20  24
ATOM     24  S   UNL     1     -43.017  28.370   4.091  0.00  0.00    +0.058 S 
ATOM     25  O   UNL     1     -44.229  27.904   4.747  0.00  0.00    -0.153 OA
ATOM     26  O   UNL     1     -41.918  28.900   4.883  0.00  0.00    -0.153 OA
BRANCH  24  27
ATOM     27  N   UNL     1     -43.438  29.514   2.894  0.00  0.00    -0.203 NA
ATOM     28  H   UNL     1     -42.643  30.129   2.718  0.00  0.00    +0.144 HD
ATOM     29  H   UNL     1     -44.230  30.068   3.217  0.00  0.00    +0.144 HD
ENDBRANCH  24  27
ENDBRANCH  20  24
ENDBRANCH   3  18
TORSDOF 5
ENDMDL
MODEL 3
REMARK VINA RESULT:      -6.9      6.457      9.715
REMARK  Name = 196806
REMARK  5 active torsions:
REMARK  status: ('A' for Active; 'I' for Inactive)
REMARK    1  A    between atoms: N_2  and  N_5
REMARK    2  A    between atoms: C_3  and  C_18
REMARK    3  A    between atoms: C_13  and  O_15
REMARK    4  A    between atoms: C_20  and  S_24
REMARK    5  A    between atoms: S_24  and  N_27
REMARK                            x       y       z     vdW  Elec       q    Type
REMARK                         _______ _______ _______ _____ _____    ______ ____
ROOT
ATOM      1  O   UNL     1     -34.708  22.269   1.880  0.00  0.00    -0.269 OA
ATOM      2  N   UNL     1     -36.134  21.140   3.314  0.00  0.00    -0.229 N 
ATOM      3  C   UNL     1     -35.303  21.248   2.217  0.00  0.00    +0.262 C 
ATOM      4  H   UNL     1     -36.582  20.290   3.529  0.00  0.00    +0.173 HD
ENDROOT
BRANCH   2   5
ATOM      5  N   UNL     1     -36.313  22.249   4.093  0.00  0.00    -0.240 N 
ATOM      6  C   UNL     1     -35.190  22.782   4.874  0.00  0.00    +0.097 C 
ATOM      7  C   UNL     1     -35.527  24.271   5.153  0.00  0.00    +0.049 C 
ATOM      8  C   UNL     1     -36.540  24.555   4.091  0.00  0.00    -0.003 C 
ATOM      9  C   UNL     1     -36.964  23.352   3.513  0.00  0.00    +0.061 C 
ATOM     10  C   UNL     1     -35.000  21.988   6.159  0.00  0.00    +0.024 C 
ATOM     11  C   UNL     1     -37.057  25.776   3.694  0.00  0.00    +0.034 C 
ATOM     12  C   UNL     1     -37.923  23.359   2.509  0.00  0.00    +0.019 C 
ATOM     13  C   UNL     1     -38.018  25.787   2.683  0.00  0.00    +0.133 C 
ATOM     14  C   UNL     1     -38.447  24.588   2.095  0.00  0.00    +0.038 C 
BRANCH  13  15
ATOM     15  O   UNL     1     -38.546  26.970   2.265  0.00  0.00    -0.506 OA
ATOM     16  H   UNL     1     -38.435  27.245   1.376  0.00  0.00    +0.292 HD
ENDBRANCH  13  15
ENDBRANCH   2   5
BRANCH   3  18
ATOM     17 CL   UNL     1     -34.541  16.267  -0.985  0.00  0.00    -0.081 Cl
ATOM     18  C   UNL     1     -35.127  20.007   1.417  0.00  0.00    +0.056 C 
ATOM     19  C   UNL     1     -36.222  19.468   0.775  0.00  0.00    +0.025 C 
ATOM     20  C   UNL     1     -36.057  18.305   0.025  0.00  0.00    +0.132 C 
ATOM     21  C   UNL     1     -33.874  19.437   1.343  0.00  0.00    +0.006 C 
ATOM     22  C   UNL     1     -34.799  17.707  -0.068  0.00  0.00    +0.076 C 
ATOM     23  C   UNL     1     -33.708  18.273   0.591  0.00  0.00    +0.013 C 
BRANCH  20  24
ATOM     24  S   UNL     1     -37.463  17.638  -0.782  0.00  0.00    +0.058 S 
ATOM     25  O   UNL     1     -37.220  17.672  -2.216  0.00  0.00    -0.153 OA
ATOM     26  O   UNL     1     -37.811  16.384  -0.132  0.00  0.00    -0.153 OA
BRANCH  24  27
ATOM     27  N   UNL     1     -38.641  18.810  -0.389  0.00  0.00    -0.203 NA
ATOM     28  H   UNL     1     -39.440  18.713  -1.016  0.00  0.00    +0.144 HD
ATOM     29  H   UNL     1     -38.241  19.742  -0.492  0.00  0.00    +0.144 HD
ENDBRANCH  24  27
ENDBRANCH  20  24
ENDBRANCH   3  18
TORSDOF 5
ENDMDL
MODEL 4
REMARK VINA RESULT:      -6.7      6.138      8.300
REMARK  Name = 196806
REMARK  5 active torsions:
REMARK  status: ('A' for Active; 'I' for Inactive)
REMARK    1  A    between atoms: N_2  and  N_5
REMARK    2  A    between atoms: C_3  and  C_18
REMARK    3  A    between atoms: C_13  and  O_15
REMARK    4  A    between atoms: C_20  and  S_24
REMARK    5  A    between atoms: S_24  and  N_27
REMARK                            x       y       z     vdW  Elec       q    Type
REMARK                         _______ _______ _______ _____ _____    ______ ____
ROOT
ATOM      1  O   UNL     1     -34.654  21.866  -0.391  0.00  0.00    -0.269 OA
ATOM      2  N   UNL     1     -35.149  21.340   1.809  0.00  0.00    -0.229 N 
ATOM      3  C   UNL     1     -34.436  21.223   0.633  0.00  0.00    +0.262 C 
ATOM      4  H   UNL     1     -34.922  20.793   2.597  0.00  0.00    +0.173 HD
ENDROOT
BRANCH   2   5
ATOM      5  N   UNL     1     -36.179  22.238   1.847  0.00  0.00    -0.240 N 
ATOM      6  C   UNL     1     -37.561  21.760   1.971  0.00  0.00    +0.097 C 
ATOM      7  C   UNL     1     -38.378  22.947   2.549  0.00  0.00    +0.049 C 
ATOM      8  C   UNL     1     -37.300  23.787   3.155  0.00  0.00    -0.003 C 
ATOM      9  C   UNL     1     -36.049  23.337   2.715  0.00  0.00    +0.061 C 
ATOM     10  C   UNL     1     -38.096  21.300   0.623  0.00  0.00    +0.024 C 
ATOM     11  C   UNL     1     -37.427  24.873   4.005  0.00  0.00    +0.034 C 
ATOM     12  C   UNL     1     -34.891  23.978   3.131  0.00  0.00    +0.019 C 
ATOM     13  C   UNL     1     -36.264  25.516   4.428  0.00  0.00    +0.133 C 
ATOM     14  C   UNL     1     -35.005  25.072   3.995  0.00  0.00    +0.038 C 
BRANCH  13  15
ATOM     15  O   UNL     1     -36.349  26.586   5.267  0.00  0.00    -0.506 OA
ATOM     16  H   UNL     1     -35.670  27.232   5.272  0.00  0.00    +0.292 HD
ENDBRANCH  13  15
ENDBRANCH   2   5
BRANCH   3  18
ATOM     17 CL   UNL     1     -29.963  17.271   0.753  0.00  0.00    -0.081 Cl
ATOM     18  C   UNL     1     -33.314  20.247   0.654  0.00  0.00    +0.056 C 
ATOM     19  C   UNL     1     -32.151  20.556  -0.019  0.00  0.00    +0.025 C 
ATOM     20  C   UNL     1     -31.099  19.641   0.002  0.00  0.00    +0.132 C 
ATOM     21  C   UNL     1     -33.476  19.066   1.346  0.00  0.00    +0.006 C 
ATOM     22  C   UNL     1     -31.235  18.437   0.695  0.00  0.00    +0.076 C 
ATOM     23  C   UNL     1     -32.423  18.150   1.367  0.00  0.00    +0.013 C 
BRANCH  20  24
ATOM     24  S   UNL     1     -29.630  20.055  -0.859  0.00  0.00    +0.058 S 
ATOM     25  O   UNL     1     -28.501  19.790   0.018  0.00  0.00    -0.153 OA
ATOM     26  O   UNL     1     -29.686  19.444  -2.178  0.00  0.00    -0.153 OA
BRANCH  24  27
ATOM     27  N   UNL     1     -29.822  21.743  -1.024  0.00  0.00    -0.203 NA
ATOM     28  H   UNL     1     -29.805  21.993  -2.013  0.00  0.00    +0.144 HD
ATOM     29  H   UNL     1     -29.062  22.221  -0.541  0.00  0.00    +0.144 HD
ENDBRANCH  24  27
ENDBRANCH  20  24
ENDBRANCH   3  18
TORSDOF 5
ENDMDL
MODEL 5
REMARK VINA RESULT:      -6.7      2.171      2.766
REMARK  Name = 196806
REMARK  5 active torsions:
REMARK  status: ('A' for Active; 'I' for Inactive)
REMARK    1  A    between atoms: N_2  and  N_5
REMARK    2  A    between atoms: C_3  and  C_18
REMARK    3  A    between atoms: C_13  and  O_15
REMARK    4  A    between atoms: C_20  and  S_24
REMARK    5  A    between atoms: S_24  and  N_27
REMARK                            x       y       z     vdW  Elec       q    Type
REMARK                         _______ _______ _______ _____ _____    ______ ____
ROOT
ATOM      1  O   UNL     1     -35.765  25.008   5.080  0.00  0.00    -0.269 OA
ATOM      2  N   UNL     1     -36.019  24.933   2.779  0.00  0.00    -0.229 N 
ATOM      3  C   UNL     1     -35.443  25.377   3.953  0.00  0.00    +0.262 C 
ATOM      4  H   UNL     1     -35.714  25.270   1.905  0.00  0.00    +0.173 HD
ENDROOT
BRANCH   2   5
ATOM      5  N   UNL     1     -37.024  24.011   2.867  0.00  0.00    -0.240 N 
ATOM      6  C   UNL     1     -38.358  24.332   2.345  0.00  0.00    +0.097 C 
ATOM      7  C   UNL     1     -39.053  22.971   2.071  0.00  0.00    +0.049 C 
ATOM      8  C   UNL     1     -37.881  22.046   1.988  0.00  0.00    -0.003 C 
ATOM      9  C   UNL     1     -36.735  22.695   2.464  0.00  0.00    +0.061 C 
ATOM     10  C   UNL     1     -39.137  25.182   3.338  0.00  0.00    +0.024 C 
ATOM     11  C   UNL     1     -37.847  20.733   1.552  0.00  0.00    +0.034 C 
ATOM     12  C   UNL     1     -35.520  22.027   2.503  0.00  0.00    +0.019 C 
ATOM     13  C   UNL     1     -36.626  20.060   1.586  0.00  0.00    +0.133 C 
ATOM     14  C   UNL     1     -35.470  20.702   2.058  0.00  0.00    +0.038 C 
BRANCH  13  15
ATOM     15  O   UNL     1     -36.553  18.768   1.161  0.00  0.00    -0.506 OA
ATOM     16  H   UNL     1     -36.404  18.079   1.779  0.00  0.00    +0.292 HD
ENDBRANCH  13  15
ENDBRANCH   2   5
BRANCH   3  18
ATOM     17 CL   UNL     1     -31.024  29.333   3.271  0.00  0.00    -0.081 Cl
ATOM     18  C   UNL     1     -34.341  26.363   3.798  0.00  0.00    +0.056 C 
ATOM     19  C   UNL     1     -33.667  26.790   4.922  0.00  0.00    +0.025 C 
ATOM     20  C   UNL     1     -32.634  27.715   4.776  0.00  0.00    +0.132 C 
ATOM     21  C   UNL     1     -34.030  26.816   2.533  0.00  0.00    +0.006 C 
ATOM     22  C   UNL     1     -32.297  28.190   3.507  0.00  0.00    +0.076 C 
ATOM     23  C   UNL     1     -32.995  27.740   2.387  0.00  0.00    +0.013 C 
BRANCH  20  24
ATOM     24  S   UNL     1     -31.791  28.243   6.219  0.00  0.00    +0.058 S 
ATOM     25  O   UNL     1     -30.403  27.821   6.113  0.00  0.00    -0.153 OA
ATOM     26  O   UNL     1     -32.110  29.644   6.447  0.00  0.00    -0.153 OA
BRANCH  24  27
ATOM     27  N   UNL     1     -32.571  27.298   7.407  0.00  0.00    -0.203 NA
ATOM     28  H   UNL     1     -32.013  27.298   8.262  0.00  0.00    +0.144 HD
ATOM     29  H   UNL     1     -32.673  26.342   7.069  0.00  0.00    +0.144 HD
ENDBRANCH  24  27
ENDBRANCH  20  24
ENDBRANCH   3  18
TORSDOF 5
ENDMDL
MODEL 6
REMARK VINA RESULT:      -6.7      6.355      9.236
REMARK  Name = 196806
REMARK  5 active torsions:
REMARK  status: ('A' for Active; 'I' for Inactive)
REMARK    1  A    between atoms: N_2  and  N_5
REMARK    2  A    between atoms: C_3  and  C_18
REMARK    3  A    between atoms: C_13  and  O_15
REMARK    4  A    between atoms: C_20  and  S_24
REMARK    5  A    between atoms: S_24  and  N_27
REMARK                            x       y       z     vdW  Elec       q    Type
REMARK                         _______ _______ _______ _____ _____    ______ ____
ROOT
ATOM      1  O   UNL     1     -34.638  22.143   1.865  0.00  0.00    -0.269 OA
ATOM      2  N   UNL     1     -36.156  21.014   3.202  0.00  0.00    -0.229 N 
ATOM      3  C   UNL     1     -35.283  21.134   2.139  0.00  0.00    +0.262 C 
ATOM      4  H   UNL     1     -36.644  20.175   3.367  0.00  0.00    +0.173 HD
ENDROOT
BRANCH   2   5
ATOM      5  N   UNL     1     -36.319  22.097   4.020  0.00  0.00    -0.240 N 
ATOM      6  C   UNL     1     -35.181  22.606   4.795  0.00  0.00    +0.097 C 
ATOM      7  C   UNL     1     -35.513  24.085   5.129  0.00  0.00    +0.049 C 
ATOM      8  C   UNL     1     -36.548  24.402   4.097  0.00  0.00    -0.003 C 
ATOM      9  C   UNL     1     -36.983  23.218   3.489  0.00  0.00    +0.061 C 
ATOM     10  C   UNL     1     -34.965  21.772   6.049  0.00  0.00    +0.024 C 
ATOM     11  C   UNL     1     -37.072  25.635   3.751  0.00  0.00    +0.034 C 
ATOM     12  C   UNL     1     -37.962  23.257   2.506  0.00  0.00    +0.019 C 
ATOM     13  C   UNL     1     -38.054  25.677   2.760  0.00  0.00    +0.133 C 
ATOM     14  C   UNL     1     -38.495  24.497   2.142  0.00  0.00    +0.038 C 
BRANCH  13  15
ATOM     15  O   UNL     1     -38.591  26.873   2.391  0.00  0.00    -0.506 OA
ATOM     16  H   UNL     1     -39.499  27.046   2.544  0.00  0.00    +0.292 HD
ENDBRANCH  13  15
ENDBRANCH   2   5
BRANCH   3  18
ATOM     17 CL   UNL     1     -34.715  16.263  -1.267  0.00  0.00    -0.081 Cl
ATOM     18  C   UNL     1     -35.128  19.920   1.294  0.00  0.00    +0.056 C 
ATOM     19  C   UNL     1     -33.914  19.266   1.286  0.00  0.00    +0.025 C 
ATOM     20  C   UNL     1     -33.769  18.127   0.494  0.00  0.00    +0.132 C 
ATOM     21  C   UNL     1     -36.204  19.488   0.548  0.00  0.00    +0.006 C 
ATOM     22  C   UNL     1     -34.842  17.668  -0.272  0.00  0.00    +0.076 C 
ATOM     23  C   UNL     1     -36.059  18.349  -0.244  0.00  0.00    +0.013 C 
BRANCH  20  24
ATOM     24  S   UNL     1     -32.217  17.313   0.500  0.00  0.00    +0.058 S 
ATOM     25  O   UNL     1     -31.430  17.846   1.601  0.00  0.00    -0.153 OA
ATOM     26  O   UNL     1     -32.453  15.881   0.400  0.00  0.00    -0.153 OA
BRANCH  24  27
ATOM     27  N   UNL     1     -31.559  17.868  -0.974  0.00  0.00    -0.203 NA
ATOM     28  H   UNL     1     -31.594  17.119  -1.666  0.00  0.00    +0.144 HD
ATOM     29  H   UNL     1     -30.590  18.151  -0.829  0.00  0.00    +0.144 HD
ENDBRANCH  24  27
ENDBRANCH  20  24
ENDBRANCH   3  18
TORSDOF 5
ENDMDL
MODEL 7
REMARK VINA RESULT:      -6.5      3.510      4.913
REMARK  Name = 196806
REMARK  5 active torsions:
REMARK  status: ('A' for Active; 'I' for Inactive)
REMARK    1  A    between atoms: N_2  and  N_5
REMARK    2  A    between atoms: C_3  and  C_18
REMARK    3  A    between atoms: C_13  and  O_15
REMARK    4  A    between atoms: C_20  and  S_24
REMARK    5  A    between atoms: S_24  and  N_27
REMARK                            x       y       z     vdW  Elec       q    Type
REMARK                         _______ _______ _______ _____ _____    ______ ____
ROOT
ATOM      1  O   UNL     1     -36.543  22.742   4.658  0.00  0.00    -0.269 OA
ATOM      2  N   UNL     1     -35.912  22.941   2.438  0.00  0.00    -0.229 N 
ATOM      3  C   UNL     1     -35.906  23.304   3.770  0.00  0.00    +0.262 C 
ATOM      4  H   UNL     1     -35.377  23.435   1.775  0.00  0.00    +0.173 HD
ENDROOT
BRANCH   2   5
ATOM      5  N   UNL     1     -36.683  21.874   2.069  0.00  0.00    -0.240 N 
ATOM      6  C   UNL     1     -37.901  22.091   1.278  0.00  0.00    +0.097 C 
ATOM      7  C   UNL     1     -38.198  20.744   0.567  0.00  0.00    +0.049 C 
ATOM      8  C   UNL     1     -36.864  20.072   0.625  0.00  0.00    -0.003 C 
ATOM      9  C   UNL     1     -36.027  20.763   1.510  0.00  0.00    +0.061 C 
ATOM     10  C   UNL     1     -39.052  22.533   2.170  0.00  0.00    +0.024 C 
ATOM     11  C   UNL     1     -36.443  18.930  -0.034  0.00  0.00    +0.034 C 
ATOM     12  C   UNL     1     -34.736  20.313   1.746  0.00  0.00    +0.019 C 
ATOM     13  C   UNL     1     -35.144  18.477   0.197  0.00  0.00    +0.133 C 
ATOM     14  C   UNL     1     -34.297  19.164   1.080  0.00  0.00    +0.038 C 
BRANCH  13  15
ATOM     15  O   UNL     1     -34.694  17.358  -0.435  0.00  0.00    -0.506 OA
ATOM     16  H   UNL     1     -33.774  17.196  -0.503  0.00  0.00    +0.292 HD
ENDBRANCH  13  15
ENDBRANCH   2   5
BRANCH   3  18
ATOM     17 CL   UNL     1     -32.436  27.940   5.224  0.00  0.00    -0.081 Cl
ATOM     18  C   UNL     1     -35.035  24.457   4.120  0.00  0.00    +0.056 C 
ATOM     19  C   UNL     1     -34.127  24.913   3.187  0.00  0.00    +0.025 C 
ATOM     20  C   UNL     1     -33.311  25.995   3.515  0.00  0.00    +0.132 C 
ATOM     21  C   UNL     1     -35.165  25.034   5.366  0.00  0.00    +0.006 C 
ATOM     22  C   UNL     1     -33.422  26.597   4.769  0.00  0.00    +0.076 C 
ATOM     23  C   UNL     1     -34.348  26.117   5.694  0.00  0.00    +0.013 C 
BRANCH  20  24
ATOM     24  S   UNL     1     -32.166  26.556   2.313  0.00  0.00    +0.058 S 
ATOM     25  O   UNL     1     -32.445  27.957   2.042  0.00  0.00    -0.153 OA
ATOM     26  O   UNL     1     -30.832  26.147   2.727  0.00  0.00    -0.153 OA
BRANCH  24  27
ATOM     27  N   UNL     1     -32.636  25.622   0.964  0.00  0.00    -0.203 NA
ATOM     28  H   UNL     1     -33.534  25.959   0.614  0.00  0.00    +0.144 HD
ATOM     29  H   UNL     1     -32.725  24.645   1.241  0.00  0.00    +0.144 HD
ENDBRANCH  24  27
ENDBRANCH  20  24
ENDBRANCH   3  18
TORSDOF 5
ENDMDL
MODEL 8
REMARK VINA RESULT:      -6.5      6.404      9.478
REMARK  Name = 196806
REMARK  5 active torsions:
REMARK  status: ('A' for Active; 'I' for Inactive)
REMARK    1  A    between atoms: N_2  and  N_5
REMARK    2  A    between atoms: C_3  and  C_18
REMARK    3  A    between atoms: C_13  and  O_15
REMARK    4  A    between atoms: C_20  and  S_24
REMARK    5  A    between atoms: S_24  and  N_27
REMARK                            x       y       z     vdW  Elec       q    Type
REMARK                         _______ _______ _______ _____ _____    ______ ____
ROOT
ATOM      1  O   UNL     1     -36.174  19.915   2.507  0.00  0.00    -0.269 OA
ATOM      2  N   UNL     1     -34.864  21.824   2.462  0.00  0.00    -0.229 N 
ATOM      3  C   UNL     1     -35.199  20.537   2.092  0.00  0.00    +0.262 C 
ATOM      4  H   UNL     1     -34.066  22.268   2.092  0.00  0.00    +0.173 HD
ENDROOT
BRANCH   2   5
ATOM      5  N   UNL     1     -35.674  22.464   3.358  0.00  0.00    -0.240 N 
ATOM      6  C   UNL     1     -35.148  22.849   4.674  0.00  0.00    +0.097 C 
ATOM      7  C   UNL     1     -36.058  23.998   5.183  0.00  0.00    +0.049 C 
ATOM      8  C   UNL     1     -36.679  24.478   3.909  0.00  0.00    -0.003 C 
ATOM      9  C   UNL     1     -36.430  23.552   2.888  0.00  0.00    +0.061 C 
ATOM     10  C   UNL     1     -35.143  21.660   5.623  0.00  0.00    +0.024 C 
ATOM     11  C   UNL     1     -37.421  25.625   3.689  0.00  0.00    +0.034 C 
ATOM     12  C   UNL     1     -36.926  23.772   1.611  0.00  0.00    +0.019 C 
ATOM     13  C   UNL     1     -37.918  25.850   2.405  0.00  0.00    +0.133 C 
ATOM     14  C   UNL     1     -37.672  24.931   1.374  0.00  0.00    +0.038 C 
BRANCH  13  15
ATOM     15  O   UNL     1     -38.650  26.970   2.150  0.00  0.00    -0.506 OA
ATOM     16  H   UNL     1     -38.263  27.688   1.689  0.00  0.00    +0.292 HD
ENDBRANCH  13  15
ENDBRANCH   2   5
BRANCH   3  18
ATOM     17 CL   UNL     1     -31.544  18.017  -1.899  0.00  0.00    -0.081 Cl
ATOM     18  C   UNL     1     -34.296  19.897   1.099  0.00  0.00    +0.056 C 
ATOM     19  C   UNL     1     -34.548  18.598   0.710  0.00  0.00    +0.025 C 
ATOM     20  C   UNL     1     -33.701  17.998  -0.221  0.00  0.00    +0.132 C 
ATOM     21  C   UNL     1     -33.236  20.625   0.600  0.00  0.00    +0.006 C 
ATOM     22  C   UNL     1     -32.621  18.712  -0.743  0.00  0.00    +0.076 C 
ATOM     23  C   UNL     1     -32.389  20.025  -0.333  0.00  0.00    +0.013 C 
BRANCH  20  24
ATOM     24  S   UNL     1     -34.041  16.347  -0.700  0.00  0.00    +0.058 S 
ATOM     25  O   UNL     1     -34.430  16.354  -2.101  0.00  0.00    -0.153 OA
ATOM     26  O   UNL     1     -32.941  15.506  -0.253  0.00  0.00    -0.153 OA
BRANCH  24  27
ATOM     27  N   UNL     1     -35.415  16.014   0.258  0.00  0.00    -0.203 NA
ATOM     28  H   UNL     1     -35.874  15.172  -0.088  0.00  0.00    +0.144 HD
ATOM     29  H   UNL     1     -36.063  16.799   0.206  0.00  0.00    +0.144 HD
ENDBRANCH  24  27
ENDBRANCH  20  24
ENDBRANCH   3  18
TORSDOF 5
ENDMDL
MODEL 9
REMARK VINA RESULT:      -6.5      2.097      2.338
REMARK  Name = 196806
REMARK  5 active torsions:
REMARK  status: ('A' for Active; 'I' for Inactive)
REMARK    1  A    between atoms: N_2  and  N_5
REMARK    2  A    between atoms: C_3  and  C_18
REMARK    3  A    between atoms: C_13  and  O_15
REMARK    4  A    between atoms: C_20  and  S_24
REMARK    5  A    between atoms: S_24  and  N_27
REMARK                            x       y       z     vdW  Elec       q    Type
REMARK                         _______ _______ _______ _____ _____    ______ ____
ROOT
ATOM      1  O   UNL     1     -34.404  28.388   3.713  0.00  0.00    -0.269 OA
ATOM      2  N   UNL     1     -33.011  26.566   3.399  0.00  0.00    -0.229 N 
ATOM      3  C   UNL     1     -33.290  27.872   3.748  0.00  0.00    +0.262 C 
ATOM      4  H   UNL     1     -32.093  26.211   3.449  0.00  0.00    +0.173 HD
ENDROOT
BRANCH   2   5
ATOM      5  N   UNL     1     -34.048  25.778   2.983  0.00  0.00    -0.240 N 
ATOM      6  C   UNL     1     -34.025  25.190   1.638  0.00  0.00    +0.097 C 
ATOM      7  C   UNL     1     -34.973  23.962   1.688  0.00  0.00    +0.049 C 
ATOM      8  C   UNL     1     -35.035  23.689   3.157  0.00  0.00    -0.003 C 
ATOM      9  C   UNL     1     -34.491  24.772   3.859  0.00  0.00    +0.061 C 
ATOM     10  C   UNL     1     -34.463  26.209   0.596  0.00  0.00    +0.024 C 
ATOM     11  C   UNL     1     -35.555  22.584   3.808  0.00  0.00    +0.034 C 
ATOM     12  C   UNL     1     -34.456  24.757   5.246  0.00  0.00    +0.019 C 
ATOM     13  C   UNL     1     -35.517  22.565   5.202  0.00  0.00    +0.133 C 
ATOM     14  C   UNL     1     -34.972  23.643   5.916  0.00  0.00    +0.038 C 
BRANCH  13  15
ATOM     15  O   UNL     1     -36.017  21.493   5.878  0.00  0.00    -0.506 OA
ATOM     16  H   UNL     1     -35.535  21.122   6.591  0.00  0.00    +0.292 HD
ENDBRANCH  13  15
ENDBRANCH   2   5
BRANCH   3  18
ATOM     17 CL   UNL     1     -28.666  31.150   5.622  0.00  0.00    -0.081 Cl
ATOM     18  C   UNL     1     -32.130  28.676   4.213  0.00  0.00    +0.056 C 
ATOM     19  C   UNL     1     -30.876  28.103   4.204  0.00  0.00    +0.025 C 
ATOM     20  C   UNL     1     -29.788  28.859   4.640  0.00  0.00    +0.132 C 
ATOM     21  C   UNL     1     -32.347  29.971   4.637  0.00  0.00    +0.006 C 
ATOM     22  C   UNL     1     -29.979  30.171   5.075  0.00  0.00    +0.076 C 
ATOM     23  C   UNL     1     -31.258  30.727   5.072  0.00  0.00    +0.013 C 
BRANCH  20  24
ATOM     24  S   UNL     1     -28.204  28.109   4.620  0.00  0.00    +0.058 S 
ATOM     25  O   UNL     1     -27.367  28.845   3.685  0.00  0.00    -0.153 OA
ATOM     26  O   UNL     1     -27.769  27.923   5.996  0.00  0.00    -0.153 OA
BRANCH  24  27
ATOM     27  N   UNL     1     -28.581  26.585   3.949  0.00  0.00    -0.203 NA
ATOM     28  H   UNL     1     -29.532  26.324   4.211  0.00  0.00    +0.144 HD
ATOM     29  H   UNL     1     -27.928  25.887   4.304  0.00  0.00    +0.144 HD
ENDBRANCH  24  27
ENDBRANCH  20  24
ENDBRANCH   3  18
TORSDOF 5
ENDMDL
