MODEL 1
REMARK VINA RESULT:      -6.1      0.000      0.000
REMARK  Name = 5478933
REMARK  13 active torsions:
REMARK  status: ('A' for Active; 'I' for Inactive)
REMARK    1  A    between atoms: C_3  and  C_9
REMARK    2  A    between atoms: C_6  and  C_25
REMARK    3  A    between atoms: N_8  and  C_11
REMARK    4  A    between atoms: C_11  and  C_12
REMARK    5  A    between atoms: C_17  and  C_20
REMARK    6  A    between atoms: N_19  and  C_20
REMARK    7  A    between atoms: N_19  and  O_23
REMARK    8  A    between atoms: C_25  and  C_26
REMARK    9  A    between atoms: C_25  and  N_32
REMARK   10  A    between atoms: N_32  and  C_35
REMARK   11  A    between atoms: C_35  and  C_37
REMARK   12  A    between atoms: C_37  and  O_38
REMARK   13  A    between atoms: O_38  and  C_39
REMARK                            x       y       z     vdW  Elec       q    Type
REMARK                         _______ _______ _______ _____ _____    ______ ____
ROOT
ATOM      1  O   UNL     1     -34.540  28.969   3.684  0.00  0.00    -0.277 OA
ATOM      2  N   UNL     1     -33.280  27.973   2.043  0.00  0.00    -0.275 N 
ATOM      3  C   UNL     1     -33.886  28.303   0.769  0.00  0.00    +0.153 C 
ATOM      4  C   UNL     1     -32.217  27.167   1.478  0.00  0.00    +0.096 C 
ATOM      5  C   UNL     1     -32.595  27.782   0.125  0.00  0.00    +0.051 C 
ATOM      6  C   UNL     1     -33.596  28.260   3.342  0.00  0.00    +0.206 C 
ENDROOT
BRANCH   3   9
ATOM      7  O   UNL     1     -35.684  27.475  -0.658  0.00  0.00    -0.273 OA
ATOM      8  N   UNL     1     -35.749  26.953   1.595  0.00  0.00    -0.299 N 
ATOM      9  C   UNL     1     -35.192  27.547   0.473  0.00  0.00    +0.241 C 
ATOM     10  H   UNL     1     -35.290  27.062   2.460  0.00  0.00    +0.150 HD
BRANCH   8  11
ATOM     11  C   UNL     1     -36.972  26.182   1.560  0.00  0.00    +0.116 C 
BRANCH  11  12
ATOM     12  C   UNL     1     -36.720  24.720   1.784  0.00  0.00    -0.003 C 
ATOM     13  C   UNL     1     -35.491  24.162   1.430  0.00  0.00    -0.003 C 
ATOM     14  C   UNL     1     -37.714  23.917   2.344  0.00  0.00    -0.003 C 
ATOM     15  C   UNL     1     -35.257  22.803   1.638  0.00  0.00    +0.003 C 
ATOM     16  C   UNL     1     -37.479  22.558   2.552  0.00  0.00    +0.003 C 
ATOM     17  C   UNL     1     -36.250  22.001   2.199  0.00  0.00    +0.036 C 
BRANCH  17  19
ATOM     18  N   UNL     1     -37.014  19.655   2.129  0.00  0.00    -0.381 N 
ATOM     19  C   UNL     1     -36.006  20.584   2.415  0.00  0.00    +0.160 C 
ATOM     20  H   UNL     1     -36.854  18.695   2.274  0.00  0.00    +0.157 HD
ATOM     21  H   UNL     1     -37.882  19.962   1.783  0.00  0.00    +0.157 HD
BRANCH  19  22
ATOM     22  N   UNL     1     -34.822  20.212   2.878  0.00  0.00    -0.118 NA
BRANCH  22  23
ATOM     23  O   UNL     1     -34.151  19.361   1.994  0.00  0.00    -0.264 OA
ATOM     24  H   UNL     1     -33.331  18.980   2.240  0.00  0.00    +0.247 HD
ENDBRANCH  22  23
ENDBRANCH  19  22
ENDBRANCH  17  19
ENDBRANCH  11  12
ENDBRANCH   8  11
ENDBRANCH   3   9
BRANCH   6  25
ATOM     25  C   UNL     1     -32.684  27.624   4.357  0.00  0.00    +0.018 C 
BRANCH  25  26
ATOM     26  C   UNL     1     -31.780  28.682   4.987  0.00  0.00    -0.011 C 
ATOM     27  C   UNL     1     -31.883  28.641   6.518  0.00  0.00    -0.002 C 
ATOM     28  C   UNL     1     -30.326  28.494   4.533  0.00  0.00    -0.002 C 
ATOM     29  C   UNL     1     -30.948  29.654   7.174  0.00  0.00    -0.000 C 
ATOM     30  C   UNL     1     -29.394  29.507   5.192  0.00  0.00    -0.000 C 
ATOM     31  C   UNL     1     -29.505  29.469   6.713  0.00  0.00    -0.000 C 
ENDBRANCH  25  26
BRANCH  25  32
ATOM     32  N   UNL     1     -33.521  27.001   5.370  0.00  0.00    +0.398 N 
ATOM     33  H   UNL     1     -34.311  27.614   5.572  0.00  0.00    -0.083 HD
ATOM     34  H   UNL     1     -32.959  26.854   6.208  0.00  0.00    -0.083 HD
BRANCH  32  35
ATOM     35  C   UNL     1     -34.022  25.712   4.914  0.00  0.00    +0.031 C 
BRANCH  35  37
ATOM     36  O   UNL     1     -36.266  26.595   5.248  0.00  0.00    -0.252 OA
ATOM     37  C   UNL     1     -35.505  25.639   5.179  0.00  0.00    +0.295 C 
BRANCH  37  38
ATOM     38  O   UNL     1     -35.858  24.327   5.331  0.00  0.00    -0.450 OA
BRANCH  38  39
ATOM     39  C   UNL     1     -34.780  23.387   5.274  0.00  0.00    +0.208 C 
ATOM     40  C   UNL     1     -35.181  22.131   6.017  0.00  0.00    +0.051 C 
ENDBRANCH  38  39
ENDBRANCH  37  38
ENDBRANCH  35  37
ENDBRANCH  32  35
ENDBRANCH  25  32
ENDBRANCH   6  25
TORSDOF 13
ENDMDL
MODEL 2
REMARK VINA RESULT:      -6.0      4.960      8.234
REMARK  Name = 5478933
REMARK  13 active torsions:
REMARK  status: ('A' for Active; 'I' for Inactive)
REMARK    1  A    between atoms: C_3  and  C_9
REMARK    2  A    between atoms: C_6  and  C_25
REMARK    3  A    between atoms: N_8  and  C_11
REMARK    4  A    between atoms: C_11  and  C_12
REMARK    5  A    between atoms: C_17  and  C_20
REMARK    6  A    between atoms: N_19  and  C_20
REMARK    7  A    between atoms: N_19  and  O_23
REMARK    8  A    between atoms: C_25  and  C_26
REMARK    9  A    between atoms: C_25  and  N_32
REMARK   10  A    between atoms: N_32  and  C_35
REMARK   11  A    between atoms: C_35  and  C_37
REMARK   12  A    between atoms: C_37  and  O_38
REMARK   13  A    between atoms: O_38  and  C_39
REMARK                            x       y       z     vdW  Elec       q    Type
REMARK                         _______ _______ _______ _____ _____    ______ ____
ROOT
ATOM      1  O   UNL     1     -35.973  21.027  -0.733  0.00  0.00    -0.277 OA
ATOM      2  N   UNL     1     -36.519  18.797  -0.728  0.00  0.00    -0.275 N 
ATOM      3  C   UNL     1     -37.545  18.598  -1.731  0.00  0.00    +0.153 C 
ATOM      4  C   UNL     1     -36.479  17.412  -0.306  0.00  0.00    +0.096 C 
ATOM      5  C   UNL     1     -37.274  17.097  -1.577  0.00  0.00    +0.051 C 
ATOM      6  C   UNL     1     -35.839  19.894  -0.275  0.00  0.00    +0.206 C 
ENDROOT
BRANCH   3   9
ATOM      7  O   UNL     1     -39.877  18.375  -1.045  0.00  0.00    -0.273 OA
ATOM      8  N   UNL     1     -39.015  20.506  -1.309  0.00  0.00    -0.299 N 
ATOM      9  C   UNL     1     -38.934  19.122  -1.328  0.00  0.00    +0.241 C 
ATOM     10  H   UNL     1     -38.214  21.026  -1.550  0.00  0.00    +0.150 HD
BRANCH   8  11
ATOM     11  C   UNL     1     -40.218  21.225  -0.952  0.00  0.00    +0.116 C 
BRANCH  11  12
ATOM     12  C   UNL     1     -39.954  22.284   0.078  0.00  0.00    -0.003 C 
ATOM     13  C   UNL     1     -39.796  21.929   1.418  0.00  0.00    -0.003 C 
ATOM     14  C   UNL     1     -39.869  23.623  -0.302  0.00  0.00    -0.003 C 
ATOM     15  C   UNL     1     -39.552  22.913   2.376  0.00  0.00    +0.003 C 
ATOM     16  C   UNL     1     -39.624  24.607   0.656  0.00  0.00    +0.003 C 
ATOM     17  C   UNL     1     -39.466  24.251   1.995  0.00  0.00    +0.036 C 
BRANCH  17  19
ATOM     18  N   UNL     1     -38.375  24.994   4.081  0.00  0.00    -0.381 N 
ATOM     19  C   UNL     1     -39.212  25.277   2.994  0.00  0.00    +0.160 C 
ATOM     20  H   UNL     1     -38.199  25.684   4.760  0.00  0.00    +0.157 HD
ATOM     21  H   UNL     1     -37.961  24.105   4.165  0.00  0.00    +0.157 HD
BRANCH  19  22
ATOM     22  N   UNL     1     -39.785  26.461   2.842  0.00  0.00    -0.118 NA
BRANCH  22  23
ATOM     23  O   UNL     1     -40.710  26.735   3.855  0.00  0.00    -0.264 OA
ATOM     24  H   UNL     1     -41.364  27.394   3.727  0.00  0.00    +0.247 HD
ENDBRANCH  22  23
ENDBRANCH  19  22
ENDBRANCH  17  19
ENDBRANCH  11  12
ENDBRANCH   8  11
ENDBRANCH   3   9
BRANCH   6  25
ATOM     25  C   UNL     1     -34.890  19.611   0.857  0.00  0.00    +0.018 C 
BRANCH  25  26
ATOM     26  C   UNL     1     -33.544  19.140   0.311  0.00  0.00    -0.011 C 
ATOM     27  C   UNL     1     -32.545  20.304   0.249  0.00  0.00    -0.002 C 
ATOM     28  C   UNL     1     -32.987  17.988   1.160  0.00  0.00    -0.002 C 
ATOM     29  C   UNL     1     -31.175  19.847  -0.245  0.00  0.00    -0.000 C 
ATOM     30  C   UNL     1     -31.616  17.535   0.666  0.00  0.00    -0.000 C 
ATOM     31  C   UNL     1     -30.629  18.696   0.597  0.00  0.00    -0.000 C 
ENDBRANCH  25  26
BRANCH  25  32
ATOM     32  N   UNL     1     -34.728  20.844   1.612  0.00  0.00    +0.398 N 
ATOM     33  H   UNL     1     -34.829  21.637   0.980  0.00  0.00    -0.083 HD
ATOM     34  H   UNL     1     -33.803  20.843   2.040  0.00  0.00    -0.083 HD
BRANCH  32  35
ATOM     35  C   UNL     1     -35.727  20.945   2.668  0.00  0.00    +0.031 C 
BRANCH  35  37
ATOM     36  O   UNL     1     -36.023  23.279   2.041  0.00  0.00    -0.252 OA
ATOM     37  C   UNL     1     -36.060  22.400   2.891  0.00  0.00    +0.295 C 
BRANCH  37  38
ATOM     38  O   UNL     1     -36.407  22.572   4.202  0.00  0.00    -0.450 OA
BRANCH  38  39
ATOM     39  C   UNL     1     -35.337  22.930   5.083  0.00  0.00    +0.208 C 
ATOM     40  C   UNL     1     -35.455  22.122   6.357  0.00  0.00    +0.051 C 
ENDBRANCH  38  39
ENDBRANCH  37  38
ENDBRANCH  35  37
ENDBRANCH  32  35
ENDBRANCH  25  32
ENDBRANCH   6  25
TORSDOF 13
ENDMDL
MODEL 3
REMARK VINA RESULT:      -5.9      1.667      2.168
REMARK  Name = 5478933
REMARK  13 active torsions:
REMARK  status: ('A' for Active; 'I' for Inactive)
REMARK    1  A    between atoms: C_3  and  C_9
REMARK    2  A    between atoms: C_6  and  C_25
REMARK    3  A    between atoms: N_8  and  C_11
REMARK    4  A    between atoms: C_11  and  C_12
REMARK    5  A    between atoms: C_17  and  C_20
REMARK    6  A    between atoms: N_19  and  C_20
REMARK    7  A    between atoms: N_19  and  O_23
REMARK    8  A    between atoms: C_25  and  C_26
REMARK    9  A    between atoms: C_25  and  N_32
REMARK   10  A    between atoms: N_32  and  C_35
REMARK   11  A    between atoms: C_35  and  C_37
REMARK   12  A    between atoms: C_37  and  O_38
REMARK   13  A    between atoms: O_38  and  C_39
REMARK                            x       y       z     vdW  Elec       q    Type
REMARK                         _______ _______ _______ _____ _____    ______ ____
ROOT
ATOM      1  O   UNL     1     -34.764  28.106   3.383  0.00  0.00    -0.277 OA
ATOM      2  N   UNL     1     -33.197  26.879   2.238  0.00  0.00    -0.275 N 
ATOM      3  C   UNL     1     -33.636  26.791   0.860  0.00  0.00    +0.153 C 
ATOM      4  C   UNL     1     -31.998  26.089   2.044  0.00  0.00    +0.096 C 
ATOM      5  C   UNL     1     -32.225  26.282   0.540  0.00  0.00    +0.051 C 
ATOM      6  C   UNL     1     -33.723  27.452   3.363  0.00  0.00    +0.206 C 
ENDROOT
BRANCH   3   9
ATOM      7  O   UNL     1     -35.653  26.000  -0.261  0.00  0.00    -0.273 OA
ATOM      8  N   UNL     1     -34.834  24.763   1.514  0.00  0.00    -0.299 N 
ATOM      9  C   UNL     1     -34.815  25.831   0.631  0.00  0.00    +0.241 C 
ATOM     10  H   UNL     1     -34.126  24.707   2.196  0.00  0.00    +0.150 HD
BRANCH   8  11
ATOM     11  C   UNL     1     -35.843  23.728   1.484  0.00  0.00    +0.116 C 
BRANCH  11  12
ATOM     12  C   UNL     1     -35.239  22.359   1.363  0.00  0.00    -0.003 C 
ATOM     13  C   UNL     1     -35.557  21.372   2.297  0.00  0.00    -0.003 C 
ATOM     14  C   UNL     1     -34.359  22.073   0.320  0.00  0.00    -0.003 C 
ATOM     15  C   UNL     1     -34.996  20.100   2.185  0.00  0.00    +0.003 C 
ATOM     16  C   UNL     1     -33.798  20.801   0.208  0.00  0.00    +0.003 C 
ATOM     17  C   UNL     1     -34.117  19.815   1.141  0.00  0.00    +0.036 C 
BRANCH  17  19
ATOM     18  N   UNL     1     -34.241  17.471   0.376  0.00  0.00    -0.381 N 
ATOM     19  C   UNL     1     -33.531  18.488   1.026  0.00  0.00    +0.160 C 
ATOM     20  H   UNL     1     -33.850  16.572   0.295  0.00  0.00    +0.157 HD
ATOM     21  H   UNL     1     -35.132  17.656  -0.001  0.00  0.00    +0.157 HD
BRANCH  19  22
ATOM     22  N   UNL     1     -32.329  18.282   1.543  0.00  0.00    -0.118 NA
BRANCH  22  23
ATOM     23  O   UNL     1     -31.777  17.065   1.131  0.00  0.00    -0.264 OA
ATOM     24  H   UNL     1     -31.329  17.007   0.310  0.00  0.00    +0.247 HD
ENDBRANCH  22  23
ENDBRANCH  19  22
ENDBRANCH  17  19
ENDBRANCH  11  12
ENDBRANCH   8  11
ENDBRANCH   3   9
BRANCH   6  25
ATOM     25  C   UNL     1     -32.918  27.218   4.612  0.00  0.00    +0.018 C 
BRANCH  25  26
ATOM     26  C   UNL     1     -32.269  28.521   5.073  0.00  0.00    -0.011 C 
ATOM     27  C   UNL     1     -32.017  28.496   6.588  0.00  0.00    -0.002 C 
ATOM     28  C   UNL     1     -30.964  28.778   4.307  0.00  0.00    -0.002 C 
ATOM     29  C   UNL     1     -31.321  29.768   7.065  0.00  0.00    -0.000 C 
ATOM     30  C   UNL     1     -30.269  30.050   4.788  0.00  0.00    -0.000 C 
ATOM     31  C   UNL     1     -30.029  30.025   6.294  0.00  0.00    -0.000 C 
ENDBRANCH  25  26
BRANCH  25  32
ATOM     32  N   UNL     1     -33.826  26.714   5.631  0.00  0.00    +0.398 N 
ATOM     33  H   UNL     1     -34.660  27.299   5.652  0.00  0.00    -0.083 HD
ATOM     34  H   UNL     1     -33.348  26.738   6.531  0.00  0.00    -0.083 HD
BRANCH  32  35
ATOM     35  C   UNL     1     -34.216  25.338   5.350  0.00  0.00    +0.031 C 
BRANCH  35  37
ATOM     36  O   UNL     1     -36.494  26.154   5.614  0.00  0.00    -0.252 OA
ATOM     37  C   UNL     1     -35.717  25.225   5.441  0.00  0.00    +0.295 C 
BRANCH  37  38
ATOM     38  O   UNL     1     -36.065  23.911   5.298  0.00  0.00    -0.450 OA
BRANCH  38  39
ATOM     39  C   UNL     1     -35.003  22.968   5.474  0.00  0.00    +0.208 C 
ATOM     40  C   UNL     1     -35.472  21.861   6.393  0.00  0.00    +0.051 C 
ENDBRANCH  38  39
ENDBRANCH  37  38
ENDBRANCH  35  37
ENDBRANCH  32  35
ENDBRANCH  25  32
ENDBRANCH   6  25
TORSDOF 13
ENDMDL
MODEL 4
REMARK VINA RESULT:      -5.8      3.377      7.551
REMARK  Name = 5478933
REMARK  13 active torsions:
REMARK  status: ('A' for Active; 'I' for Inactive)
REMARK    1  A    between atoms: C_3  and  C_9
REMARK    2  A    between atoms: C_6  and  C_25
REMARK    3  A    between atoms: N_8  and  C_11
REMARK    4  A    between atoms: C_11  and  C_12
REMARK    5  A    between atoms: C_17  and  C_20
REMARK    6  A    between atoms: N_19  and  C_20
REMARK    7  A    between atoms: N_19  and  O_23
REMARK    8  A    between atoms: C_25  and  C_26
REMARK    9  A    between atoms: C_25  and  N_32
REMARK   10  A    between atoms: N_32  and  C_35
REMARK   11  A    between atoms: C_35  and  C_37
REMARK   12  A    between atoms: C_37  and  O_38
REMARK   13  A    between atoms: O_38  and  C_39
REMARK                            x       y       z     vdW  Elec       q    Type
REMARK                         _______ _______ _______ _____ _____    ______ ____
ROOT
ATOM      1  O   UNL     1     -33.918  26.772   5.832  0.00  0.00    -0.277 OA
ATOM      2  N   UNL     1     -32.869  27.148   3.825  0.00  0.00    -0.275 N 
ATOM      3  C   UNL     1     -31.782  28.074   4.070  0.00  0.00    +0.153 C 
ATOM      4  C   UNL     1     -32.629  27.038   2.400  0.00  0.00    +0.096 C 
ATOM      5  C   UNL     1     -31.275  27.704   2.670  0.00  0.00    +0.051 C 
ATOM      6  C   UNL     1     -33.832  26.590   4.619  0.00  0.00    +0.206 C 
ENDROOT
BRANCH   3   9
ATOM      7  O   UNL     1     -32.564  29.948   5.422  0.00  0.00    -0.273 OA
ATOM      8  N   UNL     1     -32.206  30.305   3.165  0.00  0.00    -0.299 N 
ATOM      9  C   UNL     1     -32.228  29.526   4.311  0.00  0.00    +0.241 C 
ATOM     10  H   UNL     1     -31.925  29.886   2.319  0.00  0.00    +0.150 HD
BRANCH   8  11
ATOM     11  C   UNL     1     -32.575  31.703   3.150  0.00  0.00    +0.116 C 
BRANCH  11  12
ATOM     12  C   UNL     1     -33.934  31.918   2.549  0.00  0.00    -0.003 C 
ATOM     13  C   UNL     1     -34.154  32.999   1.694  0.00  0.00    -0.003 C 
ATOM     14  C   UNL     1     -34.976  31.041   2.846  0.00  0.00    -0.003 C 
ATOM     15  C   UNL     1     -35.416  33.200   1.135  0.00  0.00    +0.003 C 
ATOM     16  C   UNL     1     -36.238  31.242   2.287  0.00  0.00    +0.003 C 
ATOM     17  C   UNL     1     -36.458  32.322   1.432  0.00  0.00    +0.036 C 
BRANCH  17  19
ATOM     18  N   UNL     1     -37.888  32.858  -0.507  0.00  0.00    -0.381 N 
ATOM     19  C   UNL     1     -37.774  32.532   0.850  0.00  0.00    +0.160 C 
ATOM     20  H   UNL     1     -38.776  33.001  -0.906  0.00  0.00    +0.157 HD
ATOM     21  H   UNL     1     -37.080  32.942  -1.063  0.00  0.00    +0.157 HD
BRANCH  19  22
ATOM     22  N   UNL     1     -38.836  32.405   1.631  0.00  0.00    -0.118 NA
BRANCH  22  23
ATOM     23  O   UNL     1     -39.815  31.582   1.064  0.00  0.00    -0.264 OA
ATOM     24  H   UNL     1     -40.723  31.775   1.193  0.00  0.00    +0.247 HD
ENDBRANCH  22  23
ENDBRANCH  19  22
ENDBRANCH  17  19
ENDBRANCH  11  12
ENDBRANCH   8  11
ENDBRANCH   3   9
BRANCH   6  25
ATOM     25  C   UNL     1     -34.811  25.715   3.885  0.00  0.00    +0.018 C 
BRANCH  25  26
ATOM     26  C   UNL     1     -34.624  24.256   4.295  0.00  0.00    -0.011 C 
ATOM     27  C   UNL     1     -35.268  23.990   5.663  0.00  0.00    -0.002 C 
ATOM     28  C   UNL     1     -35.201  23.314   3.229  0.00  0.00    -0.002 C 
ATOM     29  C   UNL     1     -35.141  22.525   6.072  0.00  0.00    -0.000 C 
ATOM     30  C   UNL     1     -35.073  21.850   3.641  0.00  0.00    -0.000 C 
ATOM     31  C   UNL     1     -35.706  21.592   5.005  0.00  0.00    -0.000 C 
ENDBRANCH  25  26
BRANCH  25  32
ATOM     32  N   UNL     1     -36.149  26.172   4.226  0.00  0.00    +0.398 N 
ATOM     33  H   UNL     1     -36.084  27.080   4.685  0.00  0.00    -0.083 HD
ATOM     34  H   UNL     1     -36.577  25.486   4.848  0.00  0.00    -0.083 HD
BRANCH  32  35
ATOM     35  C   UNL     1     -36.979  26.298   3.035  0.00  0.00    +0.031 C 
BRANCH  35  37
ATOM     36  O   UNL     1     -38.445  24.516   3.809  0.00  0.00    -0.252 OA
ATOM     37  C   UNL     1     -38.298  25.609   3.280  0.00  0.00    +0.295 C 
BRANCH  37  38
ATOM     38  O   UNL     1     -39.302  26.408   2.809  0.00  0.00    -0.450 OA
BRANCH  38  39
ATOM     39  C   UNL     1     -40.632  25.944   3.065  0.00  0.00    +0.208 C 
ATOM     40  C   UNL     1     -41.228  25.419   1.777  0.00  0.00    +0.051 C 
ENDBRANCH  38  39
ENDBRANCH  37  38
ENDBRANCH  35  37
ENDBRANCH  32  35
ENDBRANCH  25  32
ENDBRANCH   6  25
TORSDOF 13
ENDMDL
MODEL 5
REMARK VINA RESULT:      -5.8      3.473      8.253
REMARK  Name = 5478933
REMARK  13 active torsions:
REMARK  status: ('A' for Active; 'I' for Inactive)
REMARK    1  A    between atoms: C_3  and  C_9
REMARK    2  A    between atoms: C_6  and  C_25
REMARK    3  A    between atoms: N_8  and  C_11
REMARK    4  A    between atoms: C_11  and  C_12
REMARK    5  A    between atoms: C_17  and  C_20
REMARK    6  A    between atoms: N_19  and  C_20
REMARK    7  A    between atoms: N_19  and  O_23
REMARK    8  A    between atoms: C_25  and  C_26
REMARK    9  A    between atoms: C_25  and  N_32
REMARK   10  A    between atoms: N_32  and  C_35
REMARK   11  A    between atoms: C_35  and  C_37
REMARK   12  A    between atoms: C_37  and  O_38
REMARK   13  A    between atoms: O_38  and  C_39
REMARK                            x       y       z     vdW  Elec       q    Type
REMARK                         _______ _______ _______ _____ _____    ______ ____
ROOT
ATOM      1  O   UNL     1     -39.409  24.322   3.539  0.00  0.00    -0.277 OA
ATOM      2  N   UNL     1     -39.886  23.080   1.668  0.00  0.00    -0.275 N 
ATOM      3  C   UNL     1     -39.352  21.751   1.880  0.00  0.00    +0.153 C 
ATOM      4  C   UNL     1     -40.398  22.805   0.341  0.00  0.00    +0.096 C 
ATOM      5  C   UNL     1     -40.185  21.322   0.666  0.00  0.00    +0.051 C 
ATOM      6  C   UNL     1     -39.885  24.229   2.410  0.00  0.00    +0.206 C 
ENDROOT
BRANCH   3   9
ATOM      7  O   UNL     1     -37.236  21.475   0.696  0.00  0.00    -0.273 OA
ATOM      8  N   UNL     1     -37.171  21.807   2.985  0.00  0.00    -0.299 N 
ATOM      9  C   UNL     1     -37.821  21.658   1.769  0.00  0.00    +0.241 C 
ATOM     10  H   UNL     1     -37.717  21.949   3.793  0.00  0.00    +0.150 HD
BRANCH   8  11
ATOM     11  C   UNL     1     -35.733  21.766   3.126  0.00  0.00    +0.116 C 
BRANCH  11  12
ATOM     12  C   UNL     1     -35.189  23.035   3.713  0.00  0.00    -0.003 C 
ATOM     13  C   UNL     1     -35.329  23.287   5.078  0.00  0.00    -0.003 C 
ATOM     14  C   UNL     1     -34.546  23.964   2.895  0.00  0.00    -0.003 C 
ATOM     15  C   UNL     1     -34.824  24.467   5.625  0.00  0.00    +0.003 C 
ATOM     16  C   UNL     1     -34.041  25.144   3.442  0.00  0.00    +0.003 C 
ATOM     17  C   UNL     1     -34.181  25.395   4.807  0.00  0.00    +0.036 C 
BRANCH  17  19
ATOM     18  N   UNL     1     -33.526  27.764   4.571  0.00  0.00    -0.381 N 
ATOM     19  C   UNL     1     -33.655  26.626   5.377  0.00  0.00    +0.160 C 
ATOM     20  H   UNL     1     -33.171  28.599   4.951  0.00  0.00    +0.157 HD
ATOM     21  H   UNL     1     -33.792  27.728   3.624  0.00  0.00    +0.157 HD
BRANCH  19  22
ATOM     22  N   UNL     1     -33.313  26.632   6.657  0.00  0.00    -0.118 NA
BRANCH  22  23
ATOM     23  O   UNL     1     -32.031  27.152   6.859  0.00  0.00    -0.264 OA
ATOM     24  H   UNL     1     -31.878  28.072   6.765  0.00  0.00    +0.247 HD
ENDBRANCH  22  23
ENDBRANCH  19  22
ENDBRANCH  17  19
ENDBRANCH  11  12
ENDBRANCH   8  11
ENDBRANCH   3   9
BRANCH   6  25
ATOM     25  C   UNL     1     -40.523  25.409   1.727  0.00  0.00    +0.018 C 
BRANCH  25  26
ATOM     26  C   UNL     1     -41.921  25.651   2.291  0.00  0.00    -0.011 C 
ATOM     27  C   UNL     1     -41.912  26.823   3.283  0.00  0.00    -0.002 C 
ATOM     28  C   UNL     1     -42.927  25.902   1.160  0.00  0.00    -0.002 C 
ATOM     29  C   UNL     1     -43.309  27.118   3.821  0.00  0.00    -0.000 C 
ATOM     30  C   UNL     1     -44.323  26.199   1.701  0.00  0.00    -0.000 C 
ATOM     31  C   UNL     1     -44.308  27.358   2.692  0.00  0.00    -0.000 C 
ENDBRANCH  25  26
BRANCH  25  32
ATOM     32  N   UNL     1     -39.673  26.565   1.963  0.00  0.00    +0.398 N 
ATOM     33  H   UNL     1     -39.071  26.377   2.765  0.00  0.00    -0.083 HD
ATOM     34  H   UNL     1     -40.268  27.373   2.143  0.00  0.00    -0.083 HD
BRANCH  32  35
ATOM     35  C   UNL     1     -38.843  26.850   0.800  0.00  0.00    +0.031 C 
BRANCH  35  37
ATOM     36  O   UNL     1     -36.973  28.245   1.496  0.00  0.00    -0.252 OA
ATOM     37  C   UNL     1     -37.435  27.137   1.260  0.00  0.00    +0.295 C 
BRANCH  37  38
ATOM     38  O   UNL     1     -36.761  25.952   1.367  0.00  0.00    -0.450 OA
BRANCH  38  39
ATOM     39  C   UNL     1     -36.942  25.039   0.280  0.00  0.00    +0.208 C 
ATOM     40  C   UNL     1     -35.666  24.979  -0.532  0.00  0.00    +0.051 C 
ENDBRANCH  38  39
ENDBRANCH  37  38
ENDBRANCH  35  37
ENDBRANCH  32  35
ENDBRANCH  25  32
ENDBRANCH   6  25
TORSDOF 13
ENDMDL
MODEL 6
REMARK VINA RESULT:      -5.7      3.352      8.244
REMARK  Name = 5478933
REMARK  13 active torsions:
REMARK  status: ('A' for Active; 'I' for Inactive)
REMARK    1  A    between atoms: C_3  and  C_9
REMARK    2  A    between atoms: C_6  and  C_25
REMARK    3  A    between atoms: N_8  and  C_11
REMARK    4  A    between atoms: C_11  and  C_12
REMARK    5  A    between atoms: C_17  and  C_20
REMARK    6  A    between atoms: N_19  and  C_20
REMARK    7  A    between atoms: N_19  and  O_23
REMARK    8  A    between atoms: C_25  and  C_26
REMARK    9  A    between atoms: C_25  and  N_32
REMARK   10  A    between atoms: N_32  and  C_35
REMARK   11  A    between atoms: C_35  and  C_37
REMARK   12  A    between atoms: C_37  and  O_38
REMARK   13  A    between atoms: O_38  and  C_39
REMARK                            x       y       z     vdW  Elec       q    Type
REMARK                         _______ _______ _______ _____ _____    ______ ____
ROOT
ATOM      1  O   UNL     1     -39.512  24.034   3.392  0.00  0.00    -0.277 OA
ATOM      2  N   UNL     1     -39.837  22.877   1.436  0.00  0.00    -0.275 N 
ATOM      3  C   UNL     1     -39.302  21.544   1.624  0.00  0.00    +0.153 C 
ATOM      4  C   UNL     1     -40.249  22.659   0.064  0.00  0.00    +0.096 C 
ATOM      5  C   UNL     1     -40.040  21.165   0.335  0.00  0.00    +0.051 C 
ATOM      6  C   UNL     1     -39.905  23.989   2.227  0.00  0.00    +0.206 C 
ENDROOT
BRANCH   3   9
ATOM      7  O   UNL     1     -37.106  21.281   0.593  0.00  0.00    -0.273 OA
ATOM      8  N   UNL     1     -37.203  21.650   2.874  0.00  0.00    -0.299 N 
ATOM      9  C   UNL     1     -37.765  21.472   1.620  0.00  0.00    +0.241 C 
ATOM     10  H   UNL     1     -37.804  21.796   3.641  0.00  0.00    +0.150 HD
BRANCH   8  11
ATOM     11  C   UNL     1     -35.777  21.632   3.114  0.00  0.00    +0.116 C 
BRANCH  11  12
ATOM     12  C   UNL     1     -35.265  22.972   3.556  0.00  0.00    -0.003 C 
ATOM     13  C   UNL     1     -35.247  23.298   4.912  0.00  0.00    -0.003 C 
ATOM     14  C   UNL     1     -34.808  23.892   2.612  0.00  0.00    -0.003 C 
ATOM     15  C   UNL     1     -34.772  24.544   5.323  0.00  0.00    +0.003 C 
ATOM     16  C   UNL     1     -34.333  25.137   3.023  0.00  0.00    +0.003 C 
ATOM     17  C   UNL     1     -34.315  25.462   4.379  0.00  0.00    +0.036 C 
BRANCH  17  19
ATOM     18  N   UNL     1     -33.357  26.927   6.120  0.00  0.00    -0.381 N 
ATOM     19  C   UNL     1     -33.820  26.761   4.809  0.00  0.00    +0.160 C 
ATOM     20  H   UNL     1     -33.021  27.804   6.416  0.00  0.00    +0.157 HD
ATOM     21  H   UNL     1     -33.366  26.167   6.745  0.00  0.00    +0.157 HD
BRANCH  19  22
ATOM     22  N   UNL     1     -33.820  27.756   3.934  0.00  0.00    -0.118 NA
BRANCH  22  23
ATOM     23  O   UNL     1     -35.091  28.316   3.771  0.00  0.00    -0.264 OA
ATOM     24  H   UNL     1     -35.446  28.876   4.434  0.00  0.00    +0.247 HD
ENDBRANCH  22  23
ENDBRANCH  19  22
ENDBRANCH  17  19
ENDBRANCH  11  12
ENDBRANCH   8  11
ENDBRANCH   3   9
BRANCH   6  25
ATOM     25  C   UNL     1     -40.509  25.193   1.556  0.00  0.00    +0.018 C 
BRANCH  25  26
ATOM     26  C   UNL     1     -41.853  25.534   2.195  0.00  0.00    -0.011 C 
ATOM     27  C   UNL     1     -41.704  26.700   3.183  0.00  0.00    -0.002 C 
ATOM     28  C   UNL     1     -42.898  25.860   1.119  0.00  0.00    -0.002 C 
ATOM     29  C   UNL     1     -43.045  27.095   3.796  0.00  0.00    -0.000 C 
ATOM     30  C   UNL     1     -44.237  26.256   1.736  0.00  0.00    -0.000 C 
ATOM     31  C   UNL     1     -44.084  27.409   2.723  0.00  0.00    -0.000 C 
ENDBRANCH  25  26
BRANCH  25  32
ATOM     32  N   UNL     1     -39.576  26.297   1.714  0.00  0.00    +0.398 N 
ATOM     33  H   UNL     1     -38.994  26.128   2.534  0.00  0.00    -0.083 HD
ATOM     34  H   UNL     1     -40.110  27.159   1.826  0.00  0.00    -0.083 HD
BRANCH  32  35
ATOM     35  C   UNL     1     -38.720  26.432   0.542  0.00  0.00    +0.031 C 
BRANCH  35  37
ATOM     36  O   UNL     1     -37.040  27.592   1.868  0.00  0.00    -0.252 OA
ATOM     37  C   UNL     1     -37.325  26.788   0.991  0.00  0.00    +0.295 C 
BRANCH  37  38
ATOM     38  O   UNL     1     -36.430  26.063   0.253  0.00  0.00    -0.450 OA
BRANCH  38  39
ATOM     39  C   UNL     1     -36.936  24.849  -0.311  0.00  0.00    +0.208 C 
ATOM     40  C   UNL     1     -35.805  24.114  -0.996  0.00  0.00    +0.051 C 
ENDBRANCH  38  39
ENDBRANCH  37  38
ENDBRANCH  35  37
ENDBRANCH  32  35
ENDBRANCH  25  32
ENDBRANCH   6  25
TORSDOF 13
ENDMDL
MODEL 7
REMARK VINA RESULT:      -5.7      3.121      4.671
REMARK  Name = 5478933
REMARK  13 active torsions:
REMARK  status: ('A' for Active; 'I' for Inactive)
REMARK    1  A    between atoms: C_3  and  C_9
REMARK    2  A    between atoms: C_6  and  C_25
REMARK    3  A    between atoms: N_8  and  C_11
REMARK    4  A    between atoms: C_11  and  C_12
REMARK    5  A    between atoms: C_17  and  C_20
REMARK    6  A    between atoms: N_19  and  C_20
REMARK    7  A    between atoms: N_19  and  O_23
REMARK    8  A    between atoms: C_25  and  C_26
REMARK    9  A    between atoms: C_25  and  N_32
REMARK   10  A    between atoms: N_32  and  C_35
REMARK   11  A    between atoms: C_35  and  C_37
REMARK   12  A    between atoms: C_37  and  O_38
REMARK   13  A    between atoms: O_38  and  C_39
REMARK                            x       y       z     vdW  Elec       q    Type
REMARK                         _______ _______ _______ _____ _____    ______ ____
ROOT
ATOM      1  O   UNL     1     -32.921  30.430   5.295  0.00  0.00    -0.277 OA
ATOM      2  N   UNL     1     -32.951  29.292   3.302  0.00  0.00    -0.275 N 
ATOM      3  C   UNL     1     -34.120  28.436   3.307  0.00  0.00    +0.153 C 
ATOM      4  C   UNL     1     -32.488  28.872   1.994  0.00  0.00    +0.096 C 
ATOM      5  C   UNL     1     -33.875  28.248   1.805  0.00  0.00    +0.051 C 
ATOM      6  C   UNL     1     -32.413  30.163   4.208  0.00  0.00    +0.206 C 
ENDROOT
BRANCH   3   9
ATOM      7  O   UNL     1     -32.916  26.659   4.468  0.00  0.00    -0.273 OA
ATOM      8  N   UNL     1     -35.213  26.768   4.722  0.00  0.00    -0.299 N 
ATOM      9  C   UNL     1     -33.997  27.201   4.215  0.00  0.00    +0.241 C 
ATOM     10  H   UNL     1     -36.028  27.259   4.467  0.00  0.00    +0.150 HD
BRANCH   8  11
ATOM     11  C   UNL     1     -35.344  25.631   5.605  0.00  0.00    +0.116 C 
BRANCH  11  12
ATOM     12  C   UNL     1     -35.479  24.343   4.846  0.00  0.00    -0.003 C 
ATOM     13  C   UNL     1     -35.220  23.129   5.483  0.00  0.00    -0.003 C 
ATOM     14  C   UNL     1     -35.861  24.359   3.505  0.00  0.00    -0.003 C 
ATOM     15  C   UNL     1     -35.345  21.932   4.778  0.00  0.00    +0.003 C 
ATOM     16  C   UNL     1     -35.986  23.162   2.800  0.00  0.00    +0.003 C 
ATOM     17  C   UNL     1     -35.728  21.948   3.438  0.00  0.00    +0.036 C 
BRANCH  17  19
ATOM     18  N   UNL     1     -37.127  20.247   2.324  0.00  0.00    -0.381 N 
ATOM     19  C   UNL     1     -35.857  20.700   2.703  0.00  0.00    +0.160 C 
ATOM     20  H   UNL     1     -37.221  19.402   1.827  0.00  0.00    +0.157 HD
ATOM     21  H   UNL     1     -37.926  20.774   2.553  0.00  0.00    +0.157 HD
BRANCH  19  22
ATOM     22  N   UNL     1     -34.756  20.023   2.410  0.00  0.00    -0.118 NA
BRANCH  22  23
ATOM     23  O   UNL     1     -34.109  20.532   1.279  0.00  0.00    -0.264 OA
ATOM     24  H   UNL     1     -33.978  21.455   1.189  0.00  0.00    +0.247 HD
ENDBRANCH  22  23
ENDBRANCH  19  22
ENDBRANCH  17  19
ENDBRANCH  11  12
ENDBRANCH   8  11
ENDBRANCH   3   9
BRANCH   6  25
ATOM     25  C   UNL     1     -31.117  30.790   3.771  0.00  0.00    +0.018 C 
BRANCH  25  26
ATOM     26  C   UNL     1     -31.270  32.306   3.677  0.00  0.00    -0.011 C 
ATOM     27  C   UNL     1     -29.924  32.970   3.354  0.00  0.00    -0.002 C 
ATOM     28  C   UNL     1     -32.328  32.681   2.629  0.00  0.00    -0.002 C 
ATOM     29  C   UNL     1     -30.062  34.482   3.203  0.00  0.00    -0.000 C 
ATOM     30  C   UNL     1     -32.461  34.194   2.479  0.00  0.00    -0.000 C 
ATOM     31  C   UNL     1     -31.120  34.850   2.167  0.00  0.00    -0.000 C 
ENDBRANCH  25  26
BRANCH  25  32
ATOM     32  N   UNL     1     -30.107  30.442   4.758  0.00  0.00    +0.398 N 
ATOM     33  H   UNL     1     -30.550  30.357   5.672  0.00  0.00    -0.083 HD
ATOM     34  H   UNL     1     -29.399  31.176   4.770  0.00  0.00    -0.083 HD
BRANCH  32  35
ATOM     35  C   UNL     1     -29.461  29.180   4.423  0.00  0.00    +0.031 C 
BRANCH  35  37
ATOM     36  O   UNL     1     -30.411  27.898   6.262  0.00  0.00    -0.252 OA
ATOM     37  C   UNL     1     -29.432  28.302   5.650  0.00  0.00    +0.295 C 
BRANCH  37  38
ATOM     38  O   UNL     1     -28.128  28.035   5.965  0.00  0.00    -0.450 OA
BRANCH  38  39
ATOM     39  C   UNL     1     -27.899  27.564   7.297  0.00  0.00    +0.208 C 
ATOM     40  C   UNL     1     -27.168  26.241   7.234  0.00  0.00    +0.051 C 
ENDBRANCH  38  39
ENDBRANCH  37  38
ENDBRANCH  35  37
ENDBRANCH  32  35
ENDBRANCH  25  32
ENDBRANCH   6  25
TORSDOF 13
ENDMDL
MODEL 8
REMARK VINA RESULT:      -5.7      5.226      7.843
REMARK  Name = 5478933
REMARK  13 active torsions:
REMARK  status: ('A' for Active; 'I' for Inactive)
REMARK    1  A    between atoms: C_3  and  C_9
REMARK    2  A    between atoms: C_6  and  C_25
REMARK    3  A    between atoms: N_8  and  C_11
REMARK    4  A    between atoms: C_11  and  C_12
REMARK    5  A    between atoms: C_17  and  C_20
REMARK    6  A    between atoms: N_19  and  C_20
REMARK    7  A    between atoms: N_19  and  O_23
REMARK    8  A    between atoms: C_25  and  C_26
REMARK    9  A    between atoms: C_25  and  N_32
REMARK   10  A    between atoms: N_32  and  C_35
REMARK   11  A    between atoms: C_35  and  C_37
REMARK   12  A    between atoms: C_37  and  O_38
REMARK   13  A    between atoms: O_38  and  C_39
REMARK                            x       y       z     vdW  Elec       q    Type
REMARK                         _______ _______ _______ _____ _____    ______ ____
ROOT
ATOM      1  O   UNL     1     -38.629  26.207   2.619  0.00  0.00    -0.277 OA
ATOM      2  N   UNL     1     -38.687  24.779   0.822  0.00  0.00    -0.275 N 
ATOM      3  C   UNL     1     -39.840  25.134   0.021  0.00  0.00    +0.153 C 
ATOM      4  C   UNL     1     -38.270  23.681  -0.027  0.00  0.00    +0.096 C 
ATOM      5  C   UNL     1     -39.237  24.246  -1.074  0.00  0.00    +0.051 C 
ATOM      6  C   UNL     1     -38.168  25.253   1.995  0.00  0.00    +0.206 C 
ENDROOT
BRANCH   3   9
ATOM      7  O   UNL     1     -41.560  23.532   0.680  0.00  0.00    -0.273 OA
ATOM      8  N   UNL     1     -41.931  25.774   1.115  0.00  0.00    -0.299 N 
ATOM      9  C   UNL     1     -41.188  24.709   0.629  0.00  0.00    +0.241 C 
ATOM     10  H   UNL     1     -41.558  26.682   1.032  0.00  0.00    +0.150 HD
BRANCH   8  11
ATOM     11  C   UNL     1     -43.226  25.618   1.738  0.00  0.00    +0.116 C 
BRANCH  11  12
ATOM     12  C   UNL     1     -43.466  26.650   2.801  0.00  0.00    -0.003 C 
ATOM     13  C   UNL     1     -44.701  26.709   3.448  0.00  0.00    -0.003 C 
ATOM     14  C   UNL     1     -42.457  27.550   3.142  0.00  0.00    -0.003 C 
ATOM     15  C   UNL     1     -44.924  27.668   4.436  0.00  0.00    +0.003 C 
ATOM     16  C   UNL     1     -42.681  28.509   4.130  0.00  0.00    +0.003 C 
ATOM     17  C   UNL     1     -43.915  28.567   4.777  0.00  0.00    +0.036 C 
BRANCH  17  19
ATOM     18  N   UNL     1     -45.424  29.696   6.371  0.00  0.00    -0.381 N 
ATOM     19  C   UNL     1     -44.149  29.567   5.806  0.00  0.00    +0.160 C 
ATOM     20  H   UNL     1     -45.588  30.371   7.068  0.00  0.00    +0.157 HD
ATOM     21  H   UNL     1     -46.156  29.110   6.072  0.00  0.00    +0.157 HD
BRANCH  19  22
ATOM     22  N   UNL     1     -43.135  30.333   6.184  0.00  0.00    -0.118 NA
BRANCH  22  23
ATOM     23  O   UNL     1     -43.421  31.695   6.043  0.00  0.00    -0.264 OA
ATOM     24  H   UNL     1     -43.097  32.167   5.301  0.00  0.00    +0.247 HD
ENDBRANCH  22  23
ENDBRANCH  19  22
ENDBRANCH  17  19
ENDBRANCH  11  12
ENDBRANCH   8  11
ENDBRANCH   3   9
BRANCH   6  25
ATOM     25  C   UNL     1     -36.960  24.503   2.488  0.00  0.00    +0.018 C 
BRANCH  25  26
ATOM     26  C   UNL     1     -36.090  25.414   3.351  0.00  0.00    -0.011 C 
ATOM     27  C   UNL     1     -36.424  25.232   4.839  0.00  0.00    -0.002 C 
ATOM     28  C   UNL     1     -34.601  25.150   3.090  0.00  0.00    -0.002 C 
ATOM     29  C   UNL     1     -35.530  26.094   5.727  0.00  0.00    -0.000 C 
ATOM     30  C   UNL     1     -33.710  26.012   3.981  0.00  0.00    -0.000 C 
ATOM     31  C   UNL     1     -34.051  25.835   5.457  0.00  0.00    -0.000 C 
ENDBRANCH  25  26
BRANCH  25  32
ATOM     32  N   UNL     1     -37.434  23.368   3.263  0.00  0.00    +0.398 N 
ATOM     33  H   UNL     1     -38.448  23.304   3.174  0.00  0.00    -0.083 HD
ATOM     34  H   UNL     1     -37.170  23.509   4.238  0.00  0.00    -0.083 HD
BRANCH  32  35
ATOM     35  C   UNL     1     -36.834  22.126   2.795  0.00  0.00    +0.031 C 
BRANCH  35  37
ATOM     36  O   UNL     1     -35.586  22.193   4.884  0.00  0.00    -0.252 OA
ATOM     37  C   UNL     1     -35.829  21.651   3.815  0.00  0.00    +0.295 C 
BRANCH  37  38
ATOM     38  O   UNL     1     -35.231  20.515   3.343  0.00  0.00    -0.450 OA
BRANCH  38  39
ATOM     39  C   UNL     1     -35.268  20.344   1.922  0.00  0.00    +0.208 C 
ATOM     40  C   UNL     1     -34.075  19.516   1.495  0.00  0.00    +0.051 C 
ENDBRANCH  38  39
ENDBRANCH  37  38
ENDBRANCH  35  37
ENDBRANCH  32  35
ENDBRANCH  25  32
ENDBRANCH   6  25
TORSDOF 13
ENDMDL
MODEL 9
REMARK VINA RESULT:      -5.7      3.268      7.455
REMARK  Name = 5478933
REMARK  13 active torsions:
REMARK  status: ('A' for Active; 'I' for Inactive)
REMARK    1  A    between atoms: C_3  and  C_9
REMARK    2  A    between atoms: C_6  and  C_25
REMARK    3  A    between atoms: N_8  and  C_11
REMARK    4  A    between atoms: C_11  and  C_12
REMARK    5  A    between atoms: C_17  and  C_20
REMARK    6  A    between atoms: N_19  and  C_20
REMARK    7  A    between atoms: N_19  and  O_23
REMARK    8  A    between atoms: C_25  and  C_26
REMARK    9  A    between atoms: C_25  and  N_32
REMARK   10  A    between atoms: N_32  and  C_35
REMARK   11  A    between atoms: C_35  and  C_37
REMARK   12  A    between atoms: C_37  and  O_38
REMARK   13  A    between atoms: O_38  and  C_39
REMARK                            x       y       z     vdW  Elec       q    Type
REMARK                         _______ _______ _______ _____ _____    ______ ____
ROOT
ATOM      1  O   UNL     1     -34.005  26.873   5.690  0.00  0.00    -0.277 OA
ATOM      2  N   UNL     1     -32.742  27.269   3.814  0.00  0.00    -0.275 N 
ATOM      3  C   UNL     1     -31.691  28.195   4.185  0.00  0.00    +0.153 C 
ATOM      4  C   UNL     1     -32.346  27.171   2.424  0.00  0.00    +0.096 C 
ATOM      5  C   UNL     1     -31.032  27.839   2.847  0.00  0.00    +0.051 C 
ATOM      6  C   UNL     1     -33.785  26.702   4.493  0.00  0.00    +0.206 C 
ENDROOT
BRANCH   3   9
ATOM      7  O   UNL     1     -32.545  30.079   5.480  0.00  0.00    -0.273 OA
ATOM      8  N   UNL     1     -32.117  30.405   3.230  0.00  0.00    -0.299 N 
ATOM      9  C   UNL     1     -32.166  29.644   4.387  0.00  0.00    +0.241 C 
ATOM     10  H   UNL     1     -31.803  29.977   2.400  0.00  0.00    +0.150 HD
BRANCH   8  11
ATOM     11  C   UNL     1     -32.506  31.797   3.179  0.00  0.00    +0.116 C 
BRANCH  11  12
ATOM     12  C   UNL     1     -33.868  31.978   2.574  0.00  0.00    -0.003 C 
ATOM     13  C   UNL     1     -34.880  31.058   2.848  0.00  0.00    -0.003 C 
ATOM     14  C   UNL     1     -34.121  33.063   1.735  0.00  0.00    -0.003 C 
ATOM     15  C   UNL     1     -36.145  31.226   2.285  0.00  0.00    +0.003 C 
ATOM     16  C   UNL     1     -35.386  33.231   1.173  0.00  0.00    +0.003 C 
ATOM     17  C   UNL     1     -36.398  32.311   1.448  0.00  0.00    +0.036 C 
BRANCH  17  19
ATOM     18  N   UNL     1     -37.837  32.758  -0.508  0.00  0.00    -0.381 N 
ATOM     19  C   UNL     1     -37.717  32.485   0.861  0.00  0.00    +0.160 C 
ATOM     20  H   UNL     1     -38.727  32.877  -0.910  0.00  0.00    +0.157 HD
ATOM     21  H   UNL     1     -37.030  32.829  -1.067  0.00  0.00    +0.157 HD
BRANCH  19  22
ATOM     22  N   UNL     1     -38.777  32.376   1.648  0.00  0.00    -0.118 NA
BRANCH  22  23
ATOM     23  O   UNL     1     -39.770  31.564   1.089  0.00  0.00    -0.264 OA
ATOM     24  H   UNL     1     -39.631  31.161   0.255  0.00  0.00    +0.247 HD
ENDBRANCH  22  23
ENDBRANCH  19  22
ENDBRANCH  17  19
ENDBRANCH  11  12
ENDBRANCH   8  11
ENDBRANCH   3   9
BRANCH   6  25
ATOM     25  C   UNL     1     -34.674  25.831   3.648  0.00  0.00    +0.018 C 
BRANCH  25  26
ATOM     26  C   UNL     1     -34.578  24.377   4.107  0.00  0.00    -0.011 C 
ATOM     27  C   UNL     1     -35.307  24.181   5.443  0.00  0.00    -0.002 C 
ATOM     28  C   UNL     1     -35.138  23.431   3.035  0.00  0.00    -0.002 C 
ATOM     29  C   UNL     1     -35.270  22.724   5.897  0.00  0.00    -0.000 C 
ATOM     30  C   UNL     1     -35.101  21.976   3.493  0.00  0.00    -0.000 C 
ATOM     31  C   UNL     1     -35.819  21.786   4.826  0.00  0.00    -0.000 C 
ENDBRANCH  25  26
BRANCH  25  32
ATOM     32  N   UNL     1     -36.035  26.321   3.794  0.00  0.00    +0.398 N 
ATOM     33  H   UNL     1     -36.025  27.169   4.360  0.00  0.00    -0.083 HD
ATOM     34  H   UNL     1     -36.594  25.596   4.245  0.00  0.00    -0.083 HD
BRANCH  32  35
ATOM     35  C   UNL     1     -36.626  26.621   2.497  0.00  0.00    +0.031 C 
BRANCH  35  37
ATOM     36  O   UNL     1     -38.981  26.806   1.905  0.00  0.00    -0.252 OA
ATOM     37  C   UNL     1     -38.086  26.244   2.522  0.00  0.00    +0.295 C 
BRANCH  37  38
ATOM     38  O   UNL     1     -38.245  25.169   3.352  0.00  0.00    -0.450 OA
BRANCH  38  39
ATOM     39  C   UNL     1     -39.305  24.272   3.005  0.00  0.00    +0.208 C 
ATOM     40  C   UNL     1     -38.716  23.041   2.352  0.00  0.00    +0.051 C 
ENDBRANCH  38  39
ENDBRANCH  37  38
ENDBRANCH  35  37
ENDBRANCH  32  35
ENDBRANCH  25  32
ENDBRANCH   6  25
TORSDOF 13
ENDMDL
