MODEL 1
REMARK VINA RESULT:      -5.0      0.000      0.000
REMARK  Name = 21120670
REMARK  3 active torsions:
REMARK  status: ('A' for Active; 'I' for Inactive)
REMARK    1  A    between atoms: C_1  and  S_7
REMARK    2  A    between atoms: C_2  and  N_12
REMARK    3  A    between atoms: C_4  and  N_15
REMARK                            x       y       z     vdW  Elec       q    Type
REMARK                         _______ _______ _______ _____ _____    ______ ____
ROOT
ATOM      1  C   UNL     1     -36.231  24.001   3.522  0.00  0.00    +0.132 C 
ATOM      2  C   UNL     1     -35.838  24.198   4.845  0.00  0.00    +0.109 C 
ATOM      3  C   UNL     1     -36.130  22.735   2.945  0.00  0.00    +0.040 C 
ATOM      4  C   UNL     1     -35.635  21.665   3.692  0.00  0.00    +0.092 C 
ATOM      5  C   UNL     1     -35.345  23.128   5.593  0.00  0.00    +0.023 C 
ATOM      6  C   UNL     1     -35.244  21.862   5.016  0.00  0.00    +0.022 C 
ENDROOT
BRANCH   1   7
ATOM      7  S   UNL     1     -36.853  25.321   2.556  0.00  0.00    +0.044 S 
ATOM      8  O   UNL     1     -37.281  24.668   1.311  0.00  0.00    -0.065 OA
ATOM      9  O   UNL     1     -37.961  25.895   3.336  0.00  0.00    -0.065 OA
ATOM     10  O   UNL     1     -35.701  26.223   2.414  0.00  0.00    -0.065 OA
ENDBRANCH   1   7
BRANCH   2  12
ATOM     11  S   UNL     1     -33.473  26.580   6.081  0.00  0.00    +0.021 S 
ATOM     12  N   UNL     1     -35.930  25.459   5.447  0.00  0.00    -0.195 NA
ATOM     13  C   UNL     1     -34.879  25.925   5.712  0.00  0.00    +0.042 C 
ENDBRANCH   2  12
BRANCH   4  15
ATOM     14  S   UNL     1     -34.059  20.346   0.766  0.00  0.00    +0.021 S 
ATOM     15  N   UNL     1     -35.534  20.396   3.114  0.00  0.00    -0.196 NA
ATOM     16  C   UNL     1     -34.904  20.387   2.116  0.00  0.00    +0.041 C 
ENDBRANCH   4  15
TORSDOF 3
ENDMDL
MODEL 2
REMARK VINA RESULT:      -4.9      1.666      4.611
REMARK  Name = 21120670
REMARK  3 active torsions:
REMARK  status: ('A' for Active; 'I' for Inactive)
REMARK    1  A    between atoms: C_1  and  S_7
REMARK    2  A    between atoms: C_2  and  N_12
REMARK    3  A    between atoms: C_4  and  N_15
REMARK                            x       y       z     vdW  Elec       q    Type
REMARK                         _______ _______ _______ _____ _____    ______ ____
ROOT
ATOM      1  C   UNL     1     -36.759  24.766   3.733  0.00  0.00    +0.132 C 
ATOM      2  C   UNL     1     -36.319  23.456   3.922  0.00  0.00    +0.109 C 
ATOM      3  C   UNL     1     -36.040  25.829   4.278  0.00  0.00    +0.040 C 
ATOM      4  C   UNL     1     -34.881  25.582   5.014  0.00  0.00    +0.092 C 
ATOM      5  C   UNL     1     -35.160  23.209   4.656  0.00  0.00    +0.023 C 
ATOM      6  C   UNL     1     -34.440  24.273   5.202  0.00  0.00    +0.022 C 
ENDROOT
BRANCH   1   7
ATOM      7  S   UNL     1     -38.210  25.110   2.816  0.00  0.00    +0.044 S 
ATOM      8  O   UNL     1     -38.204  26.575   2.695  0.00  0.00    -0.065 OA
ATOM      9  O   UNL     1     -38.047  24.407   1.535  0.00  0.00    -0.065 OA
ATOM     10  O   UNL     1     -39.289  24.567   3.654  0.00  0.00    -0.065 OA
ENDBRANCH   1   7
BRANCH   2  12
ATOM     11  S   UNL     1     -35.415  20.519   2.092  0.00  0.00    +0.021 S 
ATOM     12  N   UNL     1     -37.024  22.372   3.385  0.00  0.00    -0.195 NA
ATOM     13  C   UNL     1     -36.329  21.590   2.837  0.00  0.00    +0.042 C 
ENDBRANCH   2  12
BRANCH   4  15
ATOM     14  S   UNL     1     -32.362  27.811   3.796  0.00  0.00    +0.021 S 
ATOM     15  N   UNL     1     -34.159  26.648   5.561  0.00  0.00    -0.196 NA
ATOM     16  C   UNL     1     -33.398  27.135   4.801  0.00  0.00    +0.041 C 
ENDBRANCH   4  15
TORSDOF 3
ENDMDL
MODEL 3
REMARK VINA RESULT:      -4.7      3.369      5.619
REMARK  Name = 21120670
REMARK  3 active torsions:
REMARK  status: ('A' for Active; 'I' for Inactive)
REMARK    1  A    between atoms: C_1  and  S_7
REMARK    2  A    between atoms: C_2  and  N_12
REMARK    3  A    between atoms: C_4  and  N_15
REMARK                            x       y       z     vdW  Elec       q    Type
REMARK                         _______ _______ _______ _____ _____    ______ ____
ROOT
ATOM      1  C   UNL     1     -35.023  25.119   4.441  0.00  0.00    +0.132 C 
ATOM      2  C   UNL     1     -34.829  25.820   3.251  0.00  0.00    +0.109 C 
ATOM      3  C   UNL     1     -34.339  25.501   5.595  0.00  0.00    +0.040 C 
ATOM      4  C   UNL     1     -33.459  26.583   5.558  0.00  0.00    +0.092 C 
ATOM      5  C   UNL     1     -33.950  26.902   3.214  0.00  0.00    +0.023 C 
ATOM      6  C   UNL     1     -33.265  27.284   4.369  0.00  0.00    +0.022 C 
ENDROOT
BRANCH   1   7
ATOM      7  S   UNL     1     -36.119  23.757   4.521  0.00  0.00    +0.044 S 
ATOM      8  O   UNL     1     -37.437  24.358   4.278  0.00  0.00    -0.065 OA
ATOM      9  O   UNL     1     -35.682  22.833   3.463  0.00  0.00    -0.065 OA
ATOM     10  O   UNL     1     -35.923  23.232   5.880  0.00  0.00    -0.065 OA
ENDBRANCH   1   7
BRANCH   2  12
ATOM     11  S   UNL     1     -37.071  27.482   1.013  0.00  0.00    +0.021 S 
ATOM     12  N   UNL     1     -35.504  25.457   2.079  0.00  0.00    -0.195 NA
ATOM     13  C   UNL     1     -36.167  26.326   1.635  0.00  0.00    +0.042 C 
ENDBRANCH   2  12
BRANCH   4  15
ATOM     14  S   UNL     1     -31.330  29.318   6.439  0.00  0.00    +0.021 S 
ATOM     15  N   UNL     1     -32.773  26.965   6.715  0.00  0.00    -0.196 NA
ATOM     16  C   UNL     1     -32.163  27.968   6.586  0.00  0.00    +0.041 C 
ENDBRANCH   4  15
TORSDOF 3
ENDMDL
MODEL 4
REMARK VINA RESULT:      -4.7      2.420      3.281
REMARK  Name = 21120670
REMARK  3 active torsions:
REMARK  status: ('A' for Active; 'I' for Inactive)
REMARK    1  A    between atoms: C_1  and  S_7
REMARK    2  A    between atoms: C_2  and  N_12
REMARK    3  A    between atoms: C_4  and  N_15
REMARK                            x       y       z     vdW  Elec       q    Type
REMARK                         _______ _______ _______ _____ _____    ______ ____
ROOT
ATOM      1  C   UNL     1     -35.350  23.293   3.532  0.00  0.00    +0.132 C 
ATOM      2  C   UNL     1     -34.853  24.144   2.546  0.00  0.00    +0.109 C 
ATOM      3  C   UNL     1     -35.507  21.933   3.264  0.00  0.00    +0.040 C 
ATOM      4  C   UNL     1     -35.168  21.425   2.011  0.00  0.00    +0.092 C 
ATOM      5  C   UNL     1     -34.512  23.636   1.293  0.00  0.00    +0.023 C 
ATOM      6  C   UNL     1     -34.669  22.276   1.025  0.00  0.00    +0.022 C 
ENDROOT
BRANCH   1   7
ATOM      7  S   UNL     1     -35.787  23.898   5.115  0.00  0.00    +0.044 S 
ATOM      8  O   UNL     1     -36.039  22.678   5.895  0.00  0.00    -0.065 OA
ATOM      9  O   UNL     1     -34.625  24.671   5.579  0.00  0.00    -0.065 OA
ATOM     10  O   UNL     1     -36.978  24.720   4.858  0.00  0.00    -0.065 OA
ENDBRANCH   1   7
BRANCH   2  12
ATOM     11  S   UNL     1     -36.360  27.133   1.284  0.00  0.00    +0.021 S 
ATOM     12  N   UNL     1     -34.686  25.513   2.789  0.00  0.00    -0.195 NA
ATOM     13  C   UNL     1     -35.403  26.192   2.143  0.00  0.00    +0.042 C 
ENDBRANCH   2  12
BRANCH   4  15
ATOM     14  S   UNL     1     -32.952  18.749   1.162  0.00  0.00    +0.021 S 
ATOM     15  N   UNL     1     -35.325  20.061   1.743  0.00  0.00    -0.196 NA
ATOM     16  C   UNL     1     -34.309  19.513   1.498  0.00  0.00    +0.041 C 
ENDBRANCH   4  15
TORSDOF 3
ENDMDL
MODEL 5
REMARK VINA RESULT:      -4.7      2.102      3.334
REMARK  Name = 21120670
REMARK  3 active torsions:
REMARK  status: ('A' for Active; 'I' for Inactive)
REMARK    1  A    between atoms: C_1  and  S_7
REMARK    2  A    between atoms: C_2  and  N_12
REMARK    3  A    between atoms: C_4  and  N_15
REMARK                            x       y       z     vdW  Elec       q    Type
REMARK                         _______ _______ _______ _____ _____    ______ ____
ROOT
ATOM      1  C   UNL     1     -35.825  24.508   3.713  0.00  0.00    +0.132 C 
ATOM      2  C   UNL     1     -37.053  24.681   3.077  0.00  0.00    +0.109 C 
ATOM      3  C   UNL     1     -35.272  23.233   3.827  0.00  0.00    +0.040 C 
ATOM      4  C   UNL     1     -35.948  22.130   3.305  0.00  0.00    +0.092 C 
ATOM      5  C   UNL     1     -37.729  23.579   2.554  0.00  0.00    +0.023 C 
ATOM      6  C   UNL     1     -37.176  22.303   2.668  0.00  0.00    +0.022 C 
ENDROOT
BRANCH   1   7
ATOM      7  S   UNL     1     -34.951  25.870   4.380  0.00  0.00    +0.044 S 
ATOM      8  O   UNL     1     -33.693  25.276   4.853  0.00  0.00    -0.065 OA
ATOM      9  O   UNL     1     -34.780  26.816   3.267  0.00  0.00    -0.065 OA
ATOM     10  O   UNL     1     -35.836  26.365   5.444  0.00  0.00    -0.065 OA
ENDBRANCH   1   7
BRANCH   2  12
ATOM     11  S   UNL     1     -40.403  25.924   2.901  0.00  0.00    +0.021 S 
ATOM     12  N   UNL     1     -37.630  25.951   2.950  0.00  0.00    -0.195 NA
ATOM     13  C   UNL     1     -38.810  25.927   2.930  0.00  0.00    +0.042 C 
ENDBRANCH   2  12
BRANCH   4  15
ATOM     14  S   UNL     1     -34.740  19.690   0.986  0.00  0.00    +0.021 S 
ATOM     15  N   UNL     1     -35.393  20.851   3.419  0.00  0.00    -0.196 NA
ATOM     16  C   UNL     1     -35.119  20.367   2.378  0.00  0.00    +0.041 C 
ENDBRANCH   4  15
TORSDOF 3
ENDMDL
MODEL 6
REMARK VINA RESULT:      -4.5      3.758      4.508
REMARK  Name = 21120670
REMARK  3 active torsions:
REMARK  status: ('A' for Active; 'I' for Inactive)
REMARK    1  A    between atoms: C_1  and  S_7
REMARK    2  A    between atoms: C_2  and  N_12
REMARK    3  A    between atoms: C_4  and  N_15
REMARK                            x       y       z     vdW  Elec       q    Type
REMARK                         _______ _______ _______ _____ _____    ______ ____
ROOT
ATOM      1  C   UNL     1     -35.818  25.703   3.953  0.00  0.00    +0.132 C 
ATOM      2  C   UNL     1     -35.717  26.677   2.960  0.00  0.00    +0.109 C 
ATOM      3  C   UNL     1     -37.003  24.984   4.106  0.00  0.00    +0.040 C 
ATOM      4  C   UNL     1     -38.087  25.239   3.266  0.00  0.00    +0.092 C 
ATOM      5  C   UNL     1     -36.800  26.932   2.120  0.00  0.00    +0.023 C 
ATOM      6  C   UNL     1     -37.986  26.212   2.273  0.00  0.00    +0.022 C 
ENDROOT
BRANCH   1   7
ATOM      7  S   UNL     1     -34.477  25.359   5.024  0.00  0.00    +0.044 S 
ATOM      8  O   UNL     1     -33.358  25.102   4.107  0.00  0.00    -0.065 OA
ATOM      9  O   UNL     1     -34.306  26.567   5.846  0.00  0.00    -0.065 OA
ATOM     10  O   UNL     1     -34.931  24.187   5.786  0.00  0.00    -0.065 OA
ENDBRANCH   1   7
BRANCH   2  12
ATOM     11  S   UNL     1     -34.930  30.158   2.716  0.00  0.00    +0.021 S 
ATOM     12  N   UNL     1     -34.538  27.413   2.786  0.00  0.00    -0.195 NA
ATOM     13  C   UNL     1     -34.718  28.579   2.758  0.00  0.00    +0.042 C 
ENDBRANCH   2  12
BRANCH   4  15
ATOM     14  S   UNL     1     -39.559  22.426   1.620  0.00  0.00    +0.021 S 
ATOM     15  N   UNL     1     -39.275  24.517   3.420  0.00  0.00    -0.196 NA
ATOM     16  C   UNL     1     -39.385  23.630   2.649  0.00  0.00    +0.041 C 
ENDBRANCH   4  15
TORSDOF 3
ENDMDL
MODEL 7
REMARK VINA RESULT:      -4.5      2.509      5.078
REMARK  Name = 21120670
REMARK  3 active torsions:
REMARK  status: ('A' for Active; 'I' for Inactive)
REMARK    1  A    between atoms: C_1  and  S_7
REMARK    2  A    between atoms: C_2  and  N_12
REMARK    3  A    between atoms: C_4  and  N_15
REMARK                            x       y       z     vdW  Elec       q    Type
REMARK                         _______ _______ _______ _____ _____    ______ ____
ROOT
ATOM      1  C   UNL     1     -35.648  25.989   3.607  0.00  0.00    +0.132 C 
ATOM      2  C   UNL     1     -35.540  25.207   4.757  0.00  0.00    +0.109 C 
ATOM      3  C   UNL     1     -34.767  27.050   3.400  0.00  0.00    +0.040 C 
ATOM      4  C   UNL     1     -33.778  27.330   4.344  0.00  0.00    +0.092 C 
ATOM      5  C   UNL     1     -34.551  25.486   5.699  0.00  0.00    +0.023 C 
ATOM      6  C   UNL     1     -33.669  26.548   5.493  0.00  0.00    +0.022 C 
ENDROOT
BRANCH   1   7
ATOM      7  S   UNL     1     -36.878  25.666   2.404  0.00  0.00    +0.044 S 
ATOM      8  O   UNL     1     -36.562  26.610   1.324  0.00  0.00    -0.065 OA
ATOM      9  O   UNL     1     -36.705  24.254   2.029  0.00  0.00    -0.065 OA
ATOM     10  O   UNL     1     -38.137  25.939   3.111  0.00  0.00    -0.065 OA
ENDBRANCH   1   7
BRANCH   2  12
ATOM     11  S   UNL     1     -35.144  21.819   5.832  0.00  0.00    +0.021 S 
ATOM     12  N   UNL     1     -36.412  24.136   4.988  0.00  0.00    -0.195 NA
ATOM     13  C   UNL     1     -35.862  23.156   5.346  0.00  0.00    +0.042 C 
ENDBRANCH   2  12
BRANCH   4  15
ATOM     14  S   UNL     1     -31.182  28.863   6.267  0.00  0.00    +0.021 S 
ATOM     15  N   UNL     1     -32.895  28.394   4.136  0.00  0.00    -0.196 NA
ATOM     16  C   UNL     1     -32.171  28.584   5.049  0.00  0.00    +0.041 C 
ENDBRANCH   4  15
TORSDOF 3
ENDMDL
MODEL 8
REMARK VINA RESULT:      -4.4      3.746      5.242
REMARK  Name = 21120670
REMARK  3 active torsions:
REMARK  status: ('A' for Active; 'I' for Inactive)
REMARK    1  A    between atoms: C_1  and  S_7
REMARK    2  A    between atoms: C_2  and  N_12
REMARK    3  A    between atoms: C_4  and  N_15
REMARK                            x       y       z     vdW  Elec       q    Type
REMARK                         _______ _______ _______ _____ _____    ______ ____
ROOT
ATOM      1  C   UNL     1     -33.480  27.248   4.702  0.00  0.00    +0.132 C 
ATOM      2  C   UNL     1     -34.088  27.729   3.543  0.00  0.00    +0.109 C 
ATOM      3  C   UNL     1     -34.007  26.134   5.354  0.00  0.00    +0.040 C 
ATOM      4  C   UNL     1     -35.143  25.502   4.849  0.00  0.00    +0.092 C 
ATOM      5  C   UNL     1     -35.224  27.097   3.037  0.00  0.00    +0.023 C 
ATOM      6  C   UNL     1     -35.751  25.983   3.690  0.00  0.00    +0.022 C 
ENDROOT
BRANCH   1   7
ATOM      7  S   UNL     1     -32.054  28.018   5.363  0.00  0.00    +0.044 S 
ATOM      8  O   UNL     1     -31.757  27.224   6.563  0.00  0.00    -0.065 OA
ATOM      9  O   UNL     1     -31.027  27.917   4.315  0.00  0.00    -0.065 OA
ATOM     10  O   UNL     1     -32.493  29.395   5.629  0.00  0.00    -0.065 OA
ENDBRANCH   1   7
BRANCH   2  12
ATOM     11  S   UNL     1     -35.426  30.886   2.522  0.00  0.00    +0.021 S 
ATOM     12  N   UNL     1     -33.579  28.846   2.869  0.00  0.00    -0.195 NA
ATOM     13  C   UNL     1     -34.374  29.707   2.727  0.00  0.00    +0.042 C 
ENDBRANCH   2  12
BRANCH   4  15
ATOM     14  S   UNL     1     -35.716  22.088   3.949  0.00  0.00    +0.021 S 
ATOM     15  N   UNL     1     -35.671  24.384   5.504  0.00  0.00    -0.196 NA
ATOM     16  C   UNL     1     -35.685  23.414   4.833  0.00  0.00    +0.041 C 
ENDBRANCH   4  15
TORSDOF 3
ENDMDL
MODEL 9
REMARK VINA RESULT:      -4.4      2.451      5.143
REMARK  Name = 21120670
REMARK  3 active torsions:
REMARK  status: ('A' for Active; 'I' for Inactive)
REMARK    1  A    between atoms: C_1  and  S_7
REMARK    2  A    between atoms: C_2  and  N_12
REMARK    3  A    between atoms: C_4  and  N_15
REMARK                            x       y       z     vdW  Elec       q    Type
REMARK                         _______ _______ _______ _____ _____    ______ ____
ROOT
ATOM      1  C   UNL     1     -38.180  22.748   2.391  0.00  0.00    +0.132 C 
ATOM      2  C   UNL     1     -37.113  21.850   2.433  0.00  0.00    +0.109 C 
ATOM      3  C   UNL     1     -38.082  23.978   3.041  0.00  0.00    +0.040 C 
ATOM      4  C   UNL     1     -36.918  24.310   3.735  0.00  0.00    +0.092 C 
ATOM      5  C   UNL     1     -35.949  22.182   3.125  0.00  0.00    +0.023 C 
ATOM      6  C   UNL     1     -35.851  23.413   3.776  0.00  0.00    +0.022 C 
ENDROOT
BRANCH   1   7
ATOM      7  S   UNL     1     -39.655  22.362   1.532  0.00  0.00    +0.044 S 
ATOM      8  O   UNL     1     -39.210  22.181   0.144  0.00  0.00    -0.065 OA
ATOM      9  O   UNL     1     -40.168  21.133   2.156  0.00  0.00    -0.065 OA
ATOM     10  O   UNL     1     -40.507  23.538   1.757  0.00  0.00    -0.065 OA
ENDBRANCH   1   7
BRANCH   2  12
ATOM     11  S   UNL     1     -34.728  19.631   0.956  0.00  0.00    +0.021 S 
ATOM     12  N   UNL     1     -37.186  20.609   1.789  0.00  0.00    -0.195 NA
ATOM     13  C   UNL     1     -36.135  20.203   1.439  0.00  0.00    +0.042 C 
ENDBRANCH   2  12
BRANCH   4  15
ATOM     14  S   UNL     1     -34.384  25.957   5.647  0.00  0.00    +0.021 S 
ATOM     15  N   UNL     1     -36.820  25.543   4.387  0.00  0.00    -0.196 NA
ATOM     16  C   UNL     1     -35.779  25.708   4.919  0.00  0.00    +0.041 C 
ENDBRANCH   4  15
TORSDOF 3
ENDMDL
