MODEL 1
REMARK VINA RESULT:      -8.0      0.000      0.000
REMARK  Name = 1893730
REMARK  3 active torsions:
REMARK  status: ('A' for Active; 'I' for Inactive)
REMARK    1  A    between atoms: N_1  and  S_24
REMARK    2  A    between atoms: N_2  and  C_18
REMARK    3  A    between atoms: S_24  and  C_27
REMARK                            x       y       z     vdW  Elec       q    Type
REMARK                         _______ _______ _______ _____ _____    ______ ____
ROOT
ATOM      1  N   UNL     1     -38.851  21.380   1.811  0.00  0.00    -0.186 N 
ATOM      2  N   UNL     1     -37.488  23.333   3.340  0.00  0.00    -0.285 N 
ATOM      3  N   UNL     1     -40.523  22.968   1.347  0.00  0.00    -0.379 NA
ATOM      4  N   UNL     1     -39.202  24.901   2.844  0.00  0.00    -0.380 NA
ATOM      5  C   UNL     1     -39.359  22.704   1.969  0.00  0.00    +0.243 C 
ATOM      6  C   UNL     1     -38.708  23.657   2.706  0.00  0.00    +0.229 C 
ATOM      7  C   UNL     1     -41.033  24.206   1.472  0.00  0.00    +0.163 C 
ATOM      8  C   UNL     1     -40.364  25.184   2.230  0.00  0.00    +0.163 C 
ATOM      9  C   UNL     1     -42.234  24.535   0.849  0.00  0.00    +0.035 C 
ATOM     10  C   UNL     1     -40.922  26.456   2.337  0.00  0.00    +0.035 C 
ATOM     11  C   UNL     1     -42.784  25.811   0.964  0.00  0.00    +0.003 C 
ATOM     12  C   UNL     1     -42.125  26.775   1.711  0.00  0.00    +0.003 C 
ATOM     13  H   UNL     1     -38.799  20.767   2.581  0.00  0.00    +0.176 HD
ATOM     14  H   UNL     1     -37.416  22.386   3.600  0.00  0.00    +0.155 HD
ENDROOT
BRANCH   2  18
ATOM     15  S   UNL     1     -32.556  26.909   3.188  0.00  0.00    +0.117 S 
ATOM     16  N   UNL     1     -33.717  26.216   2.222  0.00  0.00    -0.190 NA
ATOM     17  N   UNL     1     -33.022  26.352   4.681  0.00  0.00    -0.190 NA
ATOM     18  C   UNL     1     -36.356  24.100   3.673  0.00  0.00    +0.052 C 
ATOM     19  C   UNL     1     -35.654  24.758   2.642  0.00  0.00    +0.036 C 
ATOM     20  C   UNL     1     -35.962  24.181   5.036  0.00  0.00    +0.016 C 
ATOM     21  C   UNL     1     -34.524  25.515   3.036  0.00  0.00    +0.110 A 
ATOM     22  C   UNL     1     -34.113  25.595   4.485  0.00  0.00    +0.109 A 
ATOM     23  C   UNL     1     -34.851  24.915   5.485  0.00  0.00    +0.023 C 
ENDBRANCH   2  18
BRANCH   1  24
ATOM     24  S   UNL     1     -38.330  20.870   0.251  0.00  0.00    +0.076 S 
ATOM     25  O   UNL     1     -39.167  19.770  -0.192  0.00  0.00    -0.150 OA
ATOM     26  O   UNL     1     -38.139  22.022  -0.609  0.00  0.00    -0.150 OA
BRANCH  24  27
ATOM     27  C   UNL     1     -36.734  20.190   0.603  0.00  0.00    +0.125 C 
ATOM     28  C   UNL     1     -36.050  20.624   1.724  0.00  0.00    +0.020 C 
ATOM     29  C   UNL     1     -36.203  19.239  -0.250  0.00  0.00    +0.020 C 
ATOM     30  C   UNL     1     -34.240  19.129   1.153  0.00  0.00    -0.022 C 
ATOM     31  C   UNL     1     -34.791  20.089   2.001  0.00  0.00    -0.003 C 
ATOM     32  C   UNL     1     -34.945  18.704   0.027  0.00  0.00    -0.003 C 
ATOM     33  C   UNL     1     -32.895  18.556   1.450  0.00  0.00    +0.031 C 
ENDBRANCH  24  27
ENDBRANCH   1  24
TORSDOF 3
ENDMDL
MODEL 2
REMARK VINA RESULT:      -7.8      5.998     11.120
REMARK  Name = 1893730
REMARK  3 active torsions:
REMARK  status: ('A' for Active; 'I' for Inactive)
REMARK    1  A    between atoms: N_1  and  S_24
REMARK    2  A    between atoms: N_2  and  C_18
REMARK    3  A    between atoms: S_24  and  C_27
REMARK                            x       y       z     vdW  Elec       q    Type
REMARK                         _______ _______ _______ _____ _____    ______ ____
ROOT
ATOM      1  N   UNL     1     -32.238  30.915   4.916  0.00  0.00    -0.186 N 
ATOM      2  N   UNL     1     -32.941  28.192   5.242  0.00  0.00    -0.285 N 
ATOM      3  N   UNL     1     -30.083  30.412   5.713  0.00  0.00    -0.379 NA
ATOM      4  N   UNL     1     -30.752  27.735   6.041  0.00  0.00    -0.380 NA
ATOM      5  C   UNL     1     -31.311  29.950   5.411  0.00  0.00    +0.243 C 
ATOM      6  C   UNL     1     -31.640  28.631   5.573  0.00  0.00    +0.229 C 
ATOM      7  C   UNL     1     -29.181  29.532   6.182  0.00  0.00    +0.163 C 
ATOM      8  C   UNL     1     -29.520  28.177   6.348  0.00  0.00    +0.163 C 
ATOM      9  C   UNL     1     -27.895  29.954   6.510  0.00  0.00    +0.035 C 
ATOM     10  C   UNL     1     -28.560  27.294   6.837  0.00  0.00    +0.035 C 
ATOM     11  C   UNL     1     -26.942  29.062   6.999  0.00  0.00    +0.003 C 
ATOM     12  C   UNL     1     -27.276  27.726   7.163  0.00  0.00    +0.003 C 
ATOM     13  H   UNL     1     -33.033  31.164   5.443  0.00  0.00    +0.176 HD
ATOM     14  H   UNL     1     -33.633  28.883   5.359  0.00  0.00    +0.155 HD
ENDROOT
BRANCH   2  18
ATOM     15  S   UNL     1     -35.551  22.707   4.769  0.00  0.00    +0.117 S 
ATOM     16  N   UNL     1     -35.207  23.918   5.853  0.00  0.00    -0.190 NA
ATOM     17  N   UNL     1     -34.905  23.343   3.378  0.00  0.00    -0.190 NA
ATOM     18  C   UNL     1     -33.441  26.962   4.776  0.00  0.00    +0.052 C 
ATOM     19  C   UNL     1     -34.085  26.101   5.689  0.00  0.00    +0.036 C 
ATOM     20  C   UNL     1     -33.278  26.633   3.404  0.00  0.00    +0.016 C 
ATOM     21  C   UNL     1     -34.569  24.878   5.165  0.00  0.00    +0.110 A 
ATOM     22  C   UNL     1     -34.390  24.538   3.706  0.00  0.00    +0.109 A 
ATOM     23  C   UNL     1     -33.736  25.436   2.828  0.00  0.00    +0.023 C 
ENDBRANCH   2  18
BRANCH   1  24
ATOM     24  S   UNL     1     -31.946  31.637   3.380  0.00  0.00    +0.076 S 
ATOM     25  O   UNL     1     -31.439  32.983   3.578  0.00  0.00    -0.150 OA
ATOM     26  O   UNL     1     -31.222  30.713   2.528  0.00  0.00    -0.150 OA
BRANCH  24  27
ATOM     27  C   UNL     1     -33.585  31.796   2.733  0.00  0.00    +0.125 C 
ATOM     28  C   UNL     1     -34.550  30.881   3.112  0.00  0.00    +0.020 C 
ATOM     29  C   UNL     1     -33.868  32.832   1.861  0.00  0.00    +0.020 C 
ATOM     30  C   UNL     1     -36.148  32.044   1.722  0.00  0.00    -0.022 C 
ATOM     31  C   UNL     1     -35.843  31.006   2.602  0.00  0.00    -0.003 C 
ATOM     32  C   UNL     1     -35.160  32.957   1.351  0.00  0.00    -0.003 C 
ATOM     33  C   UNL     1     -37.529  32.178   1.176  0.00  0.00    +0.031 C 
ENDBRANCH  24  27
ENDBRANCH   1  24
TORSDOF 3
ENDMDL
MODEL 3
REMARK VINA RESULT:      -7.8      1.729      2.265
REMARK  Name = 1893730
REMARK  3 active torsions:
REMARK  status: ('A' for Active; 'I' for Inactive)
REMARK    1  A    between atoms: N_1  and  S_24
REMARK    2  A    between atoms: N_2  and  C_18
REMARK    3  A    between atoms: S_24  and  C_27
REMARK                            x       y       z     vdW  Elec       q    Type
REMARK                         _______ _______ _______ _____ _____    ______ ____
ROOT
ATOM      1  N   UNL     1     -36.200  21.865   1.830  0.00  0.00    -0.186 N 
ATOM      2  N   UNL     1     -35.593  23.926   3.672  0.00  0.00    -0.285 N 
ATOM      3  N   UNL     1     -38.318  22.836   1.503  0.00  0.00    -0.379 NA
ATOM      4  N   UNL     1     -37.742  24.869   3.308  0.00  0.00    -0.380 NA
ATOM      5  C   UNL     1     -37.133  22.899   2.139  0.00  0.00    +0.243 C 
ATOM      6  C   UNL     1     -36.850  23.901   3.029  0.00  0.00    +0.229 C 
ATOM      7  C   UNL     1     -39.223  23.794   1.768  0.00  0.00    +0.163 C 
ATOM      8  C   UNL     1     -38.931  24.823   2.682  0.00  0.00    +0.163 C 
ATOM      9  C   UNL     1     -40.465  23.779   1.138  0.00  0.00    +0.035 C 
ATOM     10  C   UNL     1     -39.894  25.799   2.933  0.00  0.00    +0.035 C 
ATOM     11  C   UNL     1     -41.421  24.761   1.397  0.00  0.00    +0.003 C 
ATOM     12  C   UNL     1     -41.133  25.774   2.298  0.00  0.00    +0.003 C 
ATOM     13  H   UNL     1     -35.939  21.203   2.512  0.00  0.00    +0.176 HD
ATOM     14  H   UNL     1     -35.198  23.034   3.804  0.00  0.00    +0.155 HD
ENDROOT
BRANCH   2  18
ATOM     15  S   UNL     1     -31.854  28.708   4.208  0.00  0.00    +0.117 S 
ATOM     16  N   UNL     1     -32.572  27.710   3.090  0.00  0.00    -0.190 NA
ATOM     17  N   UNL     1     -32.446  28.067   5.621  0.00  0.00    -0.190 NA
ATOM     18  C   UNL     1     -34.794  24.977   4.159  0.00  0.00    +0.052 C 
ATOM     19  C   UNL     1     -34.099  25.786   3.236  0.00  0.00    +0.036 C 
ATOM     20  C   UNL     1     -34.717  25.183   5.562  0.00  0.00    +0.016 C 
ATOM     21  C   UNL     1     -33.311  26.829   3.783  0.00  0.00    +0.110 A 
ATOM     22  C   UNL     1     -33.236  27.039   5.275  0.00  0.00    +0.109 A 
ATOM     23  C   UNL     1     -33.952  26.199   6.162  0.00  0.00    +0.023 C 
ENDBRANCH   2  18
BRANCH   1  24
ATOM     24  S   UNL     1     -35.537  21.792   0.242  0.00  0.00    +0.076 S 
ATOM     25  O   UNL     1     -36.479  21.120  -0.634  0.00  0.00    -0.150 OA
ATOM     26  O   UNL     1     -35.004  23.088  -0.133  0.00  0.00    -0.150 OA
BRANCH  24  27
ATOM     27  C   UNL     1     -34.170  20.691   0.468  0.00  0.00    +0.125 C 
ATOM     28  C   UNL     1     -32.960  20.988  -0.131  0.00  0.00    +0.020 C 
ATOM     29  C   UNL     1     -34.341  19.554   1.238  0.00  0.00    +0.020 C 
ATOM     30  C   UNL     1     -32.035  18.968   0.819  0.00  0.00    -0.022 C 
ATOM     31  C   UNL     1     -31.882  20.119   0.046  0.00  0.00    -0.003 C 
ATOM     32  C   UNL     1     -33.264  18.685   1.415  0.00  0.00    -0.003 C 
ATOM     33  C   UNL     1     -30.883  18.040   1.010  0.00  0.00    +0.031 C 
ENDBRANCH  24  27
ENDBRANCH   1  24
TORSDOF 3
ENDMDL
MODEL 4
REMARK VINA RESULT:      -7.7      3.365      5.995
REMARK  Name = 1893730
REMARK  3 active torsions:
REMARK  status: ('A' for Active; 'I' for Inactive)
REMARK    1  A    between atoms: N_1  and  S_24
REMARK    2  A    between atoms: N_2  and  C_18
REMARK    3  A    between atoms: S_24  and  C_27
REMARK                            x       y       z     vdW  Elec       q    Type
REMARK                         _______ _______ _______ _____ _____    ______ ____
ROOT
ATOM      1  N   UNL     1     -38.195  21.569   2.347  0.00  0.00    -0.186 N 
ATOM      2  N   UNL     1     -35.500  20.720   2.171  0.00  0.00    -0.285 N 
ATOM      3  N   UNL     1     -37.484  23.431   3.595  0.00  0.00    -0.379 NA
ATOM      4  N   UNL     1     -34.832  22.616   3.436  0.00  0.00    -0.380 NA
ATOM      5  C   UNL     1     -37.130  22.308   2.945  0.00  0.00    +0.243 C 
ATOM      6  C   UNL     1     -35.824  21.906   2.866  0.00  0.00    +0.229 C 
ATOM      7  C   UNL     1     -36.508  24.155   4.171  0.00  0.00    +0.163 C 
ATOM      8  C   UNL     1     -35.166  23.742   4.091  0.00  0.00    +0.163 C 
ATOM      9  C   UNL     1     -36.817  25.327   4.858  0.00  0.00    +0.035 C 
ATOM     10  C   UNL     1     -34.181  24.517   4.700  0.00  0.00    +0.035 C 
ATOM     11  C   UNL     1     -35.823  26.095   5.464  0.00  0.00    +0.003 C 
ATOM     12  C   UNL     1     -34.500  25.687   5.385  0.00  0.00    +0.003 C 
ATOM     13  H   UNL     1     -38.435  20.674   2.683  0.00  0.00    +0.176 HD
ATOM     14  H   UNL     1     -36.215  20.043   2.190  0.00  0.00    +0.155 HD
ENDROOT
BRANCH   2  18
ATOM     15  S   UNL     1     -30.659  17.689   0.050  0.00  0.00    +0.117 S 
ATOM     16  N   UNL     1     -31.885  17.605   1.167  0.00  0.00    -0.190 NA
ATOM     17  N   UNL     1     -30.987  19.153  -0.662  0.00  0.00    -0.190 NA
ATOM     18  C   UNL     1     -34.357  20.317   1.457  0.00  0.00    +0.052 C 
ATOM     19  C   UNL     1     -33.755  19.082   1.778  0.00  0.00    +0.036 C 
ATOM     20  C   UNL     1     -33.850  21.169   0.440  0.00  0.00    +0.016 C 
ATOM     21  C   UNL     1     -32.608  18.728   1.027  0.00  0.00    +0.110 A 
ATOM     22  C   UNL     1     -32.078  19.640  -0.051  0.00  0.00    +0.109 A 
ATOM     23  C   UNL     1     -32.717  20.871  -0.336  0.00  0.00    +0.023 C 
ENDBRANCH   2  18
BRANCH   1  24
ATOM     24  S   UNL     1     -39.052  22.268   1.026  0.00  0.00    +0.076 S 
ATOM     25  O   UNL     1     -40.372  22.667   1.477  0.00  0.00    -0.150 OA
ATOM     26  O   UNL     1     -38.207  23.223   0.336  0.00  0.00    -0.150 OA
BRANCH  24  27
ATOM     27  C   UNL     1     -39.275  20.874  -0.042  0.00  0.00    +0.125 C 
ATOM     28  C   UNL     1     -38.293  19.902  -0.094  0.00  0.00    +0.020 C 
ATOM     29  C   UNL     1     -40.427  20.787  -0.803  0.00  0.00    +0.020 C 
ATOM     30  C   UNL     1     -39.623  18.698  -1.713  0.00  0.00    -0.022 C 
ATOM     31  C   UNL     1     -38.468  18.804  -0.937  0.00  0.00    -0.003 C 
ATOM     32  C   UNL     1     -40.603  19.689  -1.646  0.00  0.00    -0.003 C 
ATOM     33  C   UNL     1     -39.811  17.524  -2.613  0.00  0.00    +0.031 C 
ENDBRANCH  24  27
ENDBRANCH   1  24
TORSDOF 3
ENDMDL
MODEL 5
REMARK VINA RESULT:      -7.7      3.327      5.740
REMARK  Name = 1893730
REMARK  3 active torsions:
REMARK  status: ('A' for Active; 'I' for Inactive)
REMARK    1  A    between atoms: N_1  and  S_24
REMARK    2  A    between atoms: N_2  and  C_18
REMARK    3  A    between atoms: S_24  and  C_27
REMARK                            x       y       z     vdW  Elec       q    Type
REMARK                         _______ _______ _______ _____ _____    ______ ____
ROOT
ATOM      1  N   UNL     1     -38.067  21.129   2.150  0.00  0.00    -0.186 N 
ATOM      2  N   UNL     1     -35.316  20.466   2.082  0.00  0.00    -0.285 N 
ATOM      3  N   UNL     1     -37.524  23.086   3.336  0.00  0.00    -0.379 NA
ATOM      4  N   UNL     1     -34.818  22.454   3.281  0.00  0.00    -0.380 NA
ATOM      5  C   UNL     1     -37.074  21.965   2.743  0.00  0.00    +0.243 C 
ATOM      6  C   UNL     1     -35.741  21.654   2.717  0.00  0.00    +0.229 C 
ATOM      7  C   UNL     1     -36.618  23.900   3.906  0.00  0.00    +0.163 C 
ATOM      8  C   UNL     1     -35.249  23.580   3.878  0.00  0.00    +0.163 C 
ATOM      9  C   UNL     1     -37.027  25.075   4.533  0.00  0.00    +0.035 C 
ATOM     10  C   UNL     1     -34.338  24.446   4.480  0.00  0.00    +0.035 C 
ATOM     11  C   UNL     1     -36.107  25.934   5.132  0.00  0.00    +0.003 C 
ATOM     12  C   UNL     1     -34.758  25.619   5.105  0.00  0.00    +0.003 C 
ATOM     13  H   UNL     1     -38.254  20.234   2.517  0.00  0.00    +0.176 HD
ATOM     14  H   UNL     1     -35.982  19.742   2.110  0.00  0.00    +0.155 HD
ENDROOT
BRANCH   2  18
ATOM     15  S   UNL     1     -30.299  17.624   0.110  0.00  0.00    +0.117 S 
ATOM     16  N   UNL     1     -31.582  17.469   1.154  0.00  0.00    -0.190 NA
ATOM     17  N   UNL     1     -30.622  19.109  -0.560  0.00  0.00    -0.190 NA
ATOM     18  C   UNL     1     -34.127  20.116   1.416  0.00  0.00    +0.052 C 
ATOM     19  C   UNL     1     -33.515  18.882   1.720  0.00  0.00    +0.036 C 
ATOM     20  C   UNL     1     -33.585  21.019   0.463  0.00  0.00    +0.016 C 
ATOM     21  C   UNL     1     -32.322  18.582   1.019  0.00  0.00    +0.110 A 
ATOM     22  C   UNL     1     -31.755  19.548   0.009  0.00  0.00    +0.109 A 
ATOM     23  C   UNL     1     -32.405  20.777  -0.261  0.00  0.00    +0.023 C 
ENDBRANCH   2  18
BRANCH   1  24
ATOM     24  S   UNL     1     -38.931  21.711   0.779  0.00  0.00    +0.076 S 
ATOM     25  O   UNL     1     -39.893  20.706   0.364  0.00  0.00    -0.150 OA
ATOM     26  O   UNL     1     -39.368  23.074   1.009  0.00  0.00    -0.150 OA
BRANCH  24  27
ATOM     27  C   UNL     1     -37.667  21.752  -0.459  0.00  0.00    +0.125 C 
ATOM     28  C   UNL     1     -37.108  22.967  -0.811  0.00  0.00    +0.020 C 
ATOM     29  C   UNL     1     -37.264  20.568  -1.050  0.00  0.00    +0.020 C 
ATOM     30  C   UNL     1     -35.692  21.815  -2.395  0.00  0.00    -0.022 C 
ATOM     31  C   UNL     1     -36.112  22.999  -1.788  0.00  0.00    -0.003 C 
ATOM     32  C   UNL     1     -36.268  20.599  -2.026  0.00  0.00    -0.003 C 
ATOM     33  C   UNL     1     -34.626  21.849  -3.438  0.00  0.00    +0.031 C 
ENDBRANCH  24  27
ENDBRANCH   1  24
TORSDOF 3
ENDMDL
MODEL 6
REMARK VINA RESULT:      -7.5      2.369      7.425
REMARK  Name = 1893730
REMARK  3 active torsions:
REMARK  status: ('A' for Active; 'I' for Inactive)
REMARK    1  A    between atoms: N_1  and  S_24
REMARK    2  A    between atoms: N_2  and  C_18
REMARK    3  A    between atoms: S_24  and  C_27
REMARK                            x       y       z     vdW  Elec       q    Type
REMARK                         _______ _______ _______ _____ _____    ______ ____
ROOT
ATOM      1  N   UNL     1     -39.180  23.081   2.430  0.00  0.00    -0.186 N 
ATOM      2  N   UNL     1     -37.128  21.134   2.314  0.00  0.00    -0.285 N 
ATOM      3  N   UNL     1     -37.756  24.446   3.711  0.00  0.00    -0.379 NA
ATOM      4  N   UNL     1     -35.728  22.548   3.611  0.00  0.00    -0.380 NA
ATOM      5  C   UNL     1     -37.914  23.279   3.060  0.00  0.00    +0.243 C 
ATOM      6  C   UNL     1     -36.916  22.344   3.011  0.00  0.00    +0.229 C 
ATOM      7  C   UNL     1     -36.576  24.670   4.317  0.00  0.00    +0.163 C 
ATOM      8  C   UNL     1     -35.551  23.709   4.267  0.00  0.00    +0.163 C 
ATOM      9  C   UNL     1     -36.357  25.861   5.006  0.00  0.00    +0.035 C 
ATOM     10  C   UNL     1     -34.342  23.974   4.907  0.00  0.00    +0.035 C 
ATOM     11  C   UNL     1     -35.143  26.116   5.643  0.00  0.00    +0.003 C 
ATOM     12  C   UNL     1     -34.132  25.169   5.593  0.00  0.00    +0.003 C 
ATOM     13  H   UNL     1     -39.797  22.384   2.752  0.00  0.00    +0.176 HD
ATOM     14  H   UNL     1     -38.067  20.840   2.309  0.00  0.00    +0.155 HD
ENDROOT
BRANCH   2  18
ATOM     15  S   UNL     1     -34.698  17.079  -1.530  0.00  0.00    +0.117 S 
ATOM     16  N   UNL     1     -36.115  17.860  -1.154  0.00  0.00    -0.190 NA
ATOM     17  N   UNL     1     -33.678  17.719  -0.386  0.00  0.00    -0.190 NA
ATOM     18  C   UNL     1     -36.260  20.267   1.626  0.00  0.00    +0.052 C 
ATOM     19  C   UNL     1     -36.765  19.514   0.546  0.00  0.00    +0.036 C 
ATOM     20  C   UNL     1     -34.905  20.182   2.045  0.00  0.00    +0.016 C 
ATOM     21  C   UNL     1     -35.847  18.660  -0.110  0.00  0.00    +0.110 A 
ATOM     22  C   UNL     1     -34.410  18.576   0.343  0.00  0.00    +0.109 A 
ATOM     23  C   UNL     1     -33.949  19.352   1.435  0.00  0.00    +0.023 C 
ENDBRANCH   2  18
BRANCH   1  24
ATOM     24  S   UNL     1     -39.608  24.081   1.094  0.00  0.00    +0.076 S 
ATOM     25  O   UNL     1     -38.519  25.001   0.824  0.00  0.00    -0.150 OA
ATOM     26  O   UNL     1     -40.149  23.270   0.021  0.00  0.00    -0.150 OA
BRANCH  24  27
ATOM     27  C   UNL     1     -40.934  25.040   1.768  0.00  0.00    +0.125 C 
ATOM     28  C   UNL     1     -40.705  25.807   2.895  0.00  0.00    +0.020 C 
ATOM     29  C   UNL     1     -42.173  25.003   1.153  0.00  0.00    +0.020 C 
ATOM     30  C   UNL     1     -43.007  26.538   2.821  0.00  0.00    -0.022 C 
ATOM     31  C   UNL     1     -41.751  26.562   3.427  0.00  0.00    -0.003 C 
ATOM     32  C   UNL     1     -43.218  25.758   1.684  0.00  0.00    -0.003 C 
ATOM     33  C   UNL     1     -44.125  27.346   3.388  0.00  0.00    +0.031 C 
ENDBRANCH  24  27
ENDBRANCH   1  24
TORSDOF 3
ENDMDL
MODEL 7
REMARK VINA RESULT:      -7.3      5.240      8.025
REMARK  Name = 1893730
REMARK  3 active torsions:
REMARK  status: ('A' for Active; 'I' for Inactive)
REMARK    1  A    between atoms: N_1  and  S_24
REMARK    2  A    between atoms: N_2  and  C_18
REMARK    3  A    between atoms: S_24  and  C_27
REMARK                            x       y       z     vdW  Elec       q    Type
REMARK                         _______ _______ _______ _____ _____    ______ ____
ROOT
ATOM      1  N   UNL     1     -35.100  28.323   3.750  0.00  0.00    -0.186 N 
ATOM      2  N   UNL     1     -32.630  29.189   4.829  0.00  0.00    -0.285 N 
ATOM      3  N   UNL     1     -35.191  30.301   2.480  0.00  0.00    -0.379 NA
ATOM      4  N   UNL     1     -32.769  31.170   3.527  0.00  0.00    -0.380 NA
ATOM      5  C   UNL     1     -34.507  29.566   3.376  0.00  0.00    +0.243 C 
ATOM      6  C   UNL     1     -33.313  29.995   3.892  0.00  0.00    +0.229 C 
ATOM      7  C   UNL     1     -34.664  31.479   2.102  0.00  0.00    +0.163 C 
ATOM      8  C   UNL     1     -33.438  31.919   2.633  0.00  0.00    +0.163 C 
ATOM      9  C   UNL     1     -35.329  32.281   1.178  0.00  0.00    +0.035 C 
ATOM     10  C   UNL     1     -32.922  33.145   2.219  0.00  0.00    +0.035 C 
ATOM     11  C   UNL     1     -34.803  33.506   0.771  0.00  0.00    +0.003 C 
ATOM     12  C   UNL     1     -33.595  33.940   1.294  0.00  0.00    +0.003 C 
ATOM     13  H   UNL     1     -35.429  28.180   4.667  0.00  0.00    +0.176 HD
ATOM     14  H   UNL     1     -33.226  28.634   5.382  0.00  0.00    +0.155 HD
ENDROOT
BRANCH   2  18
ATOM     15  S   UNL     1     -27.153  29.175   7.500  0.00  0.00    +0.117 S 
ATOM     16  N   UNL     1     -28.736  29.620   7.733  0.00  0.00    -0.190 NA
ATOM     17  N   UNL     1     -27.236  28.523   5.974  0.00  0.00    -0.190 NA
ATOM     18  C   UNL     1     -31.265  29.023   5.126  0.00  0.00    +0.052 C 
ATOM     19  C   UNL     1     -30.781  29.467   6.374  0.00  0.00    +0.036 C 
ATOM     20  C   UNL     1     -30.423  28.415   4.156  0.00  0.00    +0.016 C 
ATOM     21  C   UNL     1     -29.400  29.274   6.618  0.00  0.00    +0.110 A 
ATOM     22  C   UNL     1     -28.515  28.628   5.582  0.00  0.00    +0.109 A 
ATOM     23  C   UNL     1     -29.047  28.199   4.341  0.00  0.00    +0.023 C 
ENDBRANCH   2  18
BRANCH   1  24
ATOM     24  S   UNL     1     -35.228  27.076   2.569  0.00  0.00    +0.076 S 
ATOM     25  O   UNL     1     -36.529  27.161   1.930  0.00  0.00    -0.150 OA
ATOM     26  O   UNL     1     -34.028  27.036   1.757  0.00  0.00    -0.150 OA
BRANCH  24  27
ATOM     27  C   UNL     1     -35.246  25.621   3.577  0.00  0.00    +0.125 C 
ATOM     28  C   UNL     1     -35.172  24.381   2.969  0.00  0.00    +0.020 C 
ATOM     29  C   UNL     1     -35.334  25.753   4.951  0.00  0.00    +0.020 C 
ATOM     30  C   UNL     1     -35.275  23.347   5.151  0.00  0.00    -0.022 C 
ATOM     31  C   UNL     1     -35.188  23.233   3.763  0.00  0.00    -0.003 C 
ATOM     32  C   UNL     1     -35.349  24.607   5.745  0.00  0.00    -0.003 C 
ATOM     33  C   UNL     1     -35.291  22.121   6.000  0.00  0.00    +0.031 C 
ENDBRANCH  24  27
ENDBRANCH   1  24
TORSDOF 3
ENDMDL
MODEL 8
REMARK VINA RESULT:      -7.2      3.833      6.896
REMARK  Name = 1893730
REMARK  3 active torsions:
REMARK  status: ('A' for Active; 'I' for Inactive)
REMARK    1  A    between atoms: N_1  and  S_24
REMARK    2  A    between atoms: N_2  and  C_18
REMARK    3  A    between atoms: S_24  and  C_27
REMARK                            x       y       z     vdW  Elec       q    Type
REMARK                         _______ _______ _______ _____ _____    ______ ____
ROOT
ATOM      1  N   UNL     1     -36.867  22.080   0.080  0.00  0.00    -0.186 N 
ATOM      2  N   UNL     1     -35.490  19.722   0.825  0.00  0.00    -0.285 N 
ATOM      3  N   UNL     1     -36.571  22.895   2.266  0.00  0.00    -0.379 NA
ATOM      4  N   UNL     1     -35.218  20.587   3.020  0.00  0.00    -0.380 NA
ATOM      5  C   UNL     1     -36.358  21.888   1.399  0.00  0.00    +0.243 C 
ATOM      6  C   UNL     1     -35.691  20.752   1.771  0.00  0.00    +0.229 C 
ATOM      7  C   UNL     1     -36.106  22.751   3.520  0.00  0.00    +0.163 C 
ATOM      8  C   UNL     1     -35.421  21.583   3.901  0.00  0.00    +0.163 C 
ATOM      9  C   UNL     1     -36.297  23.761   4.459  0.00  0.00    +0.035 C 
ATOM     10  C   UNL     1     -34.953  21.468   5.208  0.00  0.00    +0.035 C 
ATOM     11  C   UNL     1     -35.825  23.636   5.765  0.00  0.00    +0.003 C 
ATOM     12  C   UNL     1     -35.151  22.484   6.140  0.00  0.00    +0.003 C 
ATOM     13  H   UNL     1     -37.603  21.520  -0.261  0.00  0.00    +0.176 HD
ATOM     14  H   UNL     1     -36.198  19.667   0.143  0.00  0.00    +0.155 HD
ENDROOT
BRANCH   2  18
ATOM     15  S   UNL     1     -32.259  14.777  -0.670  0.00  0.00    +0.117 S 
ATOM     16  N   UNL     1     -33.760  15.471  -0.824  0.00  0.00    -0.190 NA
ATOM     17  N   UNL     1     -31.470  15.937   0.219  0.00  0.00    -0.190 NA
ATOM     18  C   UNL     1     -34.476  18.759   0.668  0.00  0.00    +0.052 C 
ATOM     19  C   UNL     1     -34.763  17.582  -0.055  0.00  0.00    +0.036 C 
ATOM     20  C   UNL     1     -33.201  19.008   1.243  0.00  0.00    +0.016 C 
ATOM     21  C   UNL     1     -33.705  16.649  -0.182  0.00  0.00    +0.110 A 
ATOM     22  C   UNL     1     -32.355  16.923   0.433  0.00  0.00    +0.109 A 
ATOM     23  C   UNL     1     -32.116  18.120   1.151  0.00  0.00    +0.023 C 
ENDBRANCH   2  18
BRANCH   1  24
ATOM     24  S   UNL     1     -36.170  23.307  -0.909  0.00  0.00    +0.076 S 
ATOM     25  O   UNL     1     -36.713  23.199  -2.250  0.00  0.00    -0.150 OA
ATOM     26  O   UNL     1     -36.206  24.581  -0.217  0.00  0.00    -0.150 OA
BRANCH  24  27
ATOM     27  C   UNL     1     -34.480  22.788  -0.997  0.00  0.00    +0.125 C 
ATOM     28  C   UNL     1     -34.161  21.654  -1.721  0.00  0.00    +0.020 C 
ATOM     29  C   UNL     1     -33.513  23.527  -0.339  0.00  0.00    +0.020 C 
ATOM     30  C   UNL     1     -31.839  21.977  -1.133  0.00  0.00    -0.022 C 
ATOM     31  C   UNL     1     -32.828  21.245  -1.790  0.00  0.00    -0.003 C 
ATOM     32  C   UNL     1     -32.181  23.118  -0.407  0.00  0.00    -0.003 C 
ATOM     33  C   UNL     1     -30.415  21.540  -1.207  0.00  0.00    +0.031 C 
ENDBRANCH  24  27
ENDBRANCH   1  24
TORSDOF 3
ENDMDL
MODEL 9
REMARK VINA RESULT:      -7.2      3.292      7.197
REMARK  Name = 1893730
REMARK  3 active torsions:
REMARK  status: ('A' for Active; 'I' for Inactive)
REMARK    1  A    between atoms: N_1  and  S_24
REMARK    2  A    between atoms: N_2  and  C_18
REMARK    3  A    between atoms: S_24  and  C_27
REMARK                            x       y       z     vdW  Elec       q    Type
REMARK                         _______ _______ _______ _____ _____    ______ ____
ROOT
ATOM      1  N   UNL     1     -35.884  24.510   4.999  0.00  0.00    -0.186 N 
ATOM      2  N   UNL     1     -38.367  24.796   3.672  0.00  0.00    -0.285 N 
ATOM      3  N   UNL     1     -35.471  22.577   3.724  0.00  0.00    -0.379 NA
ATOM      4  N   UNL     1     -37.906  22.838   2.409  0.00  0.00    -0.380 NA
ATOM      5  C   UNL     1     -36.315  23.588   3.998  0.00  0.00    +0.243 C 
ATOM      6  C   UNL     1     -37.515  23.717   3.351  0.00  0.00    +0.229 C 
ATOM      7  C   UNL     1     -35.844  21.688   2.786  0.00  0.00    +0.163 C 
ATOM      8  C   UNL     1     -37.076  21.821   2.121  0.00  0.00    +0.163 C 
ATOM      9  C   UNL     1     -35.009  20.621   2.461  0.00  0.00    +0.035 C 
ATOM     10  C   UNL     1     -37.429  20.881   1.155  0.00  0.00    +0.035 C 
ATOM     11  C   UNL     1     -35.372  19.686   1.492  0.00  0.00    +0.003 C 
ATOM     12  C   UNL     1     -36.587  19.817   0.837  0.00  0.00    +0.003 C 
ATOM     13  H   UNL     1     -36.358  24.574   5.860  0.00  0.00    +0.176 HD
ATOM     14  H   UNL     1     -38.285  25.102   4.604  0.00  0.00    +0.155 HD
ENDROOT
BRANCH   2  18
ATOM     15  S   UNL     1     -43.377  27.659   1.713  0.00  0.00    +0.117 S 
ATOM     16  N   UNL     1     -42.760  26.804   2.996  0.00  0.00    -0.190 NA
ATOM     17  N   UNL     1     -42.074  27.657   0.683  0.00  0.00    -0.190 NA
ATOM     18  C   UNL     1     -39.311  25.520   2.920  0.00  0.00    +0.052 C 
ATOM     19  C   UNL     1     -40.590  25.745   3.470  0.00  0.00    +0.036 C 
ATOM     20  C   UNL     1     -38.940  25.997   1.634  0.00  0.00    +0.016 C 
ATOM     21  C   UNL     1     -41.498  26.480   2.669  0.00  0.00    +0.110 A 
ATOM     22  C   UNL     1     -41.095  26.981   1.305  0.00  0.00    +0.109 A 
ATOM     23  C   UNL     1     -39.798  26.729   0.796  0.00  0.00    +0.023 C 
ENDBRANCH   2  18
BRANCH   1  24
ATOM     24  S   UNL     1     -34.519  25.510   4.674  0.00  0.00    +0.076 S 
ATOM     25  O   UNL     1     -34.518  26.625   5.602  0.00  0.00    -0.150 OA
ATOM     26  O   UNL     1     -33.330  24.694   4.527  0.00  0.00    -0.150 OA
BRANCH  24  27
ATOM     27  C   UNL     1     -34.922  26.169   3.081  0.00  0.00    +0.125 C 
ATOM     28  C   UNL     1     -34.493  25.502   1.948  0.00  0.00    +0.020 C 
ATOM     29  C   UNL     1     -35.657  27.338   3.002  0.00  0.00    +0.020 C 
ATOM     30  C   UNL     1     -35.550  27.200   0.593  0.00  0.00    -0.022 C 
ATOM     31  C   UNL     1     -34.809  26.022   0.693  0.00  0.00    -0.003 C 
ATOM     32  C   UNL     1     -35.974  27.859   1.747  0.00  0.00    -0.003 C 
ATOM     33  C   UNL     1     -35.889  27.756  -0.749  0.00  0.00    +0.031 C 
ENDBRANCH  24  27
ENDBRANCH   1  24
TORSDOF 3
ENDMDL
