MODEL 1
REMARK VINA RESULT:      -6.6      0.000      0.000
REMARK  Name = 197437
REMARK  6 active torsions:
REMARK  status: ('A' for Active; 'I' for Inactive)
REMARK    1  A    between atoms: C_5  and  O_19
REMARK    2  A    between atoms: C_6  and  O_21
REMARK    3  A    between atoms: C_7  and  N_12
REMARK    4  A    between atoms: C_8  and  O_23
REMARK    5  A    between atoms: C_9  and  C_26
REMARK    6  A    between atoms: C_26  and  O_27
REMARK                            x       y       z     vdW  Elec       q    Type
REMARK                         _______ _______ _______ _____ _____    ______ ____
ROOT
ATOM      1  O   UNL     1     -35.607  25.916   2.787  0.00  0.00    -0.333 OA
ATOM      2  O   UNL     1     -33.680  27.128   5.550  0.00  0.00    -0.341 OA
ATOM      3  C   UNL     1     -34.819  26.904   3.446  0.00  0.00    +0.176 C 
ATOM      4  C   UNL     1     -34.280  26.197   4.671  0.00  0.00    +0.176 C 
ATOM      5  C   UNL     1     -35.531  25.500   5.157  0.00  0.00    +0.187 C 
ATOM      6  C   UNL     1     -33.671  27.490   2.642  0.00  0.00    +0.170 C 
ATOM      7  C   UNL     1     -36.151  25.056   3.823  0.00  0.00    +0.229 C 
ATOM      8  C   UNL     1     -32.899  28.432   3.585  0.00  0.00    +0.178 C 
ATOM      9  C   UNL     1     -32.547  27.751   4.923  0.00  0.00    +0.243 C 
ENDROOT
BRANCH   7  12
ATOM     10  O   UNL     1     -36.281  22.901   5.644  0.00  0.00    -0.252 OA
ATOM     11  O   UNL     1     -34.886  19.881   2.454  0.00  0.00    -0.270 OA
ATOM     12  N   UNL     1     -35.827  23.695   3.494  0.00  0.00    -0.217 N 
ATOM     13  N   UNL     1     -35.585  21.399   4.054  0.00  0.00    -0.236 N 
ATOM     14  C   UNL     1     -35.925  22.689   4.483  0.00  0.00    +0.315 C 
ATOM     15  C   UNL     1     -35.420  23.372   2.206  0.00  0.00    +0.076 C 
ATOM     16  C   UNL     1     -35.100  22.137   1.812  0.00  0.00    +0.074 C 
ATOM     17  C   UNL     1     -35.174  21.028   2.784  0.00  0.00    +0.254 C 
ATOM     18  H   UNL     1     -35.644  20.681   4.725  0.00  0.00    +0.159 HD
ENDBRANCH   7  12
BRANCH   5  19
ATOM     19  O   UNL     1     -36.402  26.388   5.848  0.00  0.00    -0.378 OA
ATOM     20  H   UNL     1     -36.518  26.083   6.762  0.00  0.00    +0.211 HD
ENDBRANCH   5  19
BRANCH   6  21
ATOM     21  O   UNL     1     -32.830  26.460   2.129  0.00  0.00    -0.379 OA
ATOM     22  H   UNL     1     -33.284  26.004   1.402  0.00  0.00    +0.211 HD
ENDBRANCH   6  21
BRANCH   8  23
ATOM     23  O   UNL     1     -31.704  28.879   2.955  0.00  0.00    -0.379 OA
ATOM     24  H   UNL     1     -30.936  28.539   3.441  0.00  0.00    +0.211 HD
ENDBRANCH   8  23
BRANCH   9  26
ATOM     25  O   UNL     1     -32.174  29.976   5.779  0.00  0.00    -0.247 OA
ATOM     26  C   UNL     1     -32.128  28.766   5.937  0.00  0.00    +0.344 C 
BRANCH  26  27
ATOM     27  O   UNL     1     -31.685  28.160   7.066  0.00  0.00    -0.478 OA
ATOM     28  H   UNL     1     -30.852  28.392   7.427  0.00  0.00    +0.295 HD
ENDBRANCH  26  27
ENDBRANCH   9  26
TORSDOF 6
ENDMDL
MODEL 2
REMARK VINA RESULT:      -6.4      2.126      2.646
REMARK  Name = 197437
REMARK  6 active torsions:
REMARK  status: ('A' for Active; 'I' for Inactive)
REMARK    1  A    between atoms: C_5  and  O_19
REMARK    2  A    between atoms: C_6  and  O_21
REMARK    3  A    between atoms: C_7  and  N_12
REMARK    4  A    between atoms: C_8  and  O_23
REMARK    5  A    between atoms: C_9  and  C_26
REMARK    6  A    between atoms: C_26  and  O_27
REMARK                            x       y       z     vdW  Elec       q    Type
REMARK                         _______ _______ _______ _____ _____    ______ ____
ROOT
ATOM      1  O   UNL     1     -37.562  25.328   2.796  0.00  0.00    -0.333 OA
ATOM      2  O   UNL     1     -35.078  27.785   3.574  0.00  0.00    -0.341 OA
ATOM      3  C   UNL     1     -37.010  26.640   2.721  0.00  0.00    +0.176 C 
ATOM      4  C   UNL     1     -35.642  26.507   3.356  0.00  0.00    +0.176 C 
ATOM      5  C   UNL     1     -35.987  25.689   4.580  0.00  0.00    +0.187 C 
ATOM      6  C   UNL     1     -36.878  27.233   1.329  0.00  0.00    +0.170 C 
ATOM      7  C   UNL     1     -37.019  24.713   3.995  0.00  0.00    +0.229 C 
ATOM      8  C   UNL     1     -36.158  28.586   1.486  0.00  0.00    +0.178 C 
ATOM      9  C   UNL     1     -34.869  28.462   2.324  0.00  0.00    +0.243 C 
ENDROOT
BRANCH   7  12
ATOM     10  O   UNL     1     -36.097  22.787   5.843  0.00  0.00    -0.252 OA
ATOM     11  O   UNL     1     -34.798  19.915   2.480  0.00  0.00    -0.270 OA
ATOM     12  N   UNL     1     -36.435  23.452   3.628  0.00  0.00    -0.217 N 
ATOM     13  N   UNL     1     -35.450  21.359   4.166  0.00  0.00    -0.236 N 
ATOM     14  C   UNL     1     -36.004  22.557   4.634  0.00  0.00    +0.315 C 
ATOM     15  C   UNL     1     -36.297  23.115   2.288  0.00  0.00    +0.076 C 
ATOM     16  C   UNL     1     -35.767  21.969   1.856  0.00  0.00    +0.074 C 
ATOM     17  C   UNL     1     -35.290  20.978   2.843  0.00  0.00    +0.254 C 
ATOM     18  H   UNL     1     -35.141  20.719   4.848  0.00  0.00    +0.159 HD
ENDBRANCH   7  12
BRANCH   5  19
ATOM     19  O   UNL     1     -36.569  26.484   5.607  0.00  0.00    -0.378 OA
ATOM     20  H   UNL     1     -36.906  27.310   5.225  0.00  0.00    +0.211 HD
ENDBRANCH   5  19
BRANCH   6  21
ATOM     21  O   UNL     1     -36.159  26.354   0.467  0.00  0.00    -0.379 OA
ATOM     22  H   UNL     1     -36.204  26.687  -0.443  0.00  0.00    +0.211 HD
ENDBRANCH   6  21
BRANCH   8  23
ATOM     23  O   UNL     1     -35.838  29.116   0.205  0.00  0.00    -0.379 OA
ATOM     24  H   UNL     1     -35.586  28.392  -0.391  0.00  0.00    +0.211 HD
ENDBRANCH   8  23
BRANCH   9  26
ATOM     25  O   UNL     1     -33.311  30.299   2.462  0.00  0.00    -0.247 OA
ATOM     26  C   UNL     1     -34.391  29.810   2.757  0.00  0.00    +0.344 C 
BRANCH  26  27
ATOM     27  O   UNL     1     -35.322  30.424   3.527  0.00  0.00    -0.478 OA
ATOM     28  H   UNL     1     -36.200  30.522   3.213  0.00  0.00    +0.295 HD
ENDBRANCH  26  27
ENDBRANCH   9  26
TORSDOF 6
ENDMDL
MODEL 3
REMARK VINA RESULT:      -6.3      2.254      6.762
REMARK  Name = 197437
REMARK  6 active torsions:
REMARK  status: ('A' for Active; 'I' for Inactive)
REMARK    1  A    between atoms: C_5  and  O_19
REMARK    2  A    between atoms: C_6  and  O_21
REMARK    3  A    between atoms: C_7  and  N_12
REMARK    4  A    between atoms: C_8  and  O_23
REMARK    5  A    between atoms: C_9  and  C_26
REMARK    6  A    between atoms: C_26  and  O_27
REMARK                            x       y       z     vdW  Elec       q    Type
REMARK                         _______ _______ _______ _____ _____    ______ ____
ROOT
ATOM      1  O   UNL     1     -36.299  25.370   4.524  0.00  0.00    -0.333 OA
ATOM      2  O   UNL     1     -35.752  22.690   2.215  0.00  0.00    -0.341 OA
ATOM      3  C   UNL     1     -36.350  23.998   4.140  0.00  0.00    +0.176 C 
ATOM      4  C   UNL     1     -35.575  23.946   2.840  0.00  0.00    +0.176 C 
ATOM      5  C   UNL     1     -36.147  25.153   2.131  0.00  0.00    +0.187 C 
ATOM      6  C   UNL     1     -35.768  23.004   5.128  0.00  0.00    +0.170 C 
ATOM      7  C   UNL     1     -36.258  26.147   3.298  0.00  0.00    +0.229 C 
ATOM      8  C   UNL     1     -35.823  21.619   4.455  0.00  0.00    +0.178 C 
ATOM      9  C   UNL     1     -35.216  21.640   3.038  0.00  0.00    +0.243 C 
ENDROOT
BRANCH   7  12
ATOM     10  O   UNL     1     -36.032  28.551   1.832  0.00  0.00    -0.252 OA
ATOM     11  O   UNL     1     -31.898  29.483   3.644  0.00  0.00    -0.270 OA
ATOM     12  N   UNL     1     -35.132  27.038   3.368  0.00  0.00    -0.217 N 
ATOM     13  N   UNL     1     -33.973  29.012   2.736  0.00  0.00    -0.236 N 
ATOM     14  C   UNL     1     -35.118  28.219   2.591  0.00  0.00    +0.315 C 
ATOM     15  C   UNL     1     -34.061  26.737   4.201  0.00  0.00    +0.076 C 
ATOM     16  C   UNL     1     -32.976  27.504   4.329  0.00  0.00    +0.074 C 
ATOM     17  C   UNL     1     -32.882  28.756   3.550  0.00  0.00    +0.254 C 
ATOM     18  H   UNL     1     -33.940  29.840   2.203  0.00  0.00    +0.159 HD
ENDBRANCH   7  12
BRANCH   5  19
ATOM     19  O   UNL     1     -37.427  24.887   1.572  0.00  0.00    -0.378 OA
ATOM     20  H   UNL     1     -37.534  25.393   0.751  0.00  0.00    +0.211 HD
ENDBRANCH   5  19
BRANCH   6  21
ATOM     21  O   UNL     1     -34.433  23.360   5.484  0.00  0.00    -0.379 OA
ATOM     22  H   UNL     1     -34.305  24.311   5.344  0.00  0.00    +0.211 HD
ENDBRANCH   6  21
BRANCH   8  23
ATOM     23  O   UNL     1     -35.129  20.664   5.251  0.00  0.00    -0.379 OA
ATOM     24  H   UNL     1     -34.536  21.126   5.865  0.00  0.00    +0.211 HD
ENDBRANCH   8  23
BRANCH   9  26
ATOM     25  O   UNL     1     -34.970  19.936   1.346  0.00  0.00    -0.247 OA
ATOM     26  C   UNL     1     -35.596  20.407   2.284  0.00  0.00    +0.344 C 
BRANCH  26  27
ATOM     27  O   UNL     1     -36.739  19.875   2.782  0.00  0.00    -0.478 OA
ATOM     28  H   UNL     1     -37.033  20.114   3.640  0.00  0.00    +0.295 HD
ENDBRANCH  26  27
ENDBRANCH   9  26
TORSDOF 6
ENDMDL
MODEL 4
REMARK VINA RESULT:      -6.2      2.855      4.438
REMARK  Name = 197437
REMARK  6 active torsions:
REMARK  status: ('A' for Active; 'I' for Inactive)
REMARK    1  A    between atoms: C_5  and  O_19
REMARK    2  A    between atoms: C_6  and  O_21
REMARK    3  A    between atoms: C_7  and  N_12
REMARK    4  A    between atoms: C_8  and  O_23
REMARK    5  A    between atoms: C_9  and  C_26
REMARK    6  A    between atoms: C_26  and  O_27
REMARK                            x       y       z     vdW  Elec       q    Type
REMARK                         _______ _______ _______ _____ _____    ______ ____
ROOT
ATOM      1  O   UNL     1     -36.748  24.013   4.540  0.00  0.00    -0.333 OA
ATOM      2  O   UNL     1     -34.017  25.013   2.453  0.00  0.00    -0.341 OA
ATOM      3  C   UNL     1     -35.439  24.538   4.330  0.00  0.00    +0.176 C 
ATOM      4  C   UNL     1     -35.350  24.729   2.831  0.00  0.00    +0.176 C 
ATOM      5  C   UNL     1     -35.937  23.421   2.352  0.00  0.00    +0.187 C 
ATOM      6  C   UNL     1     -35.120  25.843   5.037  0.00  0.00    +0.170 C 
ATOM      7  C   UNL     1     -37.078  23.229   3.363  0.00  0.00    +0.229 C 
ATOM      8  C   UNL     1     -33.715  26.272   4.572  0.00  0.00    +0.178 C 
ATOM      9  C   UNL     1     -33.583  26.253   3.036  0.00  0.00    +0.243 C 
ENDROOT
BRANCH   7  12
ATOM     10  O   UNL     1     -38.918  21.610   1.959  0.00  0.00    -0.252 OA
ATOM     11  O   UNL     1     -41.892  25.097   1.467  0.00  0.00    -0.270 OA
ATOM     12  N   UNL     1     -38.342  23.689   2.857  0.00  0.00    -0.217 N 
ATOM     13  N   UNL     1     -40.397  23.349   1.715  0.00  0.00    -0.236 N 
ATOM     14  C   UNL     1     -39.192  22.795   2.165  0.00  0.00    +0.315 C 
ATOM     15  C   UNL     1     -38.727  25.010   3.049  0.00  0.00    +0.076 C 
ATOM     16  C   UNL     1     -39.879  25.523   2.614  0.00  0.00    +0.074 C 
ATOM     17  C   UNL     1     -40.824  24.657   1.881  0.00  0.00    +0.254 C 
ATOM     18  H   UNL     1     -41.005  22.745   1.229  0.00  0.00    +0.159 HD
ENDBRANCH   7  12
BRANCH   5  19
ATOM     19  O   UNL     1     -35.001  22.352   2.439  0.00  0.00    -0.378 OA
ATOM     20  H   UNL     1     -34.894  21.944   1.565  0.00  0.00    +0.211 HD
ENDBRANCH   5  19
BRANCH   6  21
ATOM     21  O   UNL     1     -36.097  26.838   4.737  0.00  0.00    -0.379 OA
ATOM     22  H   UNL     1     -35.892  27.244   3.880  0.00  0.00    +0.211 HD
ENDBRANCH   6  21
BRANCH   8  23
ATOM     23  O   UNL     1     -33.422  27.579   5.054  0.00  0.00    -0.379 OA
ATOM     24  H   UNL     1     -34.252  28.048   5.239  0.00  0.00    +0.211 HD
ENDBRANCH   8  23
BRANCH   9  26
ATOM     25  O   UNL     1     -31.298  27.018   3.165  0.00  0.00    -0.247 OA
ATOM     26  C   UNL     1     -32.146  26.320   2.630  0.00  0.00    +0.344 C 
BRANCH  26  27
ATOM     27  O   UNL     1     -31.907  25.499   1.579  0.00  0.00    -0.478 OA
ATOM     28  H   UNL     1     -32.307  25.671   0.749  0.00  0.00    +0.295 HD
ENDBRANCH  26  27
ENDBRANCH   9  26
TORSDOF 6
ENDMDL
MODEL 5
REMARK VINA RESULT:      -6.2      2.774      6.322
REMARK  Name = 197437
REMARK  6 active torsions:
REMARK  status: ('A' for Active; 'I' for Inactive)
REMARK    1  A    between atoms: C_5  and  O_19
REMARK    2  A    between atoms: C_6  and  O_21
REMARK    3  A    between atoms: C_7  and  N_12
REMARK    4  A    between atoms: C_8  and  O_23
REMARK    5  A    between atoms: C_9  and  C_26
REMARK    6  A    between atoms: C_26  and  O_27
REMARK                            x       y       z     vdW  Elec       q    Type
REMARK                         _______ _______ _______ _____ _____    ______ ____
ROOT
ATOM      1  O   UNL     1     -34.212  24.489   4.517  0.00  0.00    -0.333 OA
ATOM      2  O   UNL     1     -37.583  25.120   3.489  0.00  0.00    -0.341 OA
ATOM      3  C   UNL     1     -35.563  24.093   4.287  0.00  0.00    +0.176 C 
ATOM      4  C   UNL     1     -36.179  25.271   3.562  0.00  0.00    +0.176 C 
ATOM      5  C   UNL     1     -35.653  26.414   4.401  0.00  0.00    +0.187 C 
ATOM      6  C   UNL     1     -35.760  22.826   3.474  0.00  0.00    +0.170 C 
ATOM      7  C   UNL     1     -34.221  25.932   4.682  0.00  0.00    +0.229 C 
ATOM      8  C   UNL     1     -37.277  22.667   3.255  0.00  0.00    +0.178 C 
ATOM      9  C   UNL     1     -37.923  23.958   2.715  0.00  0.00    +0.243 C 
ENDROOT
BRANCH   7  12
ATOM     10  O   UNL     1     -32.889  28.389   5.085  0.00  0.00    -0.252 OA
ATOM     11  O   UNL     1     -30.572  27.994   1.121  0.00  0.00    -0.270 OA
ATOM     12  N   UNL     1     -33.264  26.495   3.770  0.00  0.00    -0.217 N 
ATOM     13  N   UNL     1     -31.737  28.190   3.110  0.00  0.00    -0.236 N 
ATOM     14  C   UNL     1     -32.653  27.735   4.067  0.00  0.00    +0.315 C 
ATOM     15  C   UNL     1     -32.940  25.819   2.600  0.00  0.00    +0.076 C 
ATOM     16  C   UNL     1     -32.064  26.265   1.698  0.00  0.00    +0.074 C 
ATOM     17  C   UNL     1     -31.382  27.555   1.931  0.00  0.00    +0.254 C 
ATOM     18  H   UNL     1     -31.299  29.053   3.294  0.00  0.00    +0.159 HD
ENDBRANCH   7  12
BRANCH   5  19
ATOM     19  O   UNL     1     -36.382  26.566   5.614  0.00  0.00    -0.378 OA
ATOM     20  H   UNL     1     -37.307  26.311   5.469  0.00  0.00    +0.211 HD
ENDBRANCH   5  19
BRANCH   6  21
ATOM     21  O   UNL     1     -35.058  22.901   2.235  0.00  0.00    -0.379 OA
ATOM     22  H   UNL     1     -34.325  22.265   2.240  0.00  0.00    +0.211 HD
ENDBRANCH   6  21
BRANCH   8  23
ATOM     23  O   UNL     1     -37.527  21.599   2.347  0.00  0.00    -0.379 OA
ATOM     24  H   UNL     1     -38.481  21.428   2.306  0.00  0.00    +0.211 HD
ENDBRANCH   8  23
BRANCH   9  26
ATOM     25  O   UNL     1     -40.144  23.168   2.202  0.00  0.00    -0.247 OA
ATOM     26  C   UNL     1     -39.410  23.899   2.848  0.00  0.00    +0.344 C 
BRANCH  26  27
ATOM     27  O   UNL     1     -39.841  24.774   3.790  0.00  0.00    -0.478 OA
ATOM     28  H   UNL     1     -39.620  24.640   4.691  0.00  0.00    +0.295 HD
ENDBRANCH  26  27
ENDBRANCH   9  26
TORSDOF 6
ENDMDL
MODEL 6
REMARK VINA RESULT:      -6.1      3.014      4.729
REMARK  Name = 197437
REMARK  6 active torsions:
REMARK  status: ('A' for Active; 'I' for Inactive)
REMARK    1  A    between atoms: C_5  and  O_19
REMARK    2  A    between atoms: C_6  and  O_21
REMARK    3  A    between atoms: C_7  and  N_12
REMARK    4  A    between atoms: C_8  and  O_23
REMARK    5  A    between atoms: C_9  and  C_26
REMARK    6  A    between atoms: C_26  and  O_27
REMARK                            x       y       z     vdW  Elec       q    Type
REMARK                         _______ _______ _______ _____ _____    ______ ____
ROOT
ATOM      1  O   UNL     1     -36.429  22.383   3.468  0.00  0.00    -0.333 OA
ATOM      2  O   UNL     1     -35.240  25.478   2.118  0.00  0.00    -0.341 OA
ATOM      3  C   UNL     1     -35.823  23.668   3.587  0.00  0.00    +0.176 C 
ATOM      4  C   UNL     1     -36.009  24.296   2.222  0.00  0.00    +0.176 C 
ATOM      5  C   UNL     1     -35.616  23.139   1.332  0.00  0.00    +0.187 C 
ATOM      6  C   UNL     1     -36.395  24.581   4.657  0.00  0.00    +0.170 C 
ATOM      7  C   UNL     1     -36.251  21.963   2.089  0.00  0.00    +0.229 C 
ATOM      8  C   UNL     1     -35.676  25.936   4.520  0.00  0.00    +0.178 C 
ATOM      9  C   UNL     1     -35.693  26.457   3.069  0.00  0.00    +0.243 C 
ENDROOT
BRANCH   7  12
ATOM     10  O   UNL     1     -36.663  20.005   0.096  0.00  0.00    -0.252 OA
ATOM     11  O   UNL     1     -41.226  20.659   0.136  0.00  0.00    -0.270 OA
ATOM     12  N   UNL     1     -37.538  21.601   1.560  0.00  0.00    -0.217 N 
ATOM     13  N   UNL     1     -38.935  20.333   0.118  0.00  0.00    -0.236 N 
ATOM     14  C   UNL     1     -37.635  20.606   0.561  0.00  0.00    +0.315 C 
ATOM     15  C   UNL     1     -38.683  22.230   2.033  0.00  0.00    +0.076 C 
ATOM     16  C   UNL     1     -39.916  21.959   1.601  0.00  0.00    +0.074 C 
ATOM     17  C   UNL     1     -40.105  20.932   0.556  0.00  0.00    +0.254 C 
ATOM     18  H   UNL     1     -39.028  19.644  -0.579  0.00  0.00    +0.159 HD
ENDBRANCH   7  12
BRANCH   5  19
ATOM     19  O   UNL     1     -34.204  22.984   1.251  0.00  0.00    -0.378 OA
ATOM     20  H   UNL     1     -33.896  22.430   1.987  0.00  0.00    +0.211 HD
ENDBRANCH   5  19
BRANCH   6  21
ATOM     21  O   UNL     1     -37.806  24.720   4.509  0.00  0.00    -0.379 OA
ATOM     22  H   UNL     1     -38.164  25.207   5.268  0.00  0.00    +0.211 HD
ENDBRANCH   6  21
BRANCH   8  23
ATOM     23  O   UNL     1     -36.286  26.899   5.373  0.00  0.00    -0.379 OA
ATOM     24  H   UNL     1     -36.929  26.457   5.950  0.00  0.00    +0.211 HD
ENDBRANCH   8  23
BRANCH   9  26
ATOM     25  O   UNL     1     -33.584  27.437   2.425  0.00  0.00    -0.247 OA
ATOM     26  C   UNL     1     -34.705  27.564   2.894  0.00  0.00    +0.344 C 
BRANCH  26  27
ATOM     27  O   UNL     1     -35.221  28.739   3.331  0.00  0.00    -0.478 OA
ATOM     28  H   UNL     1     -36.070  29.014   3.043  0.00  0.00    +0.295 HD
ENDBRANCH  26  27
ENDBRANCH   9  26
TORSDOF 6
ENDMDL
MODEL 7
REMARK VINA RESULT:      -6.1      4.360      6.352
REMARK  Name = 197437
REMARK  6 active torsions:
REMARK  status: ('A' for Active; 'I' for Inactive)
REMARK    1  A    between atoms: C_5  and  O_19
REMARK    2  A    between atoms: C_6  and  O_21
REMARK    3  A    between atoms: C_7  and  N_12
REMARK    4  A    between atoms: C_8  and  O_23
REMARK    5  A    between atoms: C_9  and  C_26
REMARK    6  A    between atoms: C_26  and  O_27
REMARK                            x       y       z     vdW  Elec       q    Type
REMARK                         _______ _______ _______ _____ _____    ______ ____
ROOT
ATOM      1  O   UNL     1     -37.618  24.685   1.151  0.00  0.00    -0.333 OA
ATOM      2  O   UNL     1     -36.790  23.494   4.423  0.00  0.00    -0.341 OA
ATOM      3  C   UNL     1     -36.757  24.035   2.083  0.00  0.00    +0.176 C 
ATOM      4  C   UNL     1     -37.596  23.899   3.335  0.00  0.00    +0.176 C 
ATOM      5  C   UNL     1     -38.206  25.281   3.408  0.00  0.00    +0.187 C 
ATOM      6  C   UNL     1     -36.225  22.675   1.667  0.00  0.00    +0.170 C 
ATOM      7  C   UNL     1     -38.494  25.548   1.922  0.00  0.00    +0.229 C 
ATOM      8  C   UNL     1     -35.428  22.121   2.864  0.00  0.00    +0.178 C 
ATOM      9  C   UNL     1     -36.232  22.192   4.178  0.00  0.00    +0.243 C 
ENDROOT
BRANCH   7  12
ATOM     10  O   UNL     1     -40.755  26.879   2.970  0.00  0.00    -0.252 OA
ATOM     11  O   UNL     1     -43.654  24.301   0.481  0.00  0.00    -0.270 OA
ATOM     12  N   UNL     1     -39.853  25.244   1.565  0.00  0.00    -0.217 N 
ATOM     13  N   UNL     1     -42.197  25.593   1.730  0.00  0.00    -0.236 N 
ATOM     14  C   UNL     1     -40.915  25.972   2.149  0.00  0.00    +0.315 C 
ATOM     15  C   UNL     1     -40.119  24.237   0.645  0.00  0.00    +0.076 C 
ATOM     16  C   UNL     1     -41.346  23.888   0.255  0.00  0.00    +0.074 C 
ATOM     17  C   UNL     1     -42.513  24.598   0.818  0.00  0.00    +0.254 C 
ATOM     18  H   UNL     1     -42.953  26.085   2.124  0.00  0.00    +0.159 HD
ENDBRANCH   7  12
BRANCH   5  19
ATOM     19  O   UNL     1     -37.292  26.241   3.925  0.00  0.00    -0.378 OA
ATOM     20  H   UNL     1     -37.422  27.089   3.472  0.00  0.00    +0.211 HD
ENDBRANCH   5  19
BRANCH   6  21
ATOM     21  O   UNL     1     -37.290  21.801   1.300  0.00  0.00    -0.379 OA
ATOM     22  H   UNL     1     -37.106  21.416   0.429  0.00  0.00    +0.211 HD
ENDBRANCH   6  21
BRANCH   8  23
ATOM     23  O   UNL     1     -35.051  20.772   2.615  0.00  0.00    -0.379 OA
ATOM     24  H   UNL     1     -35.831  20.200   2.690  0.00  0.00    +0.211 HD
ENDBRANCH   8  23
BRANCH   9  26
ATOM     25  O   UNL     1     -34.841  22.889   6.022  0.00  0.00    -0.247 OA
ATOM     26  C   UNL     1     -35.335  21.992   5.356  0.00  0.00    +0.344 C 
BRANCH  26  27
ATOM     27  O   UNL     1     -35.140  20.671   5.590  0.00  0.00    -0.478 OA
ATOM     28  H   UNL     1     -34.295  20.290   5.448  0.00  0.00    +0.295 HD
ENDBRANCH  26  27
ENDBRANCH   9  26
TORSDOF 6
ENDMDL
MODEL 8
REMARK VINA RESULT:      -6.1      2.941      4.865
REMARK  Name = 197437
REMARK  6 active torsions:
REMARK  status: ('A' for Active; 'I' for Inactive)
REMARK    1  A    between atoms: C_5  and  O_19
REMARK    2  A    between atoms: C_6  and  O_21
REMARK    3  A    between atoms: C_7  and  N_12
REMARK    4  A    between atoms: C_8  and  O_23
REMARK    5  A    between atoms: C_9  and  C_26
REMARK    6  A    between atoms: C_26  and  O_27
REMARK                            x       y       z     vdW  Elec       q    Type
REMARK                         _______ _______ _______ _____ _____    ______ ____
ROOT
ATOM      1  O   UNL     1     -37.438  21.687   2.143  0.00  0.00    -0.333 OA
ATOM      2  O   UNL     1     -35.435  23.829   4.196  0.00  0.00    -0.341 OA
ATOM      3  C   UNL     1     -37.266  22.761   3.064  0.00  0.00    +0.176 C 
ATOM      4  C   UNL     1     -35.766  22.957   3.133  0.00  0.00    +0.176 C 
ATOM      5  C   UNL     1     -35.307  21.522   3.251  0.00  0.00    +0.187 C 
ATOM      6  C   UNL     1     -37.942  24.071   2.699  0.00  0.00    +0.170 C 
ATOM      7  C   UNL     1     -36.275  20.828   2.280  0.00  0.00    +0.229 C 
ATOM      8  C   UNL     1     -37.522  25.103   3.763  0.00  0.00    +0.178 C 
ATOM      9  C   UNL     1     -35.994  25.133   3.970  0.00  0.00    +0.243 C 
ENDROOT
BRANCH   7  12
ATOM     10  O   UNL     1     -33.976  19.272   1.761  0.00  0.00    -0.252 OA
ATOM     11  O   UNL     1     -34.164  20.169  -2.756  0.00  0.00    -0.270 OA
ATOM     12  N   UNL     1     -35.702  20.638   0.976  0.00  0.00    -0.217 N 
ATOM     13  N   UNL     1     -34.071  19.721  -0.488  0.00  0.00    -0.236 N 
ATOM     14  C   UNL     1     -34.546  19.838   0.825  0.00  0.00    +0.315 C 
ATOM     15  C   UNL     1     -36.285  21.239  -0.132  0.00  0.00    +0.076 C 
ATOM     16  C   UNL     1     -35.822  21.118  -1.378  0.00  0.00    +0.074 C 
ATOM     17  C   UNL     1     -34.616  20.300  -1.623  0.00  0.00    +0.254 C 
ATOM     18  H   UNL     1     -33.266  19.169  -0.618  0.00  0.00    +0.159 HD
ENDBRANCH   7  12
BRANCH   5  19
ATOM     19  O   UNL     1     -35.468  21.017   4.571  0.00  0.00    -0.378 OA
ATOM     20  H   UNL     1     -34.685  20.501   4.819  0.00  0.00    +0.211 HD
ENDBRANCH   5  19
BRANCH   6  21
ATOM     21  O   UNL     1     -37.568  24.490   1.388  0.00  0.00    -0.379 OA
ATOM     22  H   UNL     1     -36.678  24.875   1.414  0.00  0.00    +0.211 HD
ENDBRANCH   6  21
BRANCH   8  23
ATOM     23  O   UNL     1     -37.972  26.400   3.386  0.00  0.00    -0.379 OA
ATOM     24  H   UNL     1     -37.206  26.980   3.251  0.00  0.00    +0.211 HD
ENDBRANCH   8  23
BRANCH   9  26
ATOM     25  O   UNL     1     -34.569  25.800   5.799  0.00  0.00    -0.247 OA
ATOM     26  C   UNL     1     -35.647  25.861   5.228  0.00  0.00    +0.344 C 
BRANCH  26  27
ATOM     27  O   UNL     1     -36.696  26.605   5.655  0.00  0.00    -0.478 OA
ATOM     28  H   UNL     1     -37.570  26.367   5.412  0.00  0.00    +0.295 HD
ENDBRANCH  26  27
ENDBRANCH   9  26
TORSDOF 6
ENDMDL
MODEL 9
REMARK VINA RESULT:      -6.1      2.078      7.077
REMARK  Name = 197437
REMARK  6 active torsions:
REMARK  status: ('A' for Active; 'I' for Inactive)
REMARK    1  A    between atoms: C_5  and  O_19
REMARK    2  A    between atoms: C_6  and  O_21
REMARK    3  A    between atoms: C_7  and  N_12
REMARK    4  A    between atoms: C_8  and  O_23
REMARK    5  A    between atoms: C_9  and  C_26
REMARK    6  A    between atoms: C_26  and  O_27
REMARK                            x       y       z     vdW  Elec       q    Type
REMARK                         _______ _______ _______ _____ _____    ______ ____
ROOT
ATOM      1  O   UNL     1     -36.397  24.584   2.607  0.00  0.00    -0.333 OA
ATOM      2  O   UNL     1     -34.461  21.938   1.169  0.00  0.00    -0.341 OA
ATOM      3  C   UNL     1     -36.255  23.297   2.010  0.00  0.00    +0.176 C 
ATOM      4  C   UNL     1     -34.759  23.070   1.962  0.00  0.00    +0.176 C 
ATOM      5  C   UNL     1     -34.294  24.413   1.447  0.00  0.00    +0.187 C 
ATOM      6  C   UNL     1     -36.930  22.146   2.734  0.00  0.00    +0.170 C 
ATOM      7  C   UNL     1     -35.232  25.358   2.215  0.00  0.00    +0.229 C 
ATOM      8  C   UNL     1     -36.545  20.857   1.982  0.00  0.00    +0.178 C 
ATOM      9  C   UNL     1     -35.023  20.752   1.755  0.00  0.00    +0.243 C 
ENDROOT
BRANCH   7  12
ATOM     10  O   UNL     1     -33.709  27.735   2.302  0.00  0.00    -0.252 OA
ATOM     11  O   UNL     1     -32.944  27.295   6.826  0.00  0.00    -0.270 OA
ATOM     12  N   UNL     1     -34.623  25.888   3.404  0.00  0.00    -0.217 N 
ATOM     13  N   UNL     1     -33.329  27.513   4.555  0.00  0.00    -0.236 N 
ATOM     14  C   UNL     1     -33.878  27.088   3.339  0.00  0.00    +0.315 C 
ATOM     15  C   UNL     1     -34.768  25.221   4.614  0.00  0.00    +0.076 C 
ATOM     16  C   UNL     1     -34.239  25.638   5.765  0.00  0.00    +0.074 C 
ATOM     17  C   UNL     1     -33.445  26.884   5.784  0.00  0.00    +0.254 C 
ATOM     18  H   UNL     1     -32.805  28.347   4.535  0.00  0.00    +0.159 HD
ENDBRANCH   7  12
BRANCH   5  19
ATOM     19  O   UNL     1     -34.487  24.542   0.043  0.00  0.00    -0.378 OA
ATOM     20  H   UNL     1     -34.883  25.406  -0.152  0.00  0.00    +0.211 HD
ENDBRANCH   5  19
BRANCH   6  21
ATOM     21  O   UNL     1     -36.525  22.095   4.100  0.00  0.00    -0.379 OA
ATOM     22  H   UNL     1     -36.865  21.283   4.508  0.00  0.00    +0.211 HD
ENDBRANCH   6  21
BRANCH   8  23
ATOM     23  O   UNL     1     -36.993  19.718   2.708  0.00  0.00    -0.379 OA
ATOM     24  H   UNL     1     -36.947  18.934   2.138  0.00  0.00    +0.211 HD
ENDBRANCH   8  23
BRANCH   9  26
ATOM     25  O   UNL     1     -33.592  19.401   0.360  0.00  0.00    -0.247 OA
ATOM     26  C   UNL     1     -34.714  19.704   0.735  0.00  0.00    +0.344 C 
BRANCH  26  27
ATOM     27  O   UNL     1     -35.853  19.131   0.278  0.00  0.00    -0.478 OA
ATOM     28  H   UNL     1     -35.993  19.036  -0.645  0.00  0.00    +0.295 HD
ENDBRANCH  26  27
ENDBRANCH   9  26
TORSDOF 6
ENDMDL
