MODEL 1
REMARK VINA RESULT:      -6.8      0.000      0.000
REMARK  Name = 52921503
REMARK  7 active torsions:
REMARK  status: ('A' for Active; 'I' for Inactive)
REMARK    1  A    between atoms: C_3  and  C_15
REMARK    2  A    between atoms: C_6  and  O_31
REMARK    3  A    between atoms: C_7  and  O_33
REMARK    4  A    between atoms: C_8  and  O_35
REMARK    5  A    between atoms: C_18  and  O_25
REMARK    6  A    between atoms: C_19  and  O_27
REMARK    7  A    between atoms: C_20  and  O_29
REMARK                            x       y       z     vdW  Elec       q    Type
REMARK                         _______ _______ _______ _____ _____    ______ ____
ROOT
ATOM      1  O   UNL     1     -34.964  24.156   5.980  0.00  0.00    -0.425 OA
ATOM      2  O   UNL     1     -34.658  26.384   5.837  0.00  0.00    -0.244 OA
ATOM      3  C   UNL     1     -36.667  24.078   2.147  0.00  0.00    +0.040 A 
ATOM      4  C   UNL     1     -36.100  24.097   3.426  0.00  0.00    +0.015 A 
ATOM      5  C   UNL     1     -35.661  25.309   3.967  0.00  0.00    +0.113 A 
ATOM      6  C   UNL     1     -36.794  25.260   1.416  0.00  0.00    +0.171 A 
ATOM      7  C   UNL     1     -36.355  26.467   1.958  0.00  0.00    +0.206 A 
ATOM      8  C   UNL     1     -35.787  26.495   3.233  0.00  0.00    +0.177 A 
ATOM      9  C   UNL     1     -35.962  22.873   4.198  0.00  0.00    +0.033 C 
ATOM     10  C   UNL     1     -35.057  25.349   5.320  0.00  0.00    +0.348 C 
ATOM     11  C   UNL     1     -35.414  22.939   5.417  0.00  0.00    +0.127 C 
ATOM     12  C   UNL     1     -35.218  21.753   6.303  0.00  0.00    +0.073 C 
ENDROOT
BRANCH   3  15
ATOM     13  O   UNL     1     -34.565  20.244  -0.513  0.00  0.00    -0.425 OA
ATOM     14  O   UNL     1     -36.273  18.842  -0.954  0.00  0.00    -0.244 OA
ATOM     15  C   UNL     1     -37.141  22.843   1.537  0.00  0.00    +0.040 A 
ATOM     16  C   UNL     1     -36.276  21.980   0.855  0.00  0.00    +0.015 A 
ATOM     17  C   UNL     1     -36.781  20.807   0.286  0.00  0.00    +0.113 A 
ATOM     18  C   UNL     1     -38.497  22.535   1.650  0.00  0.00    +0.171 A 
ATOM     19  C   UNL     1     -38.997  21.364   1.083  0.00  0.00    +0.206 A 
ATOM     20  C   UNL     1     -38.141  20.498   0.401  0.00  0.00    +0.177 A 
ATOM     21  C   UNL     1     -34.861  22.290   0.728  0.00  0.00    +0.033 C 
ATOM     22  C   UNL     1     -35.881  19.881  -0.439  0.00  0.00    +0.348 C 
ATOM     23  C   UNL     1     -34.072  21.436   0.067  0.00  0.00    +0.127 C 
ATOM     24  C   UNL     1     -32.605  21.642  -0.126  0.00  0.00    +0.073 C 
BRANCH  18  25
ATOM     25  O   UNL     1     -39.353  23.367   2.314  0.00  0.00    -0.503 OA
ATOM     26  H   UNL     1     -40.276  23.209   2.283  0.00  0.00    +0.292 HD
ENDBRANCH  18  25
BRANCH  19  27
ATOM     27  O   UNL     1     -40.323  21.065   1.195  0.00  0.00    -0.465 OA
ATOM     28  C   UNL     1     -41.161  21.429   0.102  0.00  0.00    +0.253 C 
ENDBRANCH  19  27
BRANCH  20  29
ATOM     29  O   UNL     1     -38.676  19.364  -0.138  0.00  0.00    -0.503 OA
ATOM     30  H   UNL     1     -39.565  19.359  -0.435  0.00  0.00    +0.292 HD
ENDBRANCH  20  29
ENDBRANCH   3  15
BRANCH   6  31
ATOM     31  O   UNL     1     -37.345  25.257   0.167  0.00  0.00    -0.503 OA
ATOM     32  H   UNL     1     -37.962  25.920  -0.074  0.00  0.00    +0.292 HD
ENDBRANCH   6  31
BRANCH   7  33
ATOM     33  O   UNL     1     -36.480  27.621   1.242  0.00  0.00    -0.465 OA
ATOM     34  C   UNL     1     -35.388  27.980   0.400  0.00  0.00    +0.253 C 
ENDBRANCH   7  33
BRANCH   8  35
ATOM     35  O   UNL     1     -35.372  27.699   3.722  0.00  0.00    -0.503 OA
ATOM     36  H   UNL     1     -35.968  28.241   4.201  0.00  0.00    +0.292 HD
ENDBRANCH   8  35
TORSDOF 7
ENDMDL
MODEL 2
REMARK VINA RESULT:      -6.8      0.143      6.641
REMARK  Name = 52921503
REMARK  7 active torsions:
REMARK  status: ('A' for Active; 'I' for Inactive)
REMARK    1  A    between atoms: C_3  and  C_15
REMARK    2  A    between atoms: C_6  and  O_31
REMARK    3  A    between atoms: C_7  and  O_33
REMARK    4  A    between atoms: C_8  and  O_35
REMARK    5  A    between atoms: C_18  and  O_25
REMARK    6  A    between atoms: C_19  and  O_27
REMARK    7  A    between atoms: C_20  and  O_29
REMARK                            x       y       z     vdW  Elec       q    Type
REMARK                         _______ _______ _______ _____ _____    ______ ____
ROOT
ATOM      1  O   UNL     1     -34.530  20.144  -0.448  0.00  0.00    -0.425 OA
ATOM      2  O   UNL     1     -36.234  18.733  -0.879  0.00  0.00    -0.244 OA
ATOM      3  C   UNL     1     -37.141  22.816   1.461  0.00  0.00    +0.040 A 
ATOM      4  C   UNL     1     -36.265  21.929   0.826  0.00  0.00    +0.015 A 
ATOM      5  C   UNL     1     -36.761  20.739   0.286  0.00  0.00    +0.113 A 
ATOM      6  C   UNL     1     -38.500  22.516   1.555  0.00  0.00    +0.171 A 
ATOM      7  C   UNL     1     -38.992  21.328   1.016  0.00  0.00    +0.206 A 
ATOM      8  C   UNL     1     -38.125  20.438   0.381  0.00  0.00    +0.177 A 
ATOM      9  C   UNL     1     -34.847  22.230   0.720  0.00  0.00    +0.033 C 
ATOM     10  C   UNL     1     -35.849  19.787  -0.390  0.00  0.00    +0.348 C 
ATOM     11  C   UNL     1     -34.046  21.353   0.104  0.00  0.00    +0.127 C 
ATOM     12  C   UNL     1     -32.575  21.549  -0.065  0.00  0.00    +0.073 C 
ENDROOT
BRANCH   3  15
ATOM     13  O   UNL     1     -35.077  24.273   5.912  0.00  0.00    -0.425 OA
ATOM     14  O   UNL     1     -34.752  26.492   5.700  0.00  0.00    -0.244 OA
ATOM     15  C   UNL     1     -36.676  24.070   2.040  0.00  0.00    +0.040 A 
ATOM     16  C   UNL     1     -36.143  24.130   3.332  0.00  0.00    +0.015 A 
ATOM     17  C   UNL     1     -35.711  25.358   3.842  0.00  0.00    +0.113 A 
ATOM     18  C   UNL     1     -36.775  25.226   1.265  0.00  0.00    +0.171 A 
ATOM     19  C   UNL     1     -36.343  26.448   1.776  0.00  0.00    +0.206 A 
ATOM     20  C   UNL     1     -35.810  26.518   3.064  0.00  0.00    +0.177 A 
ATOM     21  C   UNL     1     -36.035  22.933   4.151  0.00  0.00    +0.033 C 
ATOM     22  C   UNL     1     -35.144  25.442   5.208  0.00  0.00    +0.348 C 
ATOM     23  C   UNL     1     -35.519  23.039   5.381  0.00  0.00    +0.127 C 
ATOM     24  C   UNL     1     -35.355  21.884   6.313  0.00  0.00    +0.073 C 
BRANCH  18  25
ATOM     25  O   UNL     1     -37.292  25.182   0.002  0.00  0.00    -0.503 OA
ATOM     26  H   UNL     1     -38.057  25.680  -0.208  0.00  0.00    +0.292 HD
ENDBRANCH  18  25
BRANCH  19  27
ATOM     27  O   UNL     1     -36.441  27.577   1.016  0.00  0.00    -0.465 OA
ATOM     28  C   UNL     1     -35.329  27.894   0.184  0.00  0.00    +0.253 C 
ENDBRANCH  19  27
BRANCH  20  29
ATOM     29  O   UNL     1     -35.401  27.736   3.522  0.00  0.00    -0.503 OA
ATOM     30  H   UNL     1     -34.569  28.080   3.260  0.00  0.00    +0.292 HD
ENDBRANCH  20  29
ENDBRANCH   3  15
BRANCH   6  31
ATOM     31  O   UNL     1     -39.367  23.371   2.173  0.00  0.00    -0.503 OA
ATOM     32  H   UNL     1     -40.027  23.810   1.673  0.00  0.00    +0.292 HD
ENDBRANCH   6  31
BRANCH   7  33
ATOM     33  O   UNL     1     -40.321  21.037   1.110  0.00  0.00    -0.465 OA
ATOM     34  C   UNL     1     -41.133  21.356  -0.017  0.00  0.00    +0.253 C 
ENDBRANCH   7  33
BRANCH   8  35
ATOM     35  O   UNL     1     -38.652  19.288  -0.131  0.00  0.00    -0.503 OA
ATOM     36  H   UNL     1     -38.399  18.996  -0.986  0.00  0.00    +0.292 HD
ENDBRANCH   8  35
TORSDOF 7
ENDMDL
MODEL 3
REMARK VINA RESULT:      -6.5      1.455      3.486
REMARK  Name = 52921503
REMARK  7 active torsions:
REMARK  status: ('A' for Active; 'I' for Inactive)
REMARK    1  A    between atoms: C_3  and  C_15
REMARK    2  A    between atoms: C_6  and  O_31
REMARK    3  A    between atoms: C_7  and  O_33
REMARK    4  A    between atoms: C_8  and  O_35
REMARK    5  A    between atoms: C_18  and  O_25
REMARK    6  A    between atoms: C_19  and  O_27
REMARK    7  A    between atoms: C_20  and  O_29
REMARK                            x       y       z     vdW  Elec       q    Type
REMARK                         _______ _______ _______ _____ _____    ______ ____
ROOT
ATOM      1  O   UNL     1     -34.460  24.173   5.710  0.00  0.00    -0.425 OA
ATOM      2  O   UNL     1     -33.388  26.090   5.204  0.00  0.00    -0.244 OA
ATOM      3  C   UNL     1     -35.657  23.711   1.716  0.00  0.00    +0.040 A 
ATOM      4  C   UNL     1     -35.261  23.860   3.050  0.00  0.00    +0.015 A 
ATOM      5  C   UNL     1     -34.491  24.966   3.421  0.00  0.00    +0.113 A 
ATOM      6  C   UNL     1     -35.287  24.661   0.763  0.00  0.00    +0.171 A 
ATOM      7  C   UNL     1     -34.520  25.762   1.136  0.00  0.00    +0.206 A 
ATOM      8  C   UNL     1     -34.120  25.918   2.464  0.00  0.00    +0.177 A 
ATOM      9  C   UNL     1     -35.640  22.878   4.053  0.00  0.00    +0.033 C 
ATOM     10  C   UNL     1     -34.062  25.139   4.829  0.00  0.00    +0.348 C 
ATOM     11  C   UNL     1     -35.239  23.061   5.316  0.00  0.00    +0.127 C 
ATOM     12  C   UNL     1     -35.563  22.123   6.433  0.00  0.00    +0.073 C 
ENDROOT
BRANCH   3  15
ATOM     13  O   UNL     1     -40.649  22.748   1.125  0.00  0.00    -0.425 OA
ATOM     14  O   UNL     1     -40.744  20.625   0.376  0.00  0.00    -0.244 OA
ATOM     15  C   UNL     1     -36.461  22.578   1.277  0.00  0.00    +0.040 A 
ATOM     16  C   UNL     1     -37.857  22.641   1.229  0.00  0.00    +0.015 A 
ATOM     17  C   UNL     1     -38.584  21.526   0.801  0.00  0.00    +0.113 A 
ATOM     18  C   UNL     1     -35.796  21.410   0.901  0.00  0.00    +0.171 A 
ATOM     19  C   UNL     1     -36.523  20.300   0.475  0.00  0.00    +0.206 A 
ATOM     20  C   UNL     1     -37.916  20.354   0.424  0.00  0.00    +0.177 A 
ATOM     21  C   UNL     1     -38.563  23.852   1.619  0.00  0.00    +0.033 C 
ATOM     22  C   UNL     1     -40.063  21.574   0.742  0.00  0.00    +0.348 C 
ATOM     23  C   UNL     1     -39.899  23.867   1.556  0.00  0.00    +0.127 C 
ATOM     24  C   UNL     1     -40.733  25.049   1.927  0.00  0.00    +0.073 C 
BRANCH  18  25
ATOM     25  O   UNL     1     -34.433  21.333   0.943  0.00  0.00    -0.503 OA
ATOM     26  H   UNL     1     -33.932  21.487   0.166  0.00  0.00    +0.292 HD
ENDBRANCH  18  25
BRANCH  19  27
ATOM     27  O   UNL     1     -35.870  19.159   0.109  0.00  0.00    -0.465 OA
ATOM     28  C   UNL     1     -35.515  19.031  -1.265  0.00  0.00    +0.253 C 
ENDBRANCH  19  27
BRANCH  20  29
ATOM     29  O   UNL     1     -38.585  19.243  -0.000  0.00  0.00    -0.503 OA
ATOM     30  H   UNL     1     -38.133  18.425  -0.077  0.00  0.00    +0.292 HD
ENDBRANCH  20  29
ENDBRANCH   3  15
BRANCH   6  31
ATOM     31  O   UNL     1     -35.666  24.530  -0.542  0.00  0.00    -0.503 OA
ATOM     32  H   UNL     1     -36.413  24.997  -0.862  0.00  0.00    +0.292 HD
ENDBRANCH   6  31
BRANCH   7  33
ATOM     33  O   UNL     1     -34.160  26.689   0.202  0.00  0.00    -0.465 OA
ATOM     34  C   UNL     1     -35.061  27.771  -0.016  0.00  0.00    +0.253 C 
ENDBRANCH   7  33
BRANCH   8  35
ATOM     35  O   UNL     1     -33.369  27.012   2.782  0.00  0.00    -0.503 OA
ATOM     36  H   UNL     1     -32.620  26.921   3.338  0.00  0.00    +0.292 HD
ENDBRANCH   8  35
TORSDOF 7
ENDMDL
MODEL 4
REMARK VINA RESULT:      -6.5      1.454      6.802
REMARK  Name = 52921503
REMARK  7 active torsions:
REMARK  status: ('A' for Active; 'I' for Inactive)
REMARK    1  A    between atoms: C_3  and  C_15
REMARK    2  A    between atoms: C_6  and  O_31
REMARK    3  A    between atoms: C_7  and  O_33
REMARK    4  A    between atoms: C_8  and  O_35
REMARK    5  A    between atoms: C_18  and  O_25
REMARK    6  A    between atoms: C_19  and  O_27
REMARK    7  A    between atoms: C_20  and  O_29
REMARK                            x       y       z     vdW  Elec       q    Type
REMARK                         _______ _______ _______ _____ _____    ______ ____
ROOT
ATOM      1  O   UNL     1     -40.650  22.748   1.125  0.00  0.00    -0.425 OA
ATOM      2  O   UNL     1     -40.743  20.625   0.375  0.00  0.00    -0.244 OA
ATOM      3  C   UNL     1     -36.460  22.579   1.277  0.00  0.00    +0.040 A 
ATOM      4  C   UNL     1     -37.857  22.642   1.229  0.00  0.00    +0.015 A 
ATOM      5  C   UNL     1     -38.583  21.526   0.801  0.00  0.00    +0.113 A 
ATOM      6  C   UNL     1     -35.796  21.412   0.902  0.00  0.00    +0.171 A 
ATOM      7  C   UNL     1     -36.522  20.301   0.475  0.00  0.00    +0.206 A 
ATOM      8  C   UNL     1     -37.915  20.355   0.424  0.00  0.00    +0.177 A 
ATOM      9  C   UNL     1     -38.563  23.853   1.617  0.00  0.00    +0.033 C 
ATOM     10  C   UNL     1     -40.063  21.574   0.743  0.00  0.00    +0.348 C 
ATOM     11  C   UNL     1     -39.899  23.867   1.555  0.00  0.00    +0.127 C 
ATOM     12  C   UNL     1     -40.734  25.049   1.926  0.00  0.00    +0.073 C 
ENDROOT
BRANCH   3  15
ATOM     13  O   UNL     1     -34.460  24.175   5.709  0.00  0.00    -0.425 OA
ATOM     14  O   UNL     1     -33.389  26.092   5.203  0.00  0.00    -0.244 OA
ATOM     15  C   UNL     1     -35.658  23.713   1.716  0.00  0.00    +0.040 A 
ATOM     16  C   UNL     1     -35.262  23.862   3.050  0.00  0.00    +0.015 A 
ATOM     17  C   UNL     1     -34.492  24.968   3.421  0.00  0.00    +0.113 A 
ATOM     18  C   UNL     1     -35.288  24.662   0.763  0.00  0.00    +0.171 A 
ATOM     19  C   UNL     1     -34.520  25.764   1.136  0.00  0.00    +0.206 A 
ATOM     20  C   UNL     1     -34.121  25.920   2.464  0.00  0.00    +0.177 A 
ATOM     21  C   UNL     1     -35.641  22.880   4.054  0.00  0.00    +0.033 C 
ATOM     22  C   UNL     1     -34.062  25.142   4.828  0.00  0.00    +0.348 C 
ATOM     23  C   UNL     1     -35.239  23.063   5.316  0.00  0.00    +0.127 C 
ATOM     24  C   UNL     1     -35.562  22.125   6.433  0.00  0.00    +0.073 C 
BRANCH  18  25
ATOM     25  O   UNL     1     -35.667  24.531  -0.543  0.00  0.00    -0.503 OA
ATOM     26  H   UNL     1     -35.304  25.099  -1.194  0.00  0.00    +0.292 HD
ENDBRANCH  18  25
BRANCH  19  27
ATOM     27  O   UNL     1     -34.161  26.691   0.202  0.00  0.00    -0.465 OA
ATOM     28  C   UNL     1     -35.050  27.787   0.003  0.00  0.00    +0.253 C 
ENDBRANCH  19  27
BRANCH  20  29
ATOM     29  O   UNL     1     -33.371  27.015   2.782  0.00  0.00    -0.503 OA
ATOM     30  H   UNL     1     -32.500  26.907   3.112  0.00  0.00    +0.292 HD
ENDBRANCH  20  29
ENDBRANCH   3  15
BRANCH   6  31
ATOM     31  O   UNL     1     -34.433  21.335   0.943  0.00  0.00    -0.503 OA
ATOM     32  H   UNL     1     -34.014  20.507   1.068  0.00  0.00    +0.292 HD
ENDBRANCH   6  31
BRANCH   7  33
ATOM     33  O   UNL     1     -35.869  19.161   0.109  0.00  0.00    -0.465 OA
ATOM     34  C   UNL     1     -35.484  19.047  -1.258  0.00  0.00    +0.253 C 
ENDBRANCH   7  33
BRANCH   8  35
ATOM     35  O   UNL     1     -38.583  19.243  -0.000  0.00  0.00    -0.503 OA
ATOM     36  H   UNL     1     -39.443  19.060   0.326  0.00  0.00    +0.292 HD
ENDBRANCH   8  35
TORSDOF 7
ENDMDL
MODEL 5
REMARK VINA RESULT:      -6.4      2.692      5.458
REMARK  Name = 52921503
REMARK  7 active torsions:
REMARK  status: ('A' for Active; 'I' for Inactive)
REMARK    1  A    between atoms: C_3  and  C_15
REMARK    2  A    between atoms: C_6  and  O_31
REMARK    3  A    between atoms: C_7  and  O_33
REMARK    4  A    between atoms: C_8  and  O_35
REMARK    5  A    between atoms: C_18  and  O_25
REMARK    6  A    between atoms: C_19  and  O_27
REMARK    7  A    between atoms: C_20  and  O_29
REMARK                            x       y       z     vdW  Elec       q    Type
REMARK                         _______ _______ _______ _____ _____    ______ ____
ROOT
ATOM      1  O   UNL     1     -36.579  20.602   2.228  0.00  0.00    -0.425 OA
ATOM      2  O   UNL     1     -35.066  20.485   3.894  0.00  0.00    -0.244 OA
ATOM      3  C   UNL     1     -37.419  24.600   3.186  0.00  0.00    +0.040 A 
ATOM      4  C   UNL     1     -37.144  23.267   2.861  0.00  0.00    +0.015 A 
ATOM      5  C   UNL     1     -36.194  22.559   3.604  0.00  0.00    +0.113 A 
ATOM      6  C   UNL     1     -36.752  25.218   4.243  0.00  0.00    +0.171 A 
ATOM      7  C   UNL     1     -35.806  24.510   4.982  0.00  0.00    +0.206 A 
ATOM      8  C   UNL     1     -35.524  23.180   4.665  0.00  0.00    +0.177 A 
ATOM      9  C   UNL     1     -37.832  22.610   1.762  0.00  0.00    +0.033 C 
ATOM     10  C   UNL     1     -35.889  21.147   3.275  0.00  0.00    +0.348 C 
ATOM     11  C   UNL     1     -37.536  21.334   1.487  0.00  0.00    +0.127 C 
ATOM     12  C   UNL     1     -38.173  20.554   0.384  0.00  0.00    +0.073 C 
ENDROOT
BRANCH   3  15
ATOM     13  O   UNL     1     -37.398  27.455  -1.061  0.00  0.00    -0.425 OA
ATOM     14  O   UNL     1     -39.513  28.204  -1.266  0.00  0.00    -0.244 OA
ATOM     15  C   UNL     1     -38.400  25.381   2.445  0.00  0.00    +0.040 A 
ATOM     16  C   UNL     1     -38.059  26.071   1.276  0.00  0.00    +0.015 A 
ATOM     17  C   UNL     1     -39.037  26.808   0.601  0.00  0.00    +0.113 A 
ATOM     18  C   UNL     1     -39.705  25.429   2.933  0.00  0.00    +0.171 A 
ATOM     19  C   UNL     1     -40.678  26.165   2.258  0.00  0.00    +0.206 A 
ATOM     20  C   UNL     1     -40.347  26.855   1.092  0.00  0.00    +0.177 A 
ATOM     21  C   UNL     1     -36.701  26.031   0.755  0.00  0.00    +0.033 C 
ATOM     22  C   UNL     1     -38.695  27.544  -0.638  0.00  0.00    +0.348 C 
ATOM     23  C   UNL     1     -36.422  26.705  -0.365  0.00  0.00    +0.127 C 
ATOM     24  C   UNL     1     -35.069  26.738  -0.997  0.00  0.00    +0.073 C 
BRANCH  18  25
ATOM     25  O   UNL     1     -40.053  24.761   4.073  0.00  0.00    -0.503 OA
ATOM     26  H   UNL     1     -40.279  23.852   4.032  0.00  0.00    +0.292 HD
ENDBRANCH  18  25
BRANCH  19  27
ATOM     27  O   UNL     1     -41.954  26.209   2.739  0.00  0.00    -0.465 OA
ATOM     28  C   UNL     1     -42.255  27.238   3.677  0.00  0.00    +0.253 C 
ENDBRANCH  19  27
BRANCH  20  29
ATOM     29  O   UNL     1     -41.332  27.562   0.465  0.00  0.00    -0.503 OA
ATOM     30  H   UNL     1     -42.013  27.110   0.005  0.00  0.00    +0.292 HD
ENDBRANCH  20  29
ENDBRANCH   3  15
BRANCH   6  31
ATOM     31  O   UNL     1     -37.010  26.518   4.572  0.00  0.00    -0.503 OA
ATOM     32  H   UNL     1     -37.197  26.748   5.461  0.00  0.00    +0.292 HD
ENDBRANCH   6  31
BRANCH   7  33
ATOM     33  O   UNL     1     -35.155  25.117   6.016  0.00  0.00    -0.465 OA
ATOM     34  C   UNL     1     -34.035  25.933   5.684  0.00  0.00    +0.253 C 
ENDBRANCH   7  33
BRANCH   8  35
ATOM     35  O   UNL     1     -34.591  22.527   5.416  0.00  0.00    -0.503 OA
ATOM     36  H   UNL     1     -33.980  23.015   5.934  0.00  0.00    +0.292 HD
ENDBRANCH   8  35
TORSDOF 7
ENDMDL
MODEL 6
REMARK VINA RESULT:      -6.4      2.728      5.814
REMARK  Name = 52921503
REMARK  7 active torsions:
REMARK  status: ('A' for Active; 'I' for Inactive)
REMARK    1  A    between atoms: C_3  and  C_15
REMARK    2  A    between atoms: C_6  and  O_31
REMARK    3  A    between atoms: C_7  and  O_33
REMARK    4  A    between atoms: C_8  and  O_35
REMARK    5  A    between atoms: C_18  and  O_25
REMARK    6  A    between atoms: C_19  and  O_27
REMARK    7  A    between atoms: C_20  and  O_29
REMARK                            x       y       z     vdW  Elec       q    Type
REMARK                         _______ _______ _______ _____ _____    ______ ____
ROOT
ATOM      1  O   UNL     1     -37.505  27.569  -1.020  0.00  0.00    -0.425 OA
ATOM      2  O   UNL     1     -39.630  28.300  -1.194  0.00  0.00    -0.244 OA
ATOM      3  C   UNL     1     -38.463  25.415   2.451  0.00  0.00    +0.040 A 
ATOM      4  C   UNL     1     -38.137  26.131   1.294  0.00  0.00    +0.015 A 
ATOM      5  C   UNL     1     -39.126  26.872   0.640  0.00  0.00    +0.113 A 
ATOM      6  C   UNL     1     -39.766  25.440   2.949  0.00  0.00    +0.171 A 
ATOM      7  C   UNL     1     -40.750  26.179   2.296  0.00  0.00    +0.206 A 
ATOM      8  C   UNL     1     -40.433  26.896   1.141  0.00  0.00    +0.177 A 
ATOM      9  C   UNL     1     -36.784  26.114   0.763  0.00  0.00    +0.033 C 
ATOM     10  C   UNL     1     -38.800  27.636  -0.586  0.00  0.00    +0.348 C 
ATOM     11  C   UNL     1     -36.517  26.814  -0.345  0.00  0.00    +0.127 C 
ATOM     12  C   UNL     1     -35.169  26.873  -0.985  0.00  0.00    +0.073 C 
ENDROOT
BRANCH   3  15
ATOM     13  O   UNL     1     -36.635  20.643   2.159  0.00  0.00    -0.425 OA
ATOM     14  O   UNL     1     -35.098  20.511   3.802  0.00  0.00    -0.244 OA
ATOM     15  C   UNL     1     -37.470  24.628   3.169  0.00  0.00    +0.040 A 
ATOM     16  C   UNL     1     -37.197  23.299   2.828  0.00  0.00    +0.015 A 
ATOM     17  C   UNL     1     -36.234  22.585   3.549  0.00  0.00    +0.113 A 
ATOM     18  C   UNL     1     -36.788  25.237   4.223  0.00  0.00    +0.171 A 
ATOM     19  C   UNL     1     -35.829  24.523   4.940  0.00  0.00    +0.206 A 
ATOM     20  C   UNL     1     -35.550  23.198   4.605  0.00  0.00    +0.177 A 
ATOM     21  C   UNL     1     -37.900  22.650   1.732  0.00  0.00    +0.033 C 
ATOM     22  C   UNL     1     -35.931  21.178   3.201  0.00  0.00    +0.348 C 
ATOM     23  C   UNL     1     -37.606  21.379   1.441  0.00  0.00    +0.127 C 
ATOM     24  C   UNL     1     -38.258  20.609   0.340  0.00  0.00    +0.073 C 
BRANCH  18  25
ATOM     25  O   UNL     1     -37.044  26.533   4.568  0.00  0.00    -0.503 OA
ATOM     26  H   UNL     1     -36.677  26.889   5.354  0.00  0.00    +0.292 HD
ENDBRANCH  18  25
BRANCH  19  27
ATOM     27  O   UNL     1     -35.164  25.122   5.970  0.00  0.00    -0.465 OA
ATOM     28  C   UNL     1     -34.068  25.965   5.628  0.00  0.00    +0.253 C 
ENDBRANCH  19  27
BRANCH  20  29
ATOM     29  O   UNL     1     -34.604  22.539   5.336  0.00  0.00    -0.503 OA
ATOM     30  H   UNL     1     -33.723  22.860   5.360  0.00  0.00    +0.292 HD
ENDBRANCH  20  29
ENDBRANCH   3  15
BRANCH   6  31
ATOM     31  O   UNL     1     -40.099  24.746   4.077  0.00  0.00    -0.503 OA
ATOM     32  H   UNL     1     -39.545  24.784   4.832  0.00  0.00    +0.292 HD
ENDBRANCH   6  31
BRANCH   7  33
ATOM     33  O   UNL     1     -42.023  26.202   2.786  0.00  0.00    -0.465 OA
ATOM     34  C   UNL     1     -42.331  27.218   3.736  0.00  0.00    +0.253 C 
ENDBRANCH   7  33
BRANCH   8  35
ATOM     35  O   UNL     1     -41.429  27.606   0.536  0.00  0.00    -0.503 OA
ATOM     36  H   UNL     1     -42.086  27.160   0.036  0.00  0.00    +0.292 HD
ENDBRANCH   8  35
TORSDOF 7
ENDMDL
MODEL 7
REMARK VINA RESULT:      -6.3      2.608      7.415
REMARK  Name = 52921503
REMARK  7 active torsions:
REMARK  status: ('A' for Active; 'I' for Inactive)
REMARK    1  A    between atoms: C_3  and  C_15
REMARK    2  A    between atoms: C_6  and  O_31
REMARK    3  A    between atoms: C_7  and  O_33
REMARK    4  A    between atoms: C_8  and  O_35
REMARK    5  A    between atoms: C_18  and  O_25
REMARK    6  A    between atoms: C_19  and  O_27
REMARK    7  A    between atoms: C_20  and  O_29
REMARK                            x       y       z     vdW  Elec       q    Type
REMARK                         _______ _______ _______ _____ _____    ______ ____
ROOT
ATOM      1  O   UNL     1     -34.301  21.722  -0.065  0.00  0.00    -0.425 OA
ATOM      2  O   UNL     1     -35.001  20.093   1.326  0.00  0.00    -0.244 OA
ATOM      3  C   UNL     1     -35.036  24.631   2.867  0.00  0.00    +0.040 A 
ATOM      4  C   UNL     1     -34.789  23.666   1.885  0.00  0.00    +0.015 A 
ATOM      5  C   UNL     1     -35.048  22.320   2.161  0.00  0.00    +0.113 A 
ATOM      6  C   UNL     1     -35.538  24.254   4.113  0.00  0.00    +0.171 A 
ATOM      7  C   UNL     1     -35.795  22.911   4.385  0.00  0.00    +0.206 A 
ATOM      8  C   UNL     1     -35.551  21.942   3.411  0.00  0.00    +0.177 A 
ATOM      9  C   UNL     1     -34.266  24.045   0.582  0.00  0.00    +0.033 C 
ATOM     10  C   UNL     1     -34.792  21.284   1.133  0.00  0.00    +0.348 C 
ATOM     11  C   UNL     1     -34.045  23.088  -0.326  0.00  0.00    +0.127 C 
ATOM     12  C   UNL     1     -33.510  23.352  -1.695  0.00  0.00    +0.073 C 
ENDROOT
BRANCH   3  15
ATOM     13  O   UNL     1     -37.640  28.542   0.837  0.00  0.00    -0.425 OA
ATOM     14  O   UNL     1     -36.246  30.306   0.991  0.00  0.00    -0.244 OA
ATOM     15  C   UNL     1     -34.785  26.046   2.630  0.00  0.00    +0.040 A 
ATOM     16  C   UNL     1     -35.741  26.873   2.031  0.00  0.00    +0.015 A 
ATOM     17  C   UNL     1     -35.451  28.226   1.825  0.00  0.00    +0.113 A 
ATOM     18  C   UNL     1     -33.550  26.567   3.019  0.00  0.00    +0.171 A 
ATOM     19  C   UNL     1     -33.264  27.915   2.812  0.00  0.00    +0.206 A 
ATOM     20  C   UNL     1     -34.213  28.747   2.216  0.00  0.00    +0.177 A 
ATOM     21  C   UNL     1     -37.032  26.344   1.620  0.00  0.00    +0.033 C 
ATOM     22  C   UNL     1     -36.452  29.116   1.193  0.00  0.00    +0.348 C 
ATOM     23  C   UNL     1     -37.916  27.172   1.052  0.00  0.00    +0.127 C 
ATOM     24  C   UNL     1     -39.272  26.747   0.592  0.00  0.00    +0.073 C 
BRANCH  18  25
ATOM     25  O   UNL     1     -32.607  25.772   3.605  0.00  0.00    -0.503 OA
ATOM     26  H   UNL     1     -31.997  26.141   4.213  0.00  0.00    +0.292 HD
ENDBRANCH  18  25
BRANCH  19  27
ATOM     27  O   UNL     1     -32.056  28.421   3.193  0.00  0.00    -0.465 OA
ATOM     28  C   UNL     1     -31.949  28.902   4.530  0.00  0.00    +0.253 C 
ENDBRANCH  19  27
BRANCH  20  29
ATOM     29  O   UNL     1     -33.888  30.060   2.034  0.00  0.00    -0.503 OA
ATOM     30  H   UNL     1     -33.009  30.299   1.809  0.00  0.00    +0.292 HD
ENDBRANCH  20  29
ENDBRANCH   3  15
BRANCH   6  31
ATOM     31  O   UNL     1     -35.785  25.184   5.081  0.00  0.00    -0.503 OA
ATOM     32  H   UNL     1     -36.486  25.053   5.689  0.00  0.00    +0.292 HD
ENDBRANCH   6  31
BRANCH   7  33
ATOM     33  O   UNL     1     -36.286  22.546   5.604  0.00  0.00    -0.465 OA
ATOM     34  C   UNL     1     -35.341  22.105   6.575  0.00  0.00    +0.253 C 
ENDBRANCH   7  33
BRANCH   8  35
ATOM     35  O   UNL     1     -35.817  20.640   3.723  0.00  0.00    -0.503 OA
ATOM     36  H   UNL     1     -35.158  20.111   4.128  0.00  0.00    +0.292 HD
ENDBRANCH   8  35
TORSDOF 7
ENDMDL
MODEL 8
REMARK VINA RESULT:      -6.3      2.071      6.845
REMARK  Name = 52921503
REMARK  7 active torsions:
REMARK  status: ('A' for Active; 'I' for Inactive)
REMARK    1  A    between atoms: C_3  and  C_15
REMARK    2  A    between atoms: C_6  and  O_31
REMARK    3  A    between atoms: C_7  and  O_33
REMARK    4  A    between atoms: C_8  and  O_35
REMARK    5  A    between atoms: C_18  and  O_25
REMARK    6  A    between atoms: C_19  and  O_27
REMARK    7  A    between atoms: C_20  and  O_29
REMARK                            x       y       z     vdW  Elec       q    Type
REMARK                         _______ _______ _______ _____ _____    ______ ____
ROOT
ATOM      1  O   UNL     1     -37.256  22.219  -0.811  0.00  0.00    -0.425 OA
ATOM      2  O   UNL     1     -39.470  21.798  -0.832  0.00  0.00    -0.244 OA
ATOM      3  C   UNL     1     -37.801  25.285   2.000  0.00  0.00    +0.040 A 
ATOM      4  C   UNL     1     -37.612  24.264   1.062  0.00  0.00    +0.015 A 
ATOM      5  C   UNL     1     -38.716  23.543   0.597  0.00  0.00    +0.113 A 
ATOM      6  C   UNL     1     -39.081  25.583   2.467  0.00  0.00    +0.171 A 
ATOM      7  C   UNL     1     -40.179  24.862   2.002  0.00  0.00    +0.206 A 
ATOM      8  C   UNL     1     -40.000  23.842   1.068  0.00  0.00    +0.177 A 
ATOM      9  C   UNL     1     -36.284  23.943   0.566  0.00  0.00    +0.033 C 
ATOM     10  C   UNL     1     -38.536  22.457  -0.395  0.00  0.00    +0.348 C 
ATOM     11  C   UNL     1     -36.151  22.958  -0.330  0.00  0.00    +0.127 C 
ATOM     12  C   UNL     1     -34.841  22.537  -0.910  0.00  0.00    +0.073 C 
ENDROOT
BRANCH   3  15
ATOM     13  O   UNL     1     -34.371  24.764   5.762  0.00  0.00    -0.425 OA
ATOM     14  O   UNL     1     -33.093  26.616   5.641  0.00  0.00    -0.244 OA
ATOM     15  C   UNL     1     -36.685  26.067   2.515  0.00  0.00    +0.040 A 
ATOM     16  C   UNL     1     -35.917  25.627   3.599  0.00  0.00    +0.015 A 
ATOM     17  C   UNL     1     -34.856  26.414   4.057  0.00  0.00    +0.113 A 
ATOM     18  C   UNL     1     -36.395  27.283   1.896  0.00  0.00    +0.171 A 
ATOM     19  C   UNL     1     -35.336  28.066   2.355  0.00  0.00    +0.206 A 
ATOM     20  C   UNL     1     -34.565  27.634   3.435  0.00  0.00    +0.177 A 
ATOM     21  C   UNL     1     -36.208  24.362   4.255  0.00  0.00    +0.033 C 
ATOM     22  C   UNL     1     -34.032  25.964   5.202  0.00  0.00    +0.348 C 
ATOM     23  C   UNL     1     -35.448  23.981   5.287  0.00  0.00    +0.127 C 
ATOM     24  C   UNL     1     -35.647  22.705   6.037  0.00  0.00    +0.073 C 
BRANCH  18  25
ATOM     25  O   UNL     1     -37.135  27.726   0.837  0.00  0.00    -0.503 OA
ATOM     26  H   UNL     1     -36.893  27.486  -0.036  0.00  0.00    +0.292 HD
ENDBRANCH  18  25
BRANCH  19  27
ATOM     27  O   UNL     1     -35.056  29.254   1.747  0.00  0.00    -0.465 OA
ATOM     28  C   UNL     1     -35.667  30.419   2.294  0.00  0.00    +0.253 C 
ENDBRANCH  19  27
BRANCH  20  29
ATOM     29  O   UNL     1     -33.540  28.433   3.849  0.00  0.00    -0.503 OA
ATOM     30  H   UNL     1     -33.593  28.874   4.675  0.00  0.00    +0.292 HD
ENDBRANCH  20  29
ENDBRANCH   3  15
BRANCH   6  31
ATOM     31  O   UNL     1     -39.280  26.577   3.382  0.00  0.00    -0.503 OA
ATOM     32  H   UNL     1     -38.720  27.328   3.388  0.00  0.00    +0.292 HD
ENDBRANCH   6  31
BRANCH   7  33
ATOM     33  O   UNL     1     -41.430  25.156   2.461  0.00  0.00    -0.465 OA
ATOM     34  C   UNL     1     -42.164  26.146   1.747  0.00  0.00    +0.253 C 
ENDBRANCH   7  33
BRANCH   8  35
ATOM     35  O   UNL     1     -41.106  23.164   0.641  0.00  0.00    -0.503 OA
ATOM     36  H   UNL     1     -41.895  23.630   0.446  0.00  0.00    +0.292 HD
ENDBRANCH   8  35
TORSDOF 7
ENDMDL
MODEL 9
REMARK VINA RESULT:      -6.3      2.598      4.678
REMARK  Name = 52921503
REMARK  7 active torsions:
REMARK  status: ('A' for Active; 'I' for Inactive)
REMARK    1  A    between atoms: C_3  and  C_15
REMARK    2  A    between atoms: C_6  and  O_31
REMARK    3  A    between atoms: C_7  and  O_33
REMARK    4  A    between atoms: C_8  and  O_35
REMARK    5  A    between atoms: C_18  and  O_25
REMARK    6  A    between atoms: C_19  and  O_27
REMARK    7  A    between atoms: C_20  and  O_29
REMARK                            x       y       z     vdW  Elec       q    Type
REMARK                         _______ _______ _______ _____ _____    ______ ____
ROOT
ATOM      1  O   UNL     1     -37.784  28.448   0.754  0.00  0.00    -0.425 OA
ATOM      2  O   UNL     1     -36.440  30.250   0.915  0.00  0.00    -0.244 OA
ATOM      3  C   UNL     1     -34.895  26.046   2.621  0.00  0.00    +0.040 A 
ATOM      4  C   UNL     1     -35.862  26.842   1.998  0.00  0.00    +0.015 A 
ATOM      5  C   UNL     1     -35.605  28.199   1.783  0.00  0.00    +0.113 A 
ATOM      6  C   UNL     1     -33.681  26.603   3.025  0.00  0.00    +0.171 A 
ATOM      7  C   UNL     1     -33.427  27.957   2.810  0.00  0.00    +0.206 A 
ATOM      8  C   UNL     1     -34.387  28.757   2.190  0.00  0.00    +0.177 A 
ATOM      9  C   UNL     1     -37.131  26.275   1.571  0.00  0.00    +0.033 C 
ATOM     10  C   UNL     1     -36.617  29.057   1.125  0.00  0.00    +0.348 C 
ATOM     11  C   UNL     1     -38.027  27.073   0.978  0.00  0.00    +0.127 C 
ATOM     12  C   UNL     1     -39.363  26.608   0.499  0.00  0.00    +0.073 C 
ENDROOT
BRANCH   3  15
ATOM     13  O   UNL     1     -34.307  21.717  -0.045  0.00  0.00    -0.425 OA
ATOM     14  O   UNL     1     -34.970  20.081   1.356  0.00  0.00    -0.244 OA
ATOM     15  C   UNL     1     -35.112  24.627   2.867  0.00  0.00    +0.040 A 
ATOM     16  C   UNL     1     -34.842  23.662   1.891  0.00  0.00    +0.015 A 
ATOM     17  C   UNL     1     -35.069  22.312   2.176  0.00  0.00    +0.113 A 
ATOM     18  C   UNL     1     -35.605  24.247   4.115  0.00  0.00    +0.171 A 
ATOM     19  C   UNL     1     -35.830  22.900   4.396  0.00  0.00    +0.206 A 
ATOM     20  C   UNL     1     -35.563  21.930   3.429  0.00  0.00    +0.177 A 
ATOM     21  C   UNL     1     -34.329  24.044   0.585  0.00  0.00    +0.033 C 
ATOM     22  C   UNL     1     -34.788  21.275   1.156  0.00  0.00    +0.348 C 
ATOM     23  C   UNL     1     -34.085  23.087  -0.316  0.00  0.00    +0.127 C 
ATOM     24  C   UNL     1     -33.555  23.355  -1.687  0.00  0.00    +0.073 C 
BRANCH  18  25
ATOM     25  O   UNL     1     -35.874  25.177   5.078  0.00  0.00    -0.503 OA
ATOM     26  H   UNL     1     -36.670  25.126   5.569  0.00  0.00    +0.292 HD
ENDBRANCH  18  25
BRANCH  19  27
ATOM     27  O   UNL     1     -36.312  22.531   5.618  0.00  0.00    -0.465 OA
ATOM     28  C   UNL     1     -35.357  22.125   6.594  0.00  0.00    +0.253 C 
ENDBRANCH  19  27
BRANCH  20  29
ATOM     29  O   UNL     1     -35.799  20.625   3.750  0.00  0.00    -0.503 OA
ATOM     30  H   UNL     1     -36.489  20.155   3.324  0.00  0.00    +0.292 HD
ENDBRANCH  20  29
ENDBRANCH   3  15
BRANCH   6  31
ATOM     31  O   UNL     1     -32.727  25.840   3.635  0.00  0.00    -0.503 OA
ATOM     32  H   UNL     1     -31.821  26.054   3.534  0.00  0.00    +0.292 HD
ENDBRANCH   6  31
BRANCH   7  33
ATOM     33  O   UNL     1     -32.239  28.498   3.207  0.00  0.00    -0.465 OA
ATOM     34  C   UNL     1     -32.190  29.057   4.516  0.00  0.00    +0.253 C 
ENDBRANCH   7  33
BRANCH   8  35
ATOM     35  O   UNL     1     -34.094  30.077   2.000  0.00  0.00    -0.503 OA
ATOM     36  H   UNL     1     -34.774  30.680   1.772  0.00  0.00    +0.292 HD
ENDBRANCH   8  35
TORSDOF 7
ENDMDL
