MODEL 1
REMARK VINA RESULT:      -5.7      0.000      0.000
REMARK  Name = 5328768
REMARK  5 active torsions:
REMARK  status: ('A' for Active; 'I' for Inactive)
REMARK    1  A    between atoms: C_1  and  C_11
REMARK    2  A    between atoms: C_4  and  O_7
REMARK    3  A    between atoms: C_5  and  O_9
REMARK    4  A    between atoms: C_12  and  C_15
REMARK    5  A    between atoms: C_12  and  C_19
REMARK                            x       y       z     vdW  Elec       q    Type
REMARK                         _______ _______ _______ _____ _____    ______ ____
ROOT
ATOM      1  C   UNL     1     -36.198  22.736   2.968  0.00  0.00    +0.004 C 
ATOM      2  C   UNL     1     -37.493  22.423   2.555  0.00  0.00    +0.040 C 
ATOM      3  C   UNL     1     -35.157  21.833   2.748  0.00  0.00    +0.003 C 
ATOM      4  C   UNL     1     -37.747  21.207   1.919  0.00  0.00    +0.167 C 
ATOM      5  C   UNL     1     -36.707  20.305   1.698  0.00  0.00    +0.167 C 
ATOM      6  C   UNL     1     -35.412  20.618   2.112  0.00  0.00    +0.040 C 
ENDROOT
BRANCH   4   7
ATOM      7  O   UNL     1     -39.015  20.913   1.520  0.00  0.00    -0.503 OA
ATOM      8  H   UNL     1     -39.283  21.093   0.640  0.00  0.00    +0.292 HD
ENDBRANCH   4   7
BRANCH   5   9
ATOM      9  O   UNL     1     -36.942  19.115   1.077  0.00  0.00    -0.503 OA
ATOM     10  H   UNL     1     -37.766  18.960   0.658  0.00  0.00    +0.292 HD
ENDBRANCH   5   9
BRANCH   1  11
ATOM     11  C   UNL     1     -35.932  24.002   3.632  0.00  0.00    +0.015 C 
ATOM     12  C   UNL     1     -35.673  24.175   4.953  0.00  0.00    +0.121 C 
BRANCH  12  15
ATOM     13  O   UNL     1     -34.380  25.925   5.969  0.00  0.00    -0.270 OA
ATOM     14  N   UNL     1     -36.469  26.456   5.211  0.00  0.00    -0.325 N 
ATOM     15  C   UNL     1     -35.429  25.582   5.427  0.00  0.00    +0.252 C 
ATOM     16  H   UNL     1     -36.388  27.396   5.493  0.00  0.00    +0.145 HD
ATOM     17  H   UNL     1     -37.294  26.142   4.775  0.00  0.00    +0.145 HD
ENDBRANCH  12  15
BRANCH  12  19
ATOM     18  N   UNL     1     -35.637  22.174   6.593  0.00  0.00    -0.191 NA
ATOM     19  C   UNL     1     -35.653  23.073   5.858  0.00  0.00    +0.105 C 
ENDBRANCH  12  19
ENDBRANCH   1  11
TORSDOF 5
ENDMDL
MODEL 2
REMARK VINA RESULT:      -5.6      2.989      3.935
REMARK  Name = 5328768
REMARK  5 active torsions:
REMARK  status: ('A' for Active; 'I' for Inactive)
REMARK    1  A    between atoms: C_1  and  C_11
REMARK    2  A    between atoms: C_4  and  O_7
REMARK    3  A    between atoms: C_5  and  O_9
REMARK    4  A    between atoms: C_12  and  C_15
REMARK    5  A    between atoms: C_12  and  C_19
REMARK                            x       y       z     vdW  Elec       q    Type
REMARK                         _______ _______ _______ _____ _____    ______ ____
ROOT
ATOM      1  C   UNL     1     -35.749  24.056   3.822  0.00  0.00    +0.004 C 
ATOM      2  C   UNL     1     -35.816  22.831   3.158  0.00  0.00    +0.040 C 
ATOM      3  C   UNL     1     -35.497  24.094   5.194  0.00  0.00    +0.003 C 
ATOM      4  C   UNL     1     -35.630  21.644   3.866  0.00  0.00    +0.167 C 
ATOM      5  C   UNL     1     -35.378  21.682   5.238  0.00  0.00    +0.167 C 
ATOM      6  C   UNL     1     -35.311  22.908   5.901  0.00  0.00    +0.040 C 
ENDROOT
BRANCH   4   7
ATOM      7  O   UNL     1     -35.698  20.454   3.208  0.00  0.00    -0.503 OA
ATOM      8  H   UNL     1     -36.456  20.241   2.700  0.00  0.00    +0.292 HD
ENDBRANCH   4   7
BRANCH   5   9
ATOM      9  O   UNL     1     -35.193  20.529   5.940  0.00  0.00    -0.503 OA
ATOM     10  H   UNL     1     -34.813  20.558   6.797  0.00  0.00    +0.292 HD
ENDBRANCH   5   9
BRANCH   1  11
ATOM     11  C   UNL     1     -35.944  25.294   3.084  0.00  0.00    +0.015 C 
ATOM     12  C   UNL     1     -37.137  25.862   2.774  0.00  0.00    +0.121 C 
BRANCH  12  15
ATOM     13  O   UNL     1     -37.970  27.452   1.180  0.00  0.00    -0.270 OA
ATOM     14  N   UNL     1     -36.029  27.965   2.270  0.00  0.00    -0.325 N 
ATOM     15  C   UNL     1     -37.104  27.150   1.998  0.00  0.00    +0.252 C 
ATOM     16  H   UNL     1     -35.935  28.827   1.803  0.00  0.00    +0.145 HD
ATOM     17  H   UNL     1     -35.355  27.687   2.931  0.00  0.00    +0.145 HD
ENDBRANCH  12  15
BRANCH  12  19
ATOM     18  N   UNL     1     -39.375  24.757   3.457  0.00  0.00    -0.191 NA
ATOM     19  C   UNL     1     -38.371  25.254   3.151  0.00  0.00    +0.105 C 
ENDBRANCH  12  19
ENDBRANCH   1  11
TORSDOF 5
ENDMDL
MODEL 3
REMARK VINA RESULT:      -5.6      2.928      3.859
REMARK  Name = 5328768
REMARK  5 active torsions:
REMARK  status: ('A' for Active; 'I' for Inactive)
REMARK    1  A    between atoms: C_1  and  C_11
REMARK    2  A    between atoms: C_4  and  O_7
REMARK    3  A    between atoms: C_5  and  O_9
REMARK    4  A    between atoms: C_12  and  C_15
REMARK    5  A    between atoms: C_12  and  C_19
REMARK                            x       y       z     vdW  Elec       q    Type
REMARK                         _______ _______ _______ _____ _____    ______ ____
ROOT
ATOM      1  C   UNL     1     -35.829  24.230   4.152  0.00  0.00    +0.004 C 
ATOM      2  C   UNL     1     -35.935  23.078   3.372  0.00  0.00    +0.040 C 
ATOM      3  C   UNL     1     -35.499  24.130   5.503  0.00  0.00    +0.003 C 
ATOM      4  C   UNL     1     -35.710  21.826   3.945  0.00  0.00    +0.167 C 
ATOM      5  C   UNL     1     -35.379  21.726   5.296  0.00  0.00    +0.167 C 
ATOM      6  C   UNL     1     -35.273  22.879   6.075  0.00  0.00    +0.040 C 
ENDROOT
BRANCH   4   7
ATOM      7  O   UNL     1     -35.816  20.708   3.174  0.00  0.00    -0.503 OA
ATOM      8  H   UNL     1     -35.071  20.392   2.701  0.00  0.00    +0.292 HD
ENDBRANCH   4   7
BRANCH   5   9
ATOM      9  O   UNL     1     -35.155  20.510   5.867  0.00  0.00    -0.503 OA
ATOM     10  H   UNL     1     -34.291  20.274   6.145  0.00  0.00    +0.292 HD
ENDBRANCH   5   9
BRANCH   1  11
ATOM     11  C   UNL     1     -36.066  25.535   3.556  0.00  0.00    +0.015 C 
ATOM     12  C   UNL     1     -35.117  26.390   3.097  0.00  0.00    +0.121 C 
BRANCH  12  15
ATOM     13  O   UNL     1     -36.280  27.759   1.503  0.00  0.00    -0.270 OA
ATOM     14  N   UNL     1     -35.190  28.816   3.211  0.00  0.00    -0.325 N 
ATOM     15  C   UNL     1     -35.590  27.696   2.519  0.00  0.00    +0.252 C 
ATOM     16  H   UNL     1     -35.457  29.710   2.896  0.00  0.00    +0.145 HD
ATOM     17  H   UNL     1     -34.635  28.724   4.019  0.00  0.00    +0.145 HD
ENDBRANCH  12  15
BRANCH  12  19
ATOM     18  N   UNL     1     -32.597  25.819   3.242  0.00  0.00    -0.191 NA
ATOM     19  C   UNL     1     -33.728  26.074   3.178  0.00  0.00    +0.105 C 
ENDBRANCH  12  19
ENDBRANCH   1  11
TORSDOF 5
ENDMDL
MODEL 4
REMARK VINA RESULT:      -5.5      3.477      4.720
REMARK  Name = 5328768
REMARK  5 active torsions:
REMARK  status: ('A' for Active; 'I' for Inactive)
REMARK    1  A    between atoms: C_1  and  C_11
REMARK    2  A    between atoms: C_4  and  O_7
REMARK    3  A    between atoms: C_5  and  O_9
REMARK    4  A    between atoms: C_12  and  C_15
REMARK    5  A    between atoms: C_12  and  C_19
REMARK                            x       y       z     vdW  Elec       q    Type
REMARK                         _______ _______ _______ _____ _____    ______ ____
ROOT
ATOM      1  C   UNL     1     -34.584  25.509   5.409  0.00  0.00    +0.004 C 
ATOM      2  C   UNL     1     -35.916  25.824   5.139  0.00  0.00    +0.040 C 
ATOM      3  C   UNL     1     -34.101  24.228   5.137  0.00  0.00    +0.003 C 
ATOM      4  C   UNL     1     -36.764  24.859   4.597  0.00  0.00    +0.167 C 
ATOM      5  C   UNL     1     -36.281  23.579   4.324  0.00  0.00    +0.167 C 
ATOM      6  C   UNL     1     -34.949  23.264   4.594  0.00  0.00    +0.040 C 
ENDROOT
BRANCH   4   7
ATOM      7  O   UNL     1     -38.062  25.178   4.338  0.00  0.00    -0.503 OA
ATOM      8  H   UNL     1     -38.577  24.631   3.776  0.00  0.00    +0.292 HD
ENDBRANCH   4   7
BRANCH   5   9
ATOM      9  O   UNL     1     -37.099  22.628   3.793  0.00  0.00    -0.503 OA
ATOM     10  H   UNL     1     -37.606  22.820   3.028  0.00  0.00    +0.292 HD
ENDBRANCH   5   9
BRANCH   1  11
ATOM     11  C   UNL     1     -33.699  26.514   5.976  0.00  0.00    +0.015 C 
ATOM     12  C   UNL     1     -32.947  27.403   5.281  0.00  0.00    +0.121 C 
BRANCH  12  15
ATOM     13  O   UNL     1     -32.261  29.574   6.044  0.00  0.00    -0.270 OA
ATOM     14  N   UNL     1     -31.121  27.763   6.843  0.00  0.00    -0.325 N 
ATOM     15  C   UNL     1     -32.098  28.356   6.076  0.00  0.00    +0.252 C 
ATOM     16  H   UNL     1     -30.522  28.318   7.393  0.00  0.00    +0.145 HD
ATOM     17  H   UNL     1     -31.020  26.783   6.841  0.00  0.00    +0.145 HD
ENDBRANCH  12  15
BRANCH  12  19
ATOM     18  N   UNL     1     -32.940  27.434   2.693  0.00  0.00    -0.191 NA
ATOM     19  C   UNL     1     -32.945  27.421   3.854  0.00  0.00    +0.105 C 
ENDBRANCH  12  19
ENDBRANCH   1  11
TORSDOF 5
ENDMDL
MODEL 5
REMARK VINA RESULT:      -5.4      2.880      5.554
REMARK  Name = 5328768
REMARK  5 active torsions:
REMARK  status: ('A' for Active; 'I' for Inactive)
REMARK    1  A    between atoms: C_1  and  C_11
REMARK    2  A    between atoms: C_4  and  O_7
REMARK    3  A    between atoms: C_5  and  O_9
REMARK    4  A    between atoms: C_12  and  C_15
REMARK    5  A    between atoms: C_12  and  C_19
REMARK                            x       y       z     vdW  Elec       q    Type
REMARK                         _______ _______ _______ _____ _____    ______ ____
ROOT
ATOM      1  C   UNL     1     -36.061  22.954   3.832  0.00  0.00    +0.004 C 
ATOM      2  C   UNL     1     -37.064  23.833   3.426  0.00  0.00    +0.040 C 
ATOM      3  C   UNL     1     -35.167  23.330   4.835  0.00  0.00    +0.003 C 
ATOM      4  C   UNL     1     -37.175  25.089   4.023  0.00  0.00    +0.167 C 
ATOM      5  C   UNL     1     -36.282  25.465   5.027  0.00  0.00    +0.167 C 
ATOM      6  C   UNL     1     -35.278  24.584   5.433  0.00  0.00    +0.040 C 
ENDROOT
BRANCH   4   7
ATOM      7  O   UNL     1     -38.158  25.939   3.619  0.00  0.00    -0.503 OA
ATOM      8  H   UNL     1     -38.388  26.677   4.149  0.00  0.00    +0.292 HD
ENDBRANCH   4   7
BRANCH   5   9
ATOM      9  O   UNL     1     -36.380  26.687   5.620  0.00  0.00    -0.503 OA
ATOM     10  H   UNL     1     -35.742  26.954   6.252  0.00  0.00    +0.292 HD
ENDBRANCH   5   9
BRANCH   1  11
ATOM     11  C   UNL     1     -35.944  21.645   3.208  0.00  0.00    +0.015 C 
ATOM     12  C   UNL     1     -35.298  21.366   2.049  0.00  0.00    +0.121 C 
BRANCH  12  15
ATOM     13  O   UNL     1     -34.277  19.325   1.300  0.00  0.00    -0.270 OA
ATOM     14  N   UNL     1     -36.553  19.359   1.499  0.00  0.00    -0.325 N 
ATOM     15  C   UNL     1     -35.306  19.935   1.584  0.00  0.00    +0.252 C 
ATOM     16  H   UNL     1     -36.643  18.425   1.202  0.00  0.00    +0.145 HD
ATOM     17  H   UNL     1     -37.354  19.882   1.734  0.00  0.00    +0.145 HD
ENDBRANCH  12  15
BRANCH  12  19
ATOM     18  N   UNL     1     -34.130  23.219   0.671  0.00  0.00    -0.191 NA
ATOM     19  C   UNL     1     -34.654  22.388   1.290  0.00  0.00    +0.105 C 
ENDBRANCH  12  19
ENDBRANCH   1  11
TORSDOF 5
ENDMDL
MODEL 6
REMARK VINA RESULT:      -5.4      2.833      4.052
REMARK  Name = 5328768
REMARK  5 active torsions:
REMARK  status: ('A' for Active; 'I' for Inactive)
REMARK    1  A    between atoms: C_1  and  C_11
REMARK    2  A    between atoms: C_4  and  O_7
REMARK    3  A    between atoms: C_5  and  O_9
REMARK    4  A    between atoms: C_12  and  C_15
REMARK    5  A    between atoms: C_12  and  C_19
REMARK                            x       y       z     vdW  Elec       q    Type
REMARK                         _______ _______ _______ _____ _____    ______ ____
ROOT
ATOM      1  C   UNL     1     -35.139  24.763   5.080  0.00  0.00    +0.004 C 
ATOM      2  C   UNL     1     -34.867  23.405   5.247  0.00  0.00    +0.040 C 
ATOM      3  C   UNL     1     -36.174  25.169   4.238  0.00  0.00    +0.003 C 
ATOM      4  C   UNL     1     -35.633  22.453   4.574  0.00  0.00    +0.167 C 
ATOM      5  C   UNL     1     -36.669  22.859   3.732  0.00  0.00    +0.167 C 
ATOM      6  C   UNL     1     -36.940  24.217   3.565  0.00  0.00    +0.040 C 
ENDROOT
BRANCH   4   7
ATOM      7  O   UNL     1     -35.359  21.130   4.745  0.00  0.00    -0.503 OA
ATOM      8  H   UNL     1     -35.372  20.549   4.010  0.00  0.00    +0.292 HD
ENDBRANCH   4   7
BRANCH   5   9
ATOM      9  O   UNL     1     -37.424  21.939   3.070  0.00  0.00    -0.503 OA
ATOM     10  H   UNL     1     -37.009  21.251   2.587  0.00  0.00    +0.292 HD
ENDBRANCH   5   9
BRANCH   1  11
ATOM     11  C   UNL     1     -34.340  25.756   5.781  0.00  0.00    +0.015 C 
ATOM     12  C   UNL     1     -33.470  26.628   5.214  0.00  0.00    +0.121 C 
BRANCH  12  15
ATOM     13  O   UNL     1     -32.320  28.664   5.763  0.00  0.00    -0.270 OA
ATOM     14  N   UNL     1     -32.587  27.118   7.424  0.00  0.00    -0.325 N 
ATOM     15  C   UNL     1     -32.744  27.571   6.134  0.00  0.00    +0.252 C 
ATOM     16  H   UNL     1     -32.122  27.676   8.088  0.00  0.00    +0.145 HD
ATOM     17  H   UNL     1     -32.939  26.235   7.682  0.00  0.00    +0.145 HD
ENDBRANCH  12  15
BRANCH  12  19
ATOM     18  N   UNL     1     -33.048  26.650   2.661  0.00  0.00    -0.191 NA
ATOM     19  C   UNL     1     -33.236  26.639   3.806  0.00  0.00    +0.105 C 
ENDBRANCH  12  19
ENDBRANCH   1  11
TORSDOF 5
ENDMDL
MODEL 7
REMARK VINA RESULT:      -5.2      1.334      2.254
REMARK  Name = 5328768
REMARK  5 active torsions:
REMARK  status: ('A' for Active; 'I' for Inactive)
REMARK    1  A    between atoms: C_1  and  C_11
REMARK    2  A    between atoms: C_4  and  O_7
REMARK    3  A    between atoms: C_5  and  O_9
REMARK    4  A    between atoms: C_12  and  C_15
REMARK    5  A    between atoms: C_12  and  C_19
REMARK                            x       y       z     vdW  Elec       q    Type
REMARK                         _______ _______ _______ _____ _____    ______ ____
ROOT
ATOM      1  C   UNL     1     -37.016  23.535   2.914  0.00  0.00    +0.004 C 
ATOM      2  C   UNL     1     -36.714  22.241   2.490  0.00  0.00    +0.040 C 
ATOM      3  C   UNL     1     -38.337  23.983   2.904  0.00  0.00    +0.003 C 
ATOM      4  C   UNL     1     -37.735  21.393   2.058  0.00  0.00    +0.167 C 
ATOM      5  C   UNL     1     -39.056  21.841   2.049  0.00  0.00    +0.167 C 
ATOM      6  C   UNL     1     -39.357  23.137   2.473  0.00  0.00    +0.040 C 
ENDROOT
BRANCH   4   7
ATOM      7  O   UNL     1     -37.430  20.132   1.647  0.00  0.00    -0.503 OA
ATOM      8  H   UNL     1     -37.487  19.416   2.249  0.00  0.00    +0.292 HD
ENDBRANCH   4   7
BRANCH   5   9
ATOM      9  O   UNL     1     -40.062  21.024   1.631  0.00  0.00    -0.503 OA
ATOM     10  H   UNL     1     -39.861  20.223   1.186  0.00  0.00    +0.292 HD
ENDBRANCH   5   9
BRANCH   1  11
ATOM     11  C   UNL     1     -35.952  24.419   3.363  0.00  0.00    +0.015 C 
ATOM     12  C   UNL     1     -35.277  24.329   4.537  0.00  0.00    +0.121 C 
BRANCH  12  15
ATOM     13  O   UNL     1     -33.194  25.446   4.113  0.00  0.00    -0.270 OA
ATOM     14  N   UNL     1     -34.458  26.192   5.865  0.00  0.00    -0.325 N 
ATOM     15  C   UNL     1     -34.211  25.357   4.798  0.00  0.00    +0.252 C 
ATOM     16  H   UNL     1     -33.808  26.892   6.102  0.00  0.00    +0.145 HD
ATOM     17  H   UNL     1     -35.284  26.088   6.390  0.00  0.00    +0.145 HD
ENDBRANCH  12  15
BRANCH  12  19
ATOM     18  N   UNL     1     -35.825  22.490   6.273  0.00  0.00    -0.191 NA
ATOM     19  C   UNL     1     -35.579  23.314   5.493  0.00  0.00    +0.105 C 
ENDBRANCH  12  19
ENDBRANCH   1  11
TORSDOF 5
ENDMDL
MODEL 8
REMARK VINA RESULT:      -5.1      2.672      5.326
REMARK  Name = 5328768
REMARK  5 active torsions:
REMARK  status: ('A' for Active; 'I' for Inactive)
REMARK    1  A    between atoms: C_1  and  C_11
REMARK    2  A    between atoms: C_4  and  O_7
REMARK    3  A    between atoms: C_5  and  O_9
REMARK    4  A    between atoms: C_12  and  C_15
REMARK    5  A    between atoms: C_12  and  C_19
REMARK                            x       y       z     vdW  Elec       q    Type
REMARK                         _______ _______ _______ _____ _____    ______ ____
ROOT
ATOM      1  C   UNL     1     -35.293  24.375   2.584  0.00  0.00    +0.004 C 
ATOM      2  C   UNL     1     -36.377  25.189   2.254  0.00  0.00    +0.040 C 
ATOM      3  C   UNL     1     -34.162  24.929   3.183  0.00  0.00    +0.003 C 
ATOM      4  C   UNL     1     -36.330  26.557   2.524  0.00  0.00    +0.167 C 
ATOM      5  C   UNL     1     -35.198  27.110   3.124  0.00  0.00    +0.167 C 
ATOM      6  C   UNL     1     -34.115  26.296   3.454  0.00  0.00    +0.040 C 
ENDROOT
BRANCH   4   7
ATOM      7  O   UNL     1     -37.394  27.341   2.198  0.00  0.00    -0.503 OA
ATOM      8  H   UNL     1     -37.369  28.261   2.373  0.00  0.00    +0.292 HD
ENDBRANCH   4   7
BRANCH   5   9
ATOM      9  O   UNL     1     -35.140  28.444   3.394  0.00  0.00    -0.503 OA
ATOM     10  H   UNL     1     -35.926  28.955   3.403  0.00  0.00    +0.292 HD
ENDBRANCH   5   9
BRANCH   1  11
ATOM     11  C   UNL     1     -35.342  22.949   2.301  0.00  0.00    +0.015 C 
ATOM     12  C   UNL     1     -35.562  21.961   3.203  0.00  0.00    +0.121 C 
BRANCH  12  15
ATOM     13  O   UNL     1     -34.535  19.901   2.519  0.00  0.00    -0.270 OA
ATOM     14  N   UNL     1     -36.815  20.033   2.418  0.00  0.00    -0.325 N 
ATOM     15  C   UNL     1     -35.567  20.548   2.688  0.00  0.00    +0.252 C 
ATOM     16  H   UNL     1     -36.903  19.113   2.077  0.00  0.00    +0.145 HD
ATOM     17  H   UNL     1     -37.617  20.583   2.565  0.00  0.00    +0.145 HD
ENDBRANCH  12  15
BRANCH  12  19
ATOM     18  N   UNL     1     -35.925  22.477   5.713  0.00  0.00    -0.191 NA
ATOM     19  C   UNL     1     -35.761  22.247   4.587  0.00  0.00    +0.105 C 
ENDBRANCH  12  19
ENDBRANCH   1  11
TORSDOF 5
ENDMDL
MODEL 9
REMARK VINA RESULT:      -5.0      1.482      2.018
REMARK  Name = 5328768
REMARK  5 active torsions:
REMARK  status: ('A' for Active; 'I' for Inactive)
REMARK    1  A    between atoms: C_1  and  C_11
REMARK    2  A    between atoms: C_4  and  O_7
REMARK    3  A    between atoms: C_5  and  O_9
REMARK    4  A    between atoms: C_12  and  C_15
REMARK    5  A    between atoms: C_12  and  C_19
REMARK                            x       y       z     vdW  Elec       q    Type
REMARK                         _______ _______ _______ _____ _____    ______ ____
ROOT
ATOM      1  C   UNL     1     -36.344  22.756   3.373  0.00  0.00    +0.004 C 
ATOM      2  C   UNL     1     -37.517  22.482   2.670  0.00  0.00    +0.040 C 
ATOM      3  C   UNL     1     -35.309  21.820   3.396  0.00  0.00    +0.003 C 
ATOM      4  C   UNL     1     -37.655  21.272   1.989  0.00  0.00    +0.167 C 
ATOM      5  C   UNL     1     -36.620  20.337   2.011  0.00  0.00    +0.167 C 
ATOM      6  C   UNL     1     -35.447  20.612   2.715  0.00  0.00    +0.040 C 
ENDROOT
BRANCH   4   7
ATOM      7  O   UNL     1     -38.804  21.016   1.306  0.00  0.00    -0.503 OA
ATOM      8  H   UNL     1     -39.109  21.619   0.657  0.00  0.00    +0.292 HD
ENDBRANCH   4   7
BRANCH   5   9
ATOM      9  O   UNL     1     -36.742  19.153   1.349  0.00  0.00    -0.503 OA
ATOM     10  H   UNL     1     -36.299  19.024   0.533  0.00  0.00    +0.292 HD
ENDBRANCH   5   9
BRANCH   1  11
ATOM     11  C   UNL     1     -36.200  24.016   4.085  0.00  0.00    +0.015 C 
ATOM     12  C   UNL     1     -35.452  25.077   3.691  0.00  0.00    +0.121 C 
BRANCH  12  15
ATOM     13  O   UNL     1     -34.508  27.079   4.623  0.00  0.00    -0.270 OA
ATOM     14  N   UNL     1     -36.570  26.434   5.369  0.00  0.00    -0.325 N 
ATOM     15  C   UNL     1     -35.446  26.285   4.588  0.00  0.00    +0.252 C 
ATOM     16  H   UNL     1     -36.643  27.200   5.983  0.00  0.00    +0.145 HD
ATOM     17  H   UNL     1     -37.299  25.775   5.313  0.00  0.00    +0.145 HD
ENDBRANCH  12  15
BRANCH  12  19
ATOM     18  N   UNL     1     -34.063  25.018   1.509  0.00  0.00    -0.191 NA
ATOM     19  C   UNL     1     -34.687  25.044   2.487  0.00  0.00    +0.105 C 
ENDBRANCH  12  19
ENDBRANCH   1  11
TORSDOF 5
ENDMDL
