MODEL 1
REMARK VINA RESULT:      -6.6      0.000      0.000
REMARK  Name = 59051797
REMARK  3 active torsions:
REMARK  status: ('A' for Active; 'I' for Inactive)
REMARK    1  A    between atoms: C_7  and  C_16
REMARK    2  A    between atoms: C_8  and  N_24
REMARK    3  A    between atoms: C_11  and  C_21
REMARK                            x       y       z     vdW  Elec       q    Type
REMARK                         _______ _______ _______ _____ _____    ______ ____
ROOT
ATOM      1 CL   UNL     1     -39.803  26.301   1.394  0.00  0.00    -0.077 Cl
ATOM      2  O   UNL     1     -35.039  27.636   2.400  0.00  0.00    -0.287 OA
ATOM      3  O   UNL     1     -37.360  27.981   1.212  0.00  0.00    -0.283 OA
ATOM      4  N   UNL     1     -36.700  23.687   4.507  0.00  0.00    -0.400 NA
ATOM      5  C   UNL     1     -35.750  25.652   3.510  0.00  0.00    +0.145 C 
ATOM      6  C   UNL     1     -36.812  24.771   3.696  0.00  0.00    +0.134 C 
ATOM      7  C   UNL     1     -34.541  25.423   4.167  0.00  0.00    +0.048 C 
ATOM      8  C   UNL     1     -38.118  24.968   3.022  0.00  0.00    +0.082 C 
ATOM      9  C   UNL     1     -35.910  26.812   2.626  0.00  0.00    +0.223 C 
ATOM     10  C   UNL     1     -34.418  24.318   4.998  0.00  0.00    +0.038 C 
ATOM     11  C   UNL     1     -35.516  23.489   5.133  0.00  0.00    +0.184 C 
ATOM     12  C   UNL     1     -38.301  26.021   2.205  0.00  0.00    +0.114 C 
ATOM     13  C   UNL     1     -37.231  27.012   1.945  0.00  0.00    +0.242 C 
ENDROOT
BRANCH   7  16
ATOM     14  O   UNL     1     -32.468  25.999   3.235  0.00  0.00    -0.270 OA
ATOM     15  N   UNL     1     -33.331  27.420   4.852  0.00  0.00    -0.299 N 
ATOM     16  C   UNL     1     -33.367  26.280   4.043  0.00  0.00    +0.243 C 
ATOM     17  C   UNL     1     -32.249  28.379   4.828  0.00  0.00    +0.111 C 
ATOM     18  H   UNL     1     -34.081  27.578   5.470  0.00  0.00    +0.150 HD
ENDBRANCH   7  16
BRANCH  11  21
ATOM     19  O   UNL     1     -36.338  22.068   6.823  0.00  0.00    -0.268 OA
ATOM     20  N   UNL     1     -34.359  21.462   5.834  0.00  0.00    -0.323 N 
ATOM     21  C   UNL     1     -35.448  22.316   5.989  0.00  0.00    +0.272 C 
ATOM     22  H   UNL     1     -34.280  20.659   6.397  0.00  0.00    +0.145 HD
ATOM     23  H   UNL     1     -33.668  21.663   5.161  0.00  0.00    +0.145 HD
ENDBRANCH  11  21
BRANCH   8  24
ATOM     24  N   UNL     1     -39.079  24.027   3.290  0.00  0.00    -0.355 N 
ATOM     25  H   UNL     1     -39.188  23.251   2.695  0.00  0.00    +0.142 HD
ATOM     26  H   UNL     1     -39.660  24.129   4.079  0.00  0.00    +0.142 HD
ENDBRANCH   8  24
TORSDOF 3
ENDMDL
MODEL 2
REMARK VINA RESULT:      -6.3      3.009      4.685
REMARK  Name = 59051797
REMARK  3 active torsions:
REMARK  status: ('A' for Active; 'I' for Inactive)
REMARK    1  A    between atoms: C_7  and  C_16
REMARK    2  A    between atoms: C_8  and  N_24
REMARK    3  A    between atoms: C_11  and  C_21
REMARK                            x       y       z     vdW  Elec       q    Type
REMARK                         _______ _______ _______ _____ _____    ______ ____
ROOT
ATOM      1 CL   UNL     1     -41.569  24.716   1.844  0.00  0.00    -0.077 Cl
ATOM      2  O   UNL     1     -37.953  21.199   2.044  0.00  0.00    -0.287 OA
ATOM      3  O   UNL     1     -40.356  22.044   1.387  0.00  0.00    -0.283 OA
ATOM      4  N   UNL     1     -36.961  25.471   3.928  0.00  0.00    -0.400 NA
ATOM      5  C   UNL     1     -37.338  23.285   3.015  0.00  0.00    +0.145 C 
ATOM      6  C   UNL     1     -37.767  24.578   3.298  0.00  0.00    +0.134 C 
ATOM      7  C   UNL     1     -36.052  22.889   3.384  0.00  0.00    +0.048 C 
ATOM      8  C   UNL     1     -39.123  25.050   2.928  0.00  0.00    +0.082 C 
ATOM      9  C   UNL     1     -38.239  22.350   2.333  0.00  0.00    +0.223 C 
ATOM     10  C   UNL     1     -35.221  23.796   4.028  0.00  0.00    +0.038 C 
ATOM     11  C   UNL     1     -35.718  25.062   4.275  0.00  0.00    +0.184 C 
ATOM     12  C   UNL     1     -39.976  24.220   2.301  0.00  0.00    +0.114 C 
ATOM     13  C   UNL     1     -39.610  22.826   1.957  0.00  0.00    +0.242 C 
ENDROOT
BRANCH   7  16
ATOM     14  O   UNL     1     -35.469  20.717   4.046  0.00  0.00    -0.270 OA
ATOM     15  N   UNL     1     -35.048  21.298   1.841  0.00  0.00    -0.299 N 
ATOM     16  C   UNL     1     -35.502  21.561   3.137  0.00  0.00    +0.243 C 
ATOM     17  C   UNL     1     -34.500  20.024   1.433  0.00  0.00    +0.111 C 
ATOM     18  H   UNL     1     -35.106  22.017   1.171  0.00  0.00    +0.150 HD
ENDBRANCH   7  16
BRANCH  11  21
ATOM     19  O   UNL     1     -34.243  25.775   5.968  0.00  0.00    -0.268 OA
ATOM     20  N   UNL     1     -34.842  27.333   4.395  0.00  0.00    -0.323 N 
ATOM     21  C   UNL     1     -34.895  26.054   4.945  0.00  0.00    +0.272 C 
ATOM     22  H   UNL     1     -34.295  28.031   4.823  0.00  0.00    +0.145 HD
ATOM     23  H   UNL     1     -35.351  27.538   3.578  0.00  0.00    +0.145 HD
ENDBRANCH  11  21
BRANCH   8  24
ATOM     24  N   UNL     1     -39.421  26.346   3.265  0.00  0.00    -0.355 N 
ATOM     25  H   UNL     1     -40.356  26.652   3.265  0.00  0.00    +0.142 HD
ATOM     26  H   UNL     1     -38.698  26.968   3.508  0.00  0.00    +0.142 HD
ENDBRANCH   8  24
TORSDOF 3
ENDMDL
MODEL 3
REMARK VINA RESULT:      -6.0      3.649      6.819
REMARK  Name = 59051797
REMARK  3 active torsions:
REMARK  status: ('A' for Active; 'I' for Inactive)
REMARK    1  A    between atoms: C_7  and  C_16
REMARK    2  A    between atoms: C_8  and  N_24
REMARK    3  A    between atoms: C_11  and  C_21
REMARK                            x       y       z     vdW  Elec       q    Type
REMARK                         _______ _______ _______ _____ _____    ______ ____
ROOT
ATOM      1 CL   UNL     1     -34.484  23.805   5.157  0.00  0.00    -0.077 Cl
ATOM      2  O   UNL     1     -37.458  21.205   2.014  0.00  0.00    -0.287 OA
ATOM      3  O   UNL     1     -35.282  21.501   3.462  0.00  0.00    -0.283 OA
ATOM      4  N   UNL     1     -38.976  25.511   3.408  0.00  0.00    -0.400 NA
ATOM      5  C   UNL     1     -38.324  23.335   2.636  0.00  0.00    +0.145 C 
ATOM      6  C   UNL     1     -38.088  24.484   3.386  0.00  0.00    +0.134 C 
ATOM      7  C   UNL     1     -39.496  23.229   1.887  0.00  0.00    +0.048 C 
ATOM      8  C   UNL     1     -36.859  24.647   4.199  0.00  0.00    +0.082 C 
ATOM      9  C   UNL     1     -37.340  22.247   2.638  0.00  0.00    +0.223 C 
ATOM     10  C   UNL     1     -40.410  24.274   1.904  0.00  0.00    +0.038 C 
ATOM     11  C   UNL     1     -40.106  25.382   2.673  0.00  0.00    +0.184 C 
ATOM     12  C   UNL     1     -35.935  23.669   4.226  0.00  0.00    +0.114 C 
ATOM     13  C   UNL     1     -36.098  22.411   3.461  0.00  0.00    +0.242 C 
ENDROOT
BRANCH   7  16
ATOM     14  O   UNL     1     -40.564  21.173   1.526  0.00  0.00    -0.270 OA
ATOM     15  N   UNL     1     -39.343  22.054  -0.238  0.00  0.00    -0.299 N 
ATOM     16  C   UNL     1     -39.842  22.073   1.068  0.00  0.00    +0.243 C 
ATOM     17  C   UNL     1     -39.616  20.991  -1.179  0.00  0.00    +0.111 C 
ATOM     18  H   UNL     1     -38.776  22.803  -0.532  0.00  0.00    +0.150 HD
ENDBRANCH   7  16
BRANCH  11  21
ATOM     19  O   UNL     1     -41.250  27.213   1.732  0.00  0.00    -0.268 OA
ATOM     20  N   UNL     1     -41.660  26.765   3.943  0.00  0.00    -0.323 N 
ATOM     21  C   UNL     1     -41.023  26.508   2.731  0.00  0.00    +0.272 C 
ATOM     22  H   UNL     1     -42.287  27.520   4.019  0.00  0.00    +0.145 HD
ATOM     23  H   UNL     1     -41.481  26.192   4.723  0.00  0.00    +0.145 HD
ENDBRANCH  11  21
BRANCH   8  24
ATOM     24  N   UNL     1     -36.749  25.827   4.889  0.00  0.00    -0.355 N 
ATOM     25  H   UNL     1     -37.104  26.659   4.502  0.00  0.00    +0.142 HD
ATOM     26  H   UNL     1     -36.314  25.840   5.773  0.00  0.00    +0.142 HD
ENDBRANCH   8  24
TORSDOF 3
ENDMDL
MODEL 4
REMARK VINA RESULT:      -6.0      4.015      5.271
REMARK  Name = 59051797
REMARK  3 active torsions:
REMARK  status: ('A' for Active; 'I' for Inactive)
REMARK    1  A    between atoms: C_7  and  C_16
REMARK    2  A    between atoms: C_8  and  N_24
REMARK    3  A    between atoms: C_11  and  C_21
REMARK                            x       y       z     vdW  Elec       q    Type
REMARK                         _______ _______ _______ _____ _____    ______ ____
ROOT
ATOM      1 CL   UNL     1     -41.196  24.839   1.447  0.00  0.00    -0.077 Cl
ATOM      2  O   UNL     1     -38.158  21.207  -0.305  0.00  0.00    -0.287 OA
ATOM      3  O   UNL     1     -40.252  22.789  -0.484  0.00  0.00    -0.283 OA
ATOM      4  N   UNL     1     -37.056  23.137   3.920  0.00  0.00    -0.400 NA
ATOM      5  C   UNL     1     -37.503  22.089   1.808  0.00  0.00    +0.145 C 
ATOM      6  C   UNL     1     -37.819  23.009   2.804  0.00  0.00    +0.134 C 
ATOM      7  C   UNL     1     -36.379  21.276   1.953  0.00  0.00    +0.048 C 
ATOM      8  C   UNL     1     -39.002  23.898   2.700  0.00  0.00    +0.082 C 
ATOM      9  C   UNL     1     -38.353  21.982   0.617  0.00  0.00    +0.223 C 
ATOM     10  C   UNL     1     -35.593  21.400   3.090  0.00  0.00    +0.038 C 
ATOM     11  C   UNL     1     -35.970  22.337   4.035  0.00  0.00    +0.184 C 
ATOM     12  C   UNL     1     -39.803  23.827   1.622  0.00  0.00    +0.114 C 
ATOM     13  C   UNL     1     -39.548  22.880   0.511  0.00  0.00    +0.242 C 
ENDROOT
BRANCH   7  16
ATOM     14  O   UNL     1     -34.981  20.499   0.238  0.00  0.00    -0.270 OA
ATOM     15  N   UNL     1     -36.688  19.090   0.930  0.00  0.00    -0.299 N 
ATOM     16  C   UNL     1     -35.957  20.281   0.973  0.00  0.00    +0.243 C 
ATOM     17  C   UNL     1     -36.379  17.999   0.033  0.00  0.00    +0.111 C 
ATOM     18  H   UNL     1     -37.450  18.988   1.544  0.00  0.00    +0.150 HD
ENDBRANCH   7  16
BRANCH  11  21
ATOM     19  O   UNL     1     -34.819  23.639   5.625  0.00  0.00    -0.268 OA
ATOM     20  N   UNL     1     -34.873  21.375   5.987  0.00  0.00    -0.323 N 
ATOM     21  C   UNL     1     -35.187  22.512   5.246  0.00  0.00    +0.272 C 
ATOM     22  H   UNL     1     -34.344  21.456   6.813  0.00  0.00    +0.145 HD
ATOM     23  H   UNL     1     -35.182  20.490   5.684  0.00  0.00    +0.145 HD
ENDBRANCH  11  21
BRANCH   8  24
ATOM     24  N   UNL     1     -39.201  24.757   3.750  0.00  0.00    -0.355 N 
ATOM     25  H   UNL     1     -40.095  25.133   3.916  0.00  0.00    +0.142 HD
ATOM     26  H   UNL     1     -38.448  24.997   4.338  0.00  0.00    +0.142 HD
ENDBRANCH   8  24
TORSDOF 3
ENDMDL
MODEL 5
REMARK VINA RESULT:      -6.0      1.869      2.163
REMARK  Name = 59051797
REMARK  3 active torsions:
REMARK  status: ('A' for Active; 'I' for Inactive)
REMARK    1  A    between atoms: C_7  and  C_16
REMARK    2  A    between atoms: C_8  and  N_24
REMARK    3  A    between atoms: C_11  and  C_21
REMARK                            x       y       z     vdW  Elec       q    Type
REMARK                         _______ _______ _______ _____ _____    ______ ____
ROOT
ATOM      1 CL   UNL     1     -41.475  24.916   0.904  0.00  0.00    -0.077 Cl
ATOM      2  O   UNL     1     -37.236  27.497   1.827  0.00  0.00    -0.287 OA
ATOM      3  O   UNL     1     -39.657  27.264   0.827  0.00  0.00    -0.283 OA
ATOM      4  N   UNL     1     -37.466  23.011   3.443  0.00  0.00    -0.400 NA
ATOM      5  C   UNL     1     -37.229  25.275   2.683  0.00  0.00    +0.145 C 
ATOM      6  C   UNL     1     -37.964  24.099   2.801  0.00  0.00    +0.134 C 
ATOM      7  C   UNL     1     -35.949  25.345   3.234  0.00  0.00    +0.048 C 
ATOM      8  C   UNL     1     -39.329  23.971   2.234  0.00  0.00    +0.082 C 
ATOM      9  C   UNL     1     -37.803  26.428   1.981  0.00  0.00    +0.223 C 
ATOM     10  C   UNL     1     -35.432  24.238   3.893  0.00  0.00    +0.038 C 
ATOM     11  C   UNL     1     -36.222  23.107   3.969  0.00  0.00    +0.184 C 
ATOM     12  C   UNL     1     -39.887  25.008   1.585  0.00  0.00    +0.114 C 
ATOM     13  C   UNL     1     -39.182  26.300   1.409  0.00  0.00    +0.242 C 
ENDROOT
BRANCH   7  16
ATOM     14  O   UNL     1     -35.035  27.311   4.127  0.00  0.00    -0.270 OA
ATOM     15  N   UNL     1     -34.347  26.698   1.999  0.00  0.00    -0.299 N 
ATOM     16  C   UNL     1     -35.094  26.525   3.168  0.00  0.00    +0.243 C 
ATOM     17  C   UNL     1     -33.437  27.801   1.792  0.00  0.00    +0.111 C 
ATOM     18  H   UNL     1     -34.445  26.032   1.280  0.00  0.00    +0.150 HD
ENDBRANCH   7  16
BRANCH  11  21
ATOM     19  O   UNL     1     -35.204  20.983   4.019  0.00  0.00    -0.268 OA
ATOM     20  N   UNL     1     -35.863  21.860   6.033  0.00  0.00    -0.323 N 
ATOM     21  C   UNL     1     -35.735  21.917   4.647  0.00  0.00    +0.272 C 
ATOM     22  H   UNL     1     -35.544  21.069   6.525  0.00  0.00    +0.145 HD
ATOM     23  H   UNL     1     -36.273  22.611   6.519  0.00  0.00    +0.145 HD
ENDBRANCH  11  21
BRANCH   8  24
ATOM     24  N   UNL     1     -39.944  22.759   2.419  0.00  0.00    -0.355 N 
ATOM     25  H   UNL     1     -40.925  22.708   2.471  0.00  0.00    +0.142 HD
ATOM     26  H   UNL     1     -39.402  21.940   2.498  0.00  0.00    +0.142 HD
ENDBRANCH   8  24
TORSDOF 3
ENDMDL
MODEL 6
REMARK VINA RESULT:      -6.0      4.922      5.757
REMARK  Name = 59051797
REMARK  3 active torsions:
REMARK  status: ('A' for Active; 'I' for Inactive)
REMARK    1  A    between atoms: C_7  and  C_16
REMARK    2  A    between atoms: C_8  and  N_24
REMARK    3  A    between atoms: C_11  and  C_21
REMARK                            x       y       z     vdW  Elec       q    Type
REMARK                         _______ _______ _______ _____ _____    ______ ____
ROOT
ATOM      1 CL   UNL     1     -41.044  21.092  -0.349  0.00  0.00    -0.077 Cl
ATOM      2  O   UNL     1     -37.999  22.933   3.233  0.00  0.00    -0.287 OA
ATOM      3  O   UNL     1     -40.286  22.830   1.937  0.00  0.00    -0.283 OA
ATOM      4  N   UNL     1     -36.245  19.499   0.418  0.00  0.00    -0.400 NA
ATOM      5  C   UNL     1     -37.011  21.227   1.897  0.00  0.00    +0.145 C 
ATOM      6  C   UNL     1     -37.218  20.350   0.836  0.00  0.00    +0.134 C 
ATOM      7  C   UNL     1     -35.779  21.238   2.551  0.00  0.00    +0.048 C 
ATOM      8  C   UNL     1     -38.508  20.297   0.106  0.00  0.00    +0.082 C 
ATOM      9  C   UNL     1     -38.087  22.131   2.317  0.00  0.00    +0.223 C 
ATOM     10  C   UNL     1     -34.779  20.372   2.131  0.00  0.00    +0.038 C 
ATOM     11  C   UNL     1     -35.060  19.530   1.071  0.00  0.00    +0.184 C 
ATOM     12  C   UNL     1     -39.517  21.111   0.465  0.00  0.00    +0.114 C 
ATOM     13  C   UNL     1     -39.392  22.078   1.581  0.00  0.00    +0.242 C 
ENDROOT
BRANCH   7  16
ATOM     14  O   UNL     1     -34.974  23.241   3.468  0.00  0.00    -0.270 OA
ATOM     15  N   UNL     1     -35.735  21.630   4.953  0.00  0.00    -0.299 N 
ATOM     16  C   UNL     1     -35.455  22.115   3.671  0.00  0.00    +0.243 C 
ATOM     17  C   UNL     1     -35.494  22.387   6.160  0.00  0.00    +0.111 C 
ATOM     18  H   UNL     1     -36.117  20.726   5.036  0.00  0.00    +0.150 HD
ENDBRANCH   7  16
BRANCH  11  21
ATOM     19  O   UNL     1     -32.877  18.959   0.393  0.00  0.00    -0.268 OA
ATOM     20  N   UNL     1     -34.441  17.282   0.363  0.00  0.00    -0.323 N 
ATOM     21  C   UNL     1     -34.053  18.601   0.587  0.00  0.00    +0.272 C 
ATOM     22  H   UNL     1     -33.786  16.624   0.034  0.00  0.00    +0.145 HD
ATOM     23  H   UNL     1     -35.372  17.007   0.533  0.00  0.00    +0.145 HD
ENDBRANCH  11  21
BRANCH   8  24
ATOM     24  N   UNL     1     -38.580  19.390  -0.920  0.00  0.00    -0.355 N 
ATOM     25  H   UNL     1     -38.801  18.450  -0.731  0.00  0.00    +0.142 HD
ATOM     26  H   UNL     1     -38.411  19.681  -1.845  0.00  0.00    +0.142 HD
ENDBRANCH   8  24
TORSDOF 3
ENDMDL
MODEL 7
REMARK VINA RESULT:      -5.9      2.509      5.105
REMARK  Name = 59051797
REMARK  3 active torsions:
REMARK  status: ('A' for Active; 'I' for Inactive)
REMARK    1  A    between atoms: C_7  and  C_16
REMARK    2  A    between atoms: C_8  and  N_24
REMARK    3  A    between atoms: C_11  and  C_21
REMARK                            x       y       z     vdW  Elec       q    Type
REMARK                         _______ _______ _______ _____ _____    ______ ____
ROOT
ATOM      1 CL   UNL     1     -33.024  29.481   2.893  0.00  0.00    -0.077 Cl
ATOM      2  O   UNL     1     -33.591  24.722   4.477  0.00  0.00    -0.287 OA
ATOM      3  O   UNL     1     -32.185  26.918   4.136  0.00  0.00    -0.283 OA
ATOM      4  N   UNL     1     -37.360  26.811   2.424  0.00  0.00    -0.400 NA
ATOM      5  C   UNL     1     -35.539  25.652   3.472  0.00  0.00    +0.145 C 
ATOM      6  C   UNL     1     -36.076  26.785   2.867  0.00  0.00    +0.134 C 
ATOM      7  C   UNL     1     -36.331  24.515   3.631  0.00  0.00    +0.048 C 
ATOM      8  C   UNL     1     -35.279  28.021   2.675  0.00  0.00    +0.082 C 
ATOM      9  C   UNL     1     -34.149  25.664   3.938  0.00  0.00    +0.223 C 
ATOM     10  C   UNL     1     -37.644  24.533   3.181  0.00  0.00    +0.038 C 
ATOM     11  C   UNL     1     -38.106  25.694   2.590  0.00  0.00    +0.184 C 
ATOM     12  C   UNL     1     -34.001  28.067   3.090  0.00  0.00    +0.114 C 
ATOM     13  C   UNL     1     -33.342  26.913   3.745  0.00  0.00    +0.242 C 
ENDROOT
BRANCH   7  16
ATOM     14  O   UNL     1     -35.447  22.345   3.547  0.00  0.00    -0.270 OA
ATOM     15  N   UNL     1     -35.910  23.216   5.646  0.00  0.00    -0.299 N 
ATOM     16  C   UNL     1     -35.869  23.277   4.249  0.00  0.00    +0.243 C 
ATOM     17  C   UNL     1     -35.466  22.070   6.405  0.00  0.00    +0.111 C 
ATOM     18  H   UNL     1     -36.258  23.995   6.136  0.00  0.00    +0.150 HD
ENDBRANCH   7  16
BRANCH  11  21
ATOM     19  O   UNL     1     -39.933  26.827   1.626  0.00  0.00    -0.268 OA
ATOM     20  N   UNL     1     -40.252  24.620   2.160  0.00  0.00    -0.323 N 
ATOM     21  C   UNL     1     -39.472  25.773   2.100  0.00  0.00    +0.272 C 
ATOM     22  H   UNL     1     -41.181  24.637   1.838  0.00  0.00    +0.145 HD
ATOM     23  H   UNL     1     -39.871  23.789   2.526  0.00  0.00    +0.145 HD
ENDBRANCH  11  21
BRANCH   8  24
ATOM     24  N   UNL     1     -35.928  29.064   2.064  0.00  0.00    -0.355 N 
ATOM     25  H   UNL     1     -36.577  29.604   2.569  0.00  0.00    +0.142 HD
ATOM     26  H   UNL     1     -35.743  29.271   1.119  0.00  0.00    +0.142 HD
ENDBRANCH   8  24
TORSDOF 3
ENDMDL
MODEL 8
REMARK VINA RESULT:      -5.9      3.949      4.860
REMARK  Name = 59051797
REMARK  3 active torsions:
REMARK  status: ('A' for Active; 'I' for Inactive)
REMARK    1  A    between atoms: C_7  and  C_16
REMARK    2  A    between atoms: C_8  and  N_24
REMARK    3  A    between atoms: C_11  and  C_21
REMARK                            x       y       z     vdW  Elec       q    Type
REMARK                         _______ _______ _______ _____ _____    ______ ____
ROOT
ATOM      1 CL   UNL     1     -41.824  24.754   1.194  0.00  0.00    -0.077 Cl
ATOM      2  O   UNL     1     -37.706  24.449   4.097  0.00  0.00    -0.287 OA
ATOM      3  O   UNL     1     -39.981  25.557   3.379  0.00  0.00    -0.283 OA
ATOM      4  N   UNL     1     -38.203  21.185   0.648  0.00  0.00    -0.400 NA
ATOM      5  C   UNL     1     -37.839  22.767   2.416  0.00  0.00    +0.145 C 
ATOM      6  C   UNL     1     -38.600  22.272   1.360  0.00  0.00    +0.134 C 
ATOM      7  C   UNL     1     -36.641  22.139   2.756  0.00  0.00    +0.048 C 
ATOM      8  C   UNL     1     -39.881  22.901   0.958  0.00  0.00    +0.082 C 
ATOM      9  C   UNL     1     -38.302  23.943   3.160  0.00  0.00    +0.223 C 
ATOM     10  C   UNL     1     -36.228  21.028   2.034  0.00  0.00    +0.038 C 
ATOM     11  C   UNL     1     -37.037  20.594   0.999  0.00  0.00    +0.184 C 
ATOM     12  C   UNL     1     -40.337  23.980   1.619  0.00  0.00    +0.114 C 
ATOM     13  C   UNL     1     -39.598  24.579   2.755  0.00  0.00    +0.242 C 
ENDROOT
BRANCH   7  16
ATOM     14  O   UNL     1     -34.850  23.379   3.622  0.00  0.00    -0.270 OA
ATOM     15  N   UNL     1     -36.039  22.059   5.112  0.00  0.00    -0.299 N 
ATOM     16  C   UNL     1     -35.768  22.574   3.841  0.00  0.00    +0.243 C 
ATOM     17  C   UNL     1     -35.280  22.412   6.291  0.00  0.00    +0.111 C 
ATOM     18  H   UNL     1     -36.784  21.424   5.209  0.00  0.00    +0.150 HD
ENDBRANCH   7  16
BRANCH  11  21
ATOM     19  O   UNL     1     -35.944  19.547  -0.806  0.00  0.00    -0.268 OA
ATOM     20  N   UNL     1     -37.102  18.186   0.631  0.00  0.00    -0.323 N 
ATOM     21  C   UNL     1     -36.657  19.436   0.208  0.00  0.00    +0.272 C 
ATOM     22  H   UNL     1     -36.865  17.380   0.120  0.00  0.00    +0.145 HD
ATOM     23  H   UNL     1     -37.654  18.110   1.443  0.00  0.00    +0.145 HD
ENDBRANCH  11  21
BRANCH   8  24
ATOM     24  N   UNL     1     -40.531  22.315  -0.099  0.00  0.00    -0.355 N 
ATOM     25  H   UNL     1     -40.352  21.375  -0.327  0.00  0.00    +0.142 HD
ATOM     26  H   UNL     1     -41.177  22.837  -0.628  0.00  0.00    +0.142 HD
ENDBRANCH   8  24
TORSDOF 3
ENDMDL
MODEL 9
REMARK VINA RESULT:      -5.8      2.860      3.257
REMARK  Name = 59051797
REMARK  3 active torsions:
REMARK  status: ('A' for Active; 'I' for Inactive)
REMARK    1  A    between atoms: C_7  and  C_16
REMARK    2  A    between atoms: C_8  and  N_24
REMARK    3  A    between atoms: C_11  and  C_21
REMARK                            x       y       z     vdW  Elec       q    Type
REMARK                         _______ _______ _______ _____ _____    ______ ____
ROOT
ATOM      1 CL   UNL     1     -41.785  24.712   1.505  0.00  0.00    -0.077 Cl
ATOM      2  O   UNL     1     -37.386  26.270   3.431  0.00  0.00    -0.287 OA
ATOM      3  O   UNL     1     -39.890  26.649   2.722  0.00  0.00    -0.283 OA
ATOM      4  N   UNL     1     -37.653  21.734   1.968  0.00  0.00    -0.400 NA
ATOM      5  C   UNL     1     -37.394  23.991   2.739  0.00  0.00    +0.145 C 
ATOM      6  C   UNL     1     -38.162  22.976   2.176  0.00  0.00    +0.134 C 
ATOM      7  C   UNL     1     -36.071  23.735   3.099  0.00  0.00    +0.048 C 
ATOM      8  C   UNL     1     -39.573  23.194   1.776  0.00  0.00    +0.082 C 
ATOM      9  C   UNL     1     -37.979  25.319   2.947  0.00  0.00    +0.223 C 
ATOM     10  C   UNL     1     -35.543  22.468   2.890  0.00  0.00    +0.038 C 
ATOM     11  C   UNL     1     -36.367  21.512   2.327  0.00  0.00    +0.184 C 
ATOM     12  C   UNL     1     -40.143  24.400   1.953  0.00  0.00    +0.114 C 
ATOM     13  C   UNL     1     -39.406  25.541   2.543  0.00  0.00    +0.242 C 
ENDROOT
BRANCH   7  16
ATOM     14  O   UNL     1     -34.388  25.363   2.983  0.00  0.00    -0.270 OA
ATOM     15  N   UNL     1     -35.284  24.918   5.075  0.00  0.00    -0.299 N 
ATOM     16  C   UNL     1     -35.179  24.724   3.694  0.00  0.00    +0.243 C 
ATOM     17  C   UNL     1     -34.488  25.878   5.806  0.00  0.00    +0.111 C 
ATOM     18  H   UNL     1     -35.935  24.375   5.574  0.00  0.00    +0.150 HD
ENDBRANCH   7  16
BRANCH  11  21
ATOM     19  O   UNL     1     -34.717  19.833   2.407  0.00  0.00    -0.268 OA
ATOM     20  N   UNL     1     -36.739  19.252   1.494  0.00  0.00    -0.323 N 
ATOM     21  C   UNL     1     -35.871  20.168   2.085  0.00  0.00    +0.272 C 
ATOM     22  H   UNL     1     -36.437  18.333   1.314  0.00  0.00    +0.145 HD
ATOM     23  H   UNL     1     -37.654  19.526   1.256  0.00  0.00    +0.145 HD
ENDBRANCH  11  21
BRANCH   8  24
ATOM     24  N   UNL     1     -40.217  22.112   1.232  0.00  0.00    -0.355 N 
ATOM     25  H   UNL     1     -40.018  21.832   0.310  0.00  0.00    +0.142 HD
ATOM     26  H   UNL     1     -40.879  21.615   1.767  0.00  0.00    +0.142 HD
ENDBRANCH   8  24
TORSDOF 3
ENDMDL
