MODEL 1
REMARK VINA RESULT:      -6.4      0.000      0.000
REMARK  Name = 51221
REMARK  11 active torsions:
REMARK  status: ('A' for Active; 'I' for Inactive)
REMARK    1  A    between atoms: C_3  and  C_25
REMARK    2  A    between atoms: C_5  and  O_17
REMARK    3  A    between atoms: C_7  and  O_19
REMARK    4  A    between atoms: C_13  and  O_21
REMARK    5  A    between atoms: C_15  and  O_23
REMARK    6  A    between atoms: C_25  and  C_26
REMARK    7  A    between atoms: C_25  and  C_32
REMARK    8  A    between atoms: C_26  and  C_27
REMARK    9  A    between atoms: C_27  and  O_28
REMARK   10  A    between atoms: O_28  and  C_30
REMARK   11  A    between atoms: C_32  and  O_33
REMARK                            x       y       z     vdW  Elec       q    Type
REMARK                         _______ _______ _______ _____ _____    ______ ____
ROOT
ATOM      1  O   UNL     1     -34.043  19.197   2.273  0.00  0.00    -0.286 OA
ATOM      2  O   UNL     1     -32.639  22.902  -1.313  0.00  0.00    -0.287 OA
ATOM      3  C   UNL     1     -36.436  22.620   1.927  0.00  0.00    +0.047 C 
ATOM      4  C   UNL     1     -34.529  21.273   1.286  0.00  0.00    +0.076 C 
ATOM      5  C   UNL     1     -35.668  21.464   2.077  0.00  0.00    +0.136 C 
ATOM      6  C   UNL     1     -34.161  22.241   0.349  0.00  0.00    +0.048 C 
ATOM      7  C   UNL     1     -36.069  23.585   0.992  0.00  0.00    +0.133 C 
ATOM      8  C   UNL     1     -34.934  23.399   0.202  0.00  0.00    +0.040 C 
ATOM      9  C   UNL     1     -33.724  20.046   1.451  0.00  0.00    +0.202 C 
ATOM     10  C   UNL     1     -32.524  19.857   0.611  0.00  0.00    +0.076 C 
ATOM     11  C   UNL     1     -32.157  20.824  -0.327  0.00  0.00    +0.048 C 
ATOM     12  C   UNL     1     -32.962  22.052  -0.492  0.00  0.00    +0.196 C 
ATOM     13  C   UNL     1     -31.753  18.698   0.756  0.00  0.00    +0.140 C 
ATOM     14  C   UNL     1     -31.018  20.633  -1.117  0.00  0.00    +0.040 C 
ATOM     15  C   UNL     1     -30.251  19.477  -0.969  0.00  0.00    +0.137 C 
ATOM     16  C   UNL     1     -30.618  18.511  -0.034  0.00  0.00    +0.073 C 
ENDROOT
BRANCH   5  17
ATOM     17  O   UNL     1     -36.071  20.548   3.006  0.00  0.00    -0.506 OA
ATOM     18  H   UNL     1     -36.025  19.633   2.812  0.00  0.00    +0.292 HD
ENDBRANCH   5  17
BRANCH   7  19
ATOM     19  O   UNL     1     -36.806  24.720   0.835  0.00  0.00    -0.506 OA
ATOM     20  H   UNL     1     -36.521  25.522   1.228  0.00  0.00    +0.292 HD
ENDBRANCH   7  19
BRANCH  13  21
ATOM     21  O   UNL     1     -32.052  17.713   1.651  0.00  0.00    -0.505 OA
ATOM     22  H   UNL     1     -32.114  16.823   1.364  0.00  0.00    +0.292 HD
ENDBRANCH  13  21
BRANCH  15  23
ATOM     23  O   UNL     1     -29.143  19.291  -1.738  0.00  0.00    -0.505 OA
ATOM     24  H   UNL     1     -29.229  18.964  -2.612  0.00  0.00    +0.292 HD
ENDBRANCH  15  23
BRANCH   3  25
ATOM     25  C   UNL     1     -37.654  22.829   2.769  0.00  0.00    +0.061 C 
BRANCH  25  26
ATOM     26  C   UNL     1     -37.820  24.290   3.265  0.00  0.00    +0.054 C 
BRANCH  26  27
ATOM     27  C   UNL     1     -36.776  24.686   4.305  0.00  0.00    +0.209 C 
BRANCH  27  28
ATOM     28  O   UNL     1     -36.538  23.576   5.159  0.00  0.00    -0.448 OA
BRANCH  28  30
ATOM     29  O   UNL     1     -34.258  23.911   5.003  0.00  0.00    -0.250 OA
ATOM     30  C   UNL     1     -35.225  23.265   5.382  0.00  0.00    +0.318 C 
ATOM     31  C   UNL     1     -35.128  21.995   6.172  0.00  0.00    +0.121 C 
ENDBRANCH  28  30
ENDBRANCH  27  28
ENDBRANCH  26  27
ENDBRANCH  25  26
BRANCH  25  32
ATOM     32  C   UNL     1     -38.945  22.393   2.035  0.00  0.00    +0.142 C 
BRANCH  32  33
ATOM     33  O   UNL     1     -39.149  20.998   2.230  0.00  0.00    -0.382 OA
ATOM     34  H   UNL     1     -38.764  20.730   3.079  0.00  0.00    +0.210 HD
ENDBRANCH  32  33
ENDBRANCH  25  32
ENDBRANCH   3  25
TORSDOF 11
ENDMDL
MODEL 2
REMARK VINA RESULT:      -6.3      2.544      6.623
REMARK  Name = 51221
REMARK  11 active torsions:
REMARK  status: ('A' for Active; 'I' for Inactive)
REMARK    1  A    between atoms: C_3  and  C_25
REMARK    2  A    between atoms: C_5  and  O_17
REMARK    3  A    between atoms: C_7  and  O_19
REMARK    4  A    between atoms: C_13  and  O_21
REMARK    5  A    between atoms: C_15  and  O_23
REMARK    6  A    between atoms: C_25  and  C_26
REMARK    7  A    between atoms: C_25  and  C_32
REMARK    8  A    between atoms: C_26  and  C_27
REMARK    9  A    between atoms: C_27  and  O_28
REMARK   10  A    between atoms: O_28  and  C_30
REMARK   11  A    between atoms: C_32  and  O_33
REMARK                            x       y       z     vdW  Elec       q    Type
REMARK                         _______ _______ _______ _____ _____    ______ ____
ROOT
ATOM      1  O   UNL     1     -34.177  25.240   1.028  0.00  0.00    -0.286 OA
ATOM      2  O   UNL     1     -35.108  23.164   5.864  0.00  0.00    -0.287 OA
ATOM      3  C   UNL     1     -36.044  21.495   1.245  0.00  0.00    +0.047 C 
ATOM      4  C   UNL     1     -35.047  23.447   2.273  0.00  0.00    +0.076 C 
ATOM      5  C   UNL     1     -35.425  22.740   1.125  0.00  0.00    +0.136 C 
ATOM      6  C   UNL     1     -35.289  22.905   3.537  0.00  0.00    +0.048 C 
ATOM      7  C   UNL     1     -36.286  20.954   2.507  0.00  0.00    +0.133 C 
ATOM      8  C   UNL     1     -35.911  21.656   3.652  0.00  0.00    +0.040 C 
ATOM      9  C   UNL     1     -34.393  24.764   2.135  0.00  0.00    +0.202 C 
ATOM     10  C   UNL     1     -33.999  25.500   3.354  0.00  0.00    +0.076 C 
ATOM     11  C   UNL     1     -34.243  24.958   4.618  0.00  0.00    +0.048 C 
ATOM     12  C   UNL     1     -34.896  23.641   4.755  0.00  0.00    +0.196 C 
ATOM     13  C   UNL     1     -33.380  26.750   3.238  0.00  0.00    +0.140 C 
ATOM     14  C   UNL     1     -33.865  25.666   5.765  0.00  0.00    +0.040 C 
ATOM     15  C   UNL     1     -33.247  26.911   5.645  0.00  0.00    +0.137 C 
ATOM     16  C   UNL     1     -33.005  27.452   4.384  0.00  0.00    +0.073 C 
ENDROOT
BRANCH   5  17
ATOM     17  O   UNL     1     -35.211  23.226  -0.133  0.00  0.00    -0.506 OA
ATOM     18  H   UNL     1     -34.920  24.109  -0.251  0.00  0.00    +0.292 HD
ENDBRANCH   5  17
BRANCH   7  19
ATOM     19  O   UNL     1     -36.888  19.739   2.641  0.00  0.00    -0.506 OA
ATOM     20  H   UNL     1     -37.659  19.654   3.167  0.00  0.00    +0.292 HD
ENDBRANCH   7  19
BRANCH  13  21
ATOM     21  O   UNL     1     -33.112  27.338   2.037  0.00  0.00    -0.505 OA
ATOM     22  H   UNL     1     -33.252  28.258   1.925  0.00  0.00    +0.292 HD
ENDBRANCH  13  21
BRANCH  15  23
ATOM     23  O   UNL     1     -32.880  27.599   6.761  0.00  0.00    -0.505 OA
ATOM     24  H   UNL     1     -32.414  27.163   7.448  0.00  0.00    +0.292 HD
ENDBRANCH  15  23
BRANCH   3  25
ATOM     25  C   UNL     1     -36.450  20.735   0.023  0.00  0.00    +0.061 C 
BRANCH  25  26
ATOM     26  C   UNL     1     -35.898  19.285  -0.016  0.00  0.00    +0.054 C 
BRANCH  26  27
ATOM     27  C   UNL     1     -34.377  19.231  -0.119  0.00  0.00    +0.209 C 
BRANCH  27  28
ATOM     28  O   UNL     1     -33.854  18.736   1.107  0.00  0.00    -0.448 OA
BRANCH  28  30
ATOM     29  O   UNL     1     -31.880  17.714   1.737  0.00  0.00    -0.250 OA
ATOM     30  C   UNL     1     -32.494  18.604   1.165  0.00  0.00    +0.318 C 
ATOM     31  C   UNL     1     -31.841  19.725   0.415  0.00  0.00    +0.121 C 
ENDBRANCH  28  30
ENDBRANCH  27  28
ENDBRANCH  26  27
ENDBRANCH  25  26
BRANCH  25  32
ATOM     32  C   UNL     1     -37.987  20.697  -0.149  0.00  0.00    +0.142 C 
BRANCH  32  33
ATOM     33  O   UNL     1     -38.456  19.376   0.093  0.00  0.00    -0.382 OA
ATOM     34  H   UNL     1     -39.382  19.408   0.380  0.00  0.00    +0.210 HD
ENDBRANCH  32  33
ENDBRANCH  25  32
ENDBRANCH   3  25
TORSDOF 11
ENDMDL
MODEL 3
REMARK VINA RESULT:      -6.3      4.689      7.285
REMARK  Name = 51221
REMARK  11 active torsions:
REMARK  status: ('A' for Active; 'I' for Inactive)
REMARK    1  A    between atoms: C_3  and  C_25
REMARK    2  A    between atoms: C_5  and  O_17
REMARK    3  A    between atoms: C_7  and  O_19
REMARK    4  A    between atoms: C_13  and  O_21
REMARK    5  A    between atoms: C_15  and  O_23
REMARK    6  A    between atoms: C_25  and  C_26
REMARK    7  A    between atoms: C_25  and  C_32
REMARK    8  A    between atoms: C_26  and  C_27
REMARK    9  A    between atoms: C_27  and  O_28
REMARK   10  A    between atoms: O_28  and  C_30
REMARK   11  A    between atoms: C_32  and  O_33
REMARK                            x       y       z     vdW  Elec       q    Type
REMARK                         _______ _______ _______ _____ _____    ______ ____
ROOT
ATOM      1  O   UNL     1     -33.881  25.347   1.243  0.00  0.00    -0.286 OA
ATOM      2  O   UNL     1     -35.091  23.213   5.991  0.00  0.00    -0.287 OA
ATOM      3  C   UNL     1     -32.836  27.482   4.694  0.00  0.00    +0.047 C 
ATOM      4  C   UNL     1     -33.812  25.566   3.582  0.00  0.00    +0.076 C 
ATOM      5  C   UNL     1     -33.165  26.806   3.518  0.00  0.00    +0.136 C 
ATOM      6  C   UNL     1     -34.130  25.009   4.822  0.00  0.00    +0.048 C 
ATOM      7  C   UNL     1     -33.152  26.925   5.932  0.00  0.00    +0.133 C 
ATOM      8  C   UNL     1     -33.798  25.690   5.999  0.00  0.00    +0.040 C 
ATOM      9  C   UNL     1     -34.156  24.859   2.332  0.00  0.00    +0.202 C 
ATOM     10  C   UNL     1     -34.839  23.551   2.412  0.00  0.00    +0.076 C 
ATOM     11  C   UNL     1     -35.155  22.993   3.653  0.00  0.00    +0.048 C 
ATOM     12  C   UNL     1     -34.812  23.702   4.903  0.00  0.00    +0.196 C 
ATOM     13  C   UNL     1     -35.169  22.869   1.236  0.00  0.00    +0.140 C 
ATOM     14  C   UNL     1     -35.802  21.753   3.716  0.00  0.00    +0.040 C 
ATOM     15  C   UNL     1     -36.130  21.077   2.540  0.00  0.00    +0.137 C 
ATOM     16  C   UNL     1     -35.814  21.634   1.303  0.00  0.00    +0.073 C 
ENDROOT
BRANCH   5  17
ATOM     17  O   UNL     1     -32.833  27.394   2.331  0.00  0.00    -0.506 OA
ATOM     18  H   UNL     1     -33.027  26.961   1.524  0.00  0.00    +0.292 HD
ENDBRANCH   5  17
BRANCH   7  19
ATOM     19  O   UNL     1     -32.840  27.573   7.089  0.00  0.00    -0.506 OA
ATOM     20  H   UNL     1     -32.013  27.420   7.503  0.00  0.00    +0.292 HD
ENDBRANCH   7  19
BRANCH  13  21
ATOM     21  O   UNL     1     -34.891  23.354  -0.008  0.00  0.00    -0.505 OA
ATOM     22  H   UNL     1     -35.448  24.002  -0.393  0.00  0.00    +0.292 HD
ENDBRANCH  13  21
BRANCH  15  23
ATOM     23  O   UNL     1     -36.759  19.871   2.602  0.00  0.00    -0.505 OA
ATOM     24  H   UNL     1     -36.626  19.310   3.340  0.00  0.00    +0.292 HD
ENDBRANCH  15  23
BRANCH   3  25
ATOM     25  C   UNL     1     -32.145  28.807   4.632  0.00  0.00    +0.061 C 
BRANCH  25  26
ATOM     26  C   UNL     1     -30.632  28.700   4.307  0.00  0.00    +0.054 C 
BRANCH  26  27
ATOM     27  C   UNL     1     -29.744  28.915   5.530  0.00  0.00    +0.209 C 
BRANCH  27  28
ATOM     28  O   UNL     1     -29.746  27.726   6.309  0.00  0.00    -0.448 OA
BRANCH  28  30
ATOM     29  O   UNL     1     -28.040  26.292   6.917  0.00  0.00    -0.250 OA
ATOM     30  C   UNL     1     -28.557  27.400   6.902  0.00  0.00    +0.318 C 
ATOM     31  C   UNL     1     -27.960  28.614   7.546  0.00  0.00    +0.121 C 
ENDBRANCH  28  30
ENDBRANCH  27  28
ENDBRANCH  26  27
ENDBRANCH  25  26
BRANCH  25  32
ATOM     32  C   UNL     1     -32.816  29.762   3.616  0.00  0.00    +0.142 C 
BRANCH  32  33
ATOM     33  O   UNL     1     -33.640  30.688   4.314  0.00  0.00    -0.382 OA
ATOM     34  H   UNL     1     -34.570  30.532   4.085  0.00  0.00    +0.210 HD
ENDBRANCH  32  33
ENDBRANCH  25  32
ENDBRANCH   3  25
TORSDOF 11
ENDMDL
MODEL 4
REMARK VINA RESULT:      -6.3      3.773      7.183
REMARK  Name = 51221
REMARK  11 active torsions:
REMARK  status: ('A' for Active; 'I' for Inactive)
REMARK    1  A    between atoms: C_3  and  C_25
REMARK    2  A    between atoms: C_5  and  O_17
REMARK    3  A    between atoms: C_7  and  O_19
REMARK    4  A    between atoms: C_13  and  O_21
REMARK    5  A    between atoms: C_15  and  O_23
REMARK    6  A    between atoms: C_25  and  C_26
REMARK    7  A    between atoms: C_25  and  C_32
REMARK    8  A    between atoms: C_26  and  C_27
REMARK    9  A    between atoms: C_27  and  O_28
REMARK   10  A    between atoms: O_28  and  C_30
REMARK   11  A    between atoms: C_32  and  O_33
REMARK                            x       y       z     vdW  Elec       q    Type
REMARK                         _______ _______ _______ _____ _____    ______ ____
ROOT
ATOM      1  O   UNL     1     -32.907  26.243   1.150  0.00  0.00    -0.286 OA
ATOM      2  O   UNL     1     -33.935  26.416   6.392  0.00  0.00    -0.287 OA
ATOM      3  C   UNL     1     -35.293  23.217   2.798  0.00  0.00    +0.047 C 
ATOM      4  C   UNL     1     -33.979  25.242   2.986  0.00  0.00    +0.076 C 
ATOM      5  C   UNL     1     -34.503  24.204   2.206  0.00  0.00    +0.136 C 
ATOM      6  C   UNL     1     -34.247  25.288   4.356  0.00  0.00    +0.048 C 
ATOM      7  C   UNL     1     -35.560  23.263   4.165  0.00  0.00    +0.133 C 
ATOM      8  C   UNL     1     -35.040  24.296   4.945  0.00  0.00    +0.040 C 
ATOM      9  C   UNL     1     -33.145  26.282   2.350  0.00  0.00    +0.202 C 
ATOM     10  C   UNL     1     -32.598  27.372   3.184  0.00  0.00    +0.076 C 
ATOM     11  C   UNL     1     -32.867  27.418   4.554  0.00  0.00    +0.048 C 
ATOM     12  C   UNL     1     -33.701  26.377   5.190  0.00  0.00    +0.196 C 
ATOM     13  C   UNL     1     -31.807  28.364   2.594  0.00  0.00    +0.140 C 
ATOM     14  C   UNL     1     -32.343  28.456   5.333  0.00  0.00    +0.040 C 
ATOM     15  C   UNL     1     -31.554  29.443   4.742  0.00  0.00    +0.137 C 
ATOM     16  C   UNL     1     -31.287  29.397   3.375  0.00  0.00    +0.073 C 
ENDROOT
BRANCH   5  17
ATOM     17  O   UNL     1     -34.272  24.114   0.863  0.00  0.00    -0.506 OA
ATOM     18  H   UNL     1     -34.946  23.804   0.292  0.00  0.00    +0.292 HD
ENDBRANCH   5  17
BRANCH   7  19
ATOM     19  O   UNL     1     -36.328  22.307   4.758  0.00  0.00    -0.506 OA
ATOM     20  H   UNL     1     -35.922  21.566   5.165  0.00  0.00    +0.292 HD
ENDBRANCH   7  19
BRANCH  13  21
ATOM     21  O   UNL     1     -31.505  28.381   1.265  0.00  0.00    -0.505 OA
ATOM     22  H   UNL     1     -32.189  28.466   0.630  0.00  0.00    +0.292 HD
ENDBRANCH  13  21
BRANCH  15  23
ATOM     23  O   UNL     1     -31.045  30.453   5.500  0.00  0.00    -0.505 OA
ATOM     24  H   UNL     1     -30.765  30.283   6.378  0.00  0.00    +0.292 HD
ENDBRANCH  15  23
BRANCH   3  25
ATOM     25  C   UNL     1     -35.856  22.106   1.970  0.00  0.00    +0.061 C 
BRANCH  25  26
ATOM     26  C   UNL     1     -35.259  20.716   2.313  0.00  0.00    +0.054 C 
BRANCH  26  27
ATOM     27  C   UNL     1     -34.227  20.243   1.293  0.00  0.00    +0.209 C 
BRANCH  27  28
ATOM     28  O   UNL     1     -33.770  18.952   1.673  0.00  0.00    -0.448 OA
BRANCH  28  30
ATOM     29  O   UNL     1     -31.860  17.652   1.646  0.00  0.00    -0.250 OA
ATOM     30  C   UNL     1     -32.495  18.635   1.290  0.00  0.00    +0.318 C 
ATOM     31  C   UNL     1     -31.969  19.680   0.355  0.00  0.00    +0.121 C 
ENDBRANCH  28  30
ENDBRANCH  27  28
ENDBRANCH  26  27
ENDBRANCH  25  26
BRANCH  25  32
ATOM     32  C   UNL     1     -37.398  22.035   2.070  0.00  0.00    +0.142 C 
BRANCH  32  33
ATOM     33  O   UNL     1     -37.783  20.734   2.499  0.00  0.00    -0.382 OA
ATOM     34  H   UNL     1     -38.565  20.447   2.001  0.00  0.00    +0.210 HD
ENDBRANCH  32  33
ENDBRANCH  25  32
ENDBRANCH   3  25
TORSDOF 11
ENDMDL
MODEL 5
REMARK VINA RESULT:      -6.2      2.232      6.097
REMARK  Name = 51221
REMARK  11 active torsions:
REMARK  status: ('A' for Active; 'I' for Inactive)
REMARK    1  A    between atoms: C_3  and  C_25
REMARK    2  A    between atoms: C_5  and  O_17
REMARK    3  A    between atoms: C_7  and  O_19
REMARK    4  A    between atoms: C_13  and  O_21
REMARK    5  A    between atoms: C_15  and  O_23
REMARK    6  A    between atoms: C_25  and  C_26
REMARK    7  A    between atoms: C_25  and  C_32
REMARK    8  A    between atoms: C_26  and  C_27
REMARK    9  A    between atoms: C_27  and  O_28
REMARK   10  A    between atoms: O_28  and  C_30
REMARK   11  A    between atoms: C_32  and  O_33
REMARK                            x       y       z     vdW  Elec       q    Type
REMARK                         _______ _______ _______ _____ _____    ______ ____
ROOT
ATOM      1  O   UNL     1     -36.080  21.075   3.953  0.00  0.00    -0.286 OA
ATOM      2  O   UNL     1     -33.945  24.744   0.707  0.00  0.00    -0.287 OA
ATOM      3  C   UNL     1     -35.624  20.105  -0.098  0.00  0.00    +0.047 C 
ATOM      4  C   UNL     1     -35.405  21.628   1.772  0.00  0.00    +0.076 C 
ATOM      5  C   UNL     1     -35.795  20.384   1.259  0.00  0.00    +0.136 C 
ATOM      6  C   UNL     1     -34.848  22.587   0.924  0.00  0.00    +0.048 C 
ATOM      7  C   UNL     1     -35.067  21.062  -0.943  0.00  0.00    +0.133 C 
ATOM      8  C   UNL     1     -34.678  22.302  -0.436  0.00  0.00    +0.040 C 
ATOM      9  C   UNL     1     -35.590  21.914   3.208  0.00  0.00    +0.202 C 
ATOM     10  C   UNL     1     -35.175  23.229   3.737  0.00  0.00    +0.076 C 
ATOM     11  C   UNL     1     -34.616  24.189   2.889  0.00  0.00    +0.048 C 
ATOM     12  C   UNL     1     -34.433  23.902   1.451  0.00  0.00    +0.196 C 
ATOM     13  C   UNL     1     -35.342  23.513   5.097  0.00  0.00    +0.140 C 
ATOM     14  C   UNL     1     -34.227  25.432   3.402  0.00  0.00    +0.040 C 
ATOM     15  C   UNL     1     -34.397  25.711   4.758  0.00  0.00    +0.137 C 
ATOM     16  C   UNL     1     -34.953  24.753   5.604  0.00  0.00    +0.073 C 
ENDROOT
BRANCH   5  17
ATOM     17  O   UNL     1     -36.344  19.412   2.045  0.00  0.00    -0.506 OA
ATOM     18  H   UNL     1     -35.995  18.543   2.026  0.00  0.00    +0.292 HD
ENDBRANCH   5  17
BRANCH   7  19
ATOM     19  O   UNL     1     -34.896  20.805  -2.270  0.00  0.00    -0.506 OA
ATOM     20  H   UNL     1     -34.780  19.923  -2.566  0.00  0.00    +0.292 HD
ENDBRANCH   7  19
BRANCH  13  21
ATOM     21  O   UNL     1     -35.880  22.625   5.981  0.00  0.00    -0.505 OA
ATOM     22  H   UNL     1     -36.585  22.889   6.539  0.00  0.00    +0.292 HD
ENDBRANCH  13  21
BRANCH  15  23
ATOM     23  O   UNL     1     -34.018  26.920   5.257  0.00  0.00    -0.505 OA
ATOM     24  H   UNL     1     -33.593  27.543   4.701  0.00  0.00    +0.292 HD
ENDBRANCH  15  23
BRANCH   3  25
ATOM     25  C   UNL     1     -36.038  18.778  -0.651  0.00  0.00    +0.061 C 
BRANCH  25  26
ATOM     26  C   UNL     1     -35.188  17.594  -0.120  0.00  0.00    +0.054 C 
BRANCH  26  27
ATOM     27  C   UNL     1     -33.691  17.789  -0.345  0.00  0.00    +0.209 C 
BRANCH  27  28
ATOM     28  O   UNL     1     -33.010  17.548   0.880  0.00  0.00    -0.448 OA
BRANCH  28  30
ATOM     29  O   UNL     1     -30.788  17.702   1.492  0.00  0.00    -0.250 OA
ATOM     30  C   UNL     1     -31.812  18.189   1.031  0.00  0.00    +0.318 C 
ATOM     31  C   UNL     1     -31.923  19.601   0.544  0.00  0.00    +0.121 C 
ENDBRANCH  28  30
ENDBRANCH  27  28
ENDBRANCH  26  27
ENDBRANCH  25  26
BRANCH  25  32
ATOM     32  C   UNL     1     -37.535  18.485  -0.389  0.00  0.00    +0.142 C 
BRANCH  32  33
ATOM     33  O   UNL     1     -37.653  17.307   0.399  0.00  0.00    -0.382 OA
ATOM     34  H   UNL     1     -38.248  16.680  -0.042  0.00  0.00    +0.210 HD
ENDBRANCH  32  33
ENDBRANCH  25  32
ENDBRANCH   3  25
TORSDOF 11
ENDMDL
MODEL 6
REMARK VINA RESULT:      -6.2      4.890      7.539
REMARK  Name = 51221
REMARK  11 active torsions:
REMARK  status: ('A' for Active; 'I' for Inactive)
REMARK    1  A    between atoms: C_3  and  C_25
REMARK    2  A    between atoms: C_5  and  O_17
REMARK    3  A    between atoms: C_7  and  O_19
REMARK    4  A    between atoms: C_13  and  O_21
REMARK    5  A    between atoms: C_15  and  O_23
REMARK    6  A    between atoms: C_25  and  C_26
REMARK    7  A    between atoms: C_25  and  C_32
REMARK    8  A    between atoms: C_26  and  C_27
REMARK    9  A    between atoms: C_27  and  O_28
REMARK   10  A    between atoms: O_28  and  C_30
REMARK   11  A    between atoms: C_32  and  O_33
REMARK                            x       y       z     vdW  Elec       q    Type
REMARK                         _______ _______ _______ _____ _____    ______ ____
ROOT
ATOM      1  O   UNL     1     -32.940  26.431   5.502  0.00  0.00    -0.286 OA
ATOM      2  O   UNL     1     -33.333  30.669   2.270  0.00  0.00    -0.287 OA
ATOM      3  C   UNL     1     -35.972  26.436   2.610  0.00  0.00    +0.047 C 
ATOM      4  C   UNL     1     -34.079  27.457   3.722  0.00  0.00    +0.076 C 
ATOM      5  C   UNL     1     -34.977  26.391   3.588  0.00  0.00    +0.136 C 
ATOM      6  C   UNL     1     -34.182  28.565   2.879  0.00  0.00    +0.048 C 
ATOM      7  C   UNL     1     -36.074  27.542   1.768  0.00  0.00    +0.133 C 
ATOM      8  C   UNL     1     -35.181  28.606   1.899  0.00  0.00    +0.040 C 
ATOM      9  C   UNL     1     -33.030  27.400   4.760  0.00  0.00    +0.202 C 
ATOM     10  C   UNL     1     -32.089  28.531   4.892  0.00  0.00    +0.076 C 
ATOM     11  C   UNL     1     -32.191  29.639   4.047  0.00  0.00    +0.048 C 
ATOM     12  C   UNL     1     -33.242  29.696   3.010  0.00  0.00    +0.196 C 
ATOM     13  C   UNL     1     -31.089  28.489   5.870  0.00  0.00    +0.140 C 
ATOM     14  C   UNL     1     -31.294  30.705   4.182  0.00  0.00    +0.040 C 
ATOM     15  C   UNL     1     -30.299  30.659   5.159  0.00  0.00    +0.137 C 
ATOM     16  C   UNL     1     -30.197  29.553   6.001  0.00  0.00    +0.073 C 
ENDROOT
BRANCH   5  17
ATOM     17  O   UNL     1     -34.919  25.285   4.387  0.00  0.00    -0.506 OA
ATOM     18  H   UNL     1     -35.659  24.714   4.449  0.00  0.00    +0.292 HD
ENDBRANCH   5  17
BRANCH   7  19
ATOM     19  O   UNL     1     -37.040  27.602   0.810  0.00  0.00    -0.506 OA
ATOM     20  H   UNL     1     -36.827  27.414  -0.084  0.00  0.00    +0.292 HD
ENDBRANCH   7  19
BRANCH  13  21
ATOM     21  O   UNL     1     -30.932  27.441   6.728  0.00  0.00    -0.505 OA
ATOM     22  H   UNL     1     -30.291  27.487   7.410  0.00  0.00    +0.292 HD
ENDBRANCH  13  21
BRANCH  15  23
ATOM     23  O   UNL     1     -29.425  31.696   5.290  0.00  0.00    -0.505 OA
ATOM     24  H   UNL     1     -29.533  32.313   5.987  0.00  0.00    +0.292 HD
ENDBRANCH  15  23
BRANCH   3  25
ATOM     25  C   UNL     1     -36.934  25.300   2.461  0.00  0.00    +0.061 C 
BRANCH  25  26
ATOM     26  C   UNL     1     -36.249  23.908   2.448  0.00  0.00    +0.054 C 
BRANCH  26  27
ATOM     27  C   UNL     1     -37.017  22.860   3.247  0.00  0.00    +0.209 C 
BRANCH  27  28
ATOM     28  O   UNL     1     -36.460  22.783   4.552  0.00  0.00    -0.448 OA
BRANCH  28  30
ATOM     29  O   UNL     1     -35.284  20.882   3.967  0.00  0.00    -0.250 OA
ATOM     30  C   UNL     1     -35.554  21.778   4.755  0.00  0.00    +0.318 C 
ATOM     31  C   UNL     1     -34.920  21.927   6.104  0.00  0.00    +0.121 C 
ENDBRANCH  28  30
ENDBRANCH  27  28
ENDBRANCH  26  27
ENDBRANCH  25  26
BRANCH  25  32
ATOM     32  C   UNL     1     -38.023  25.319   3.560  0.00  0.00    +0.142 C 
BRANCH  32  33
ATOM     33  O   UNL     1     -38.887  26.430   3.348  0.00  0.00    -0.382 OA
ATOM     34  H   UNL     1     -39.291  26.691   4.189  0.00  0.00    +0.210 HD
ENDBRANCH  32  33
ENDBRANCH  25  32
ENDBRANCH   3  25
TORSDOF 11
ENDMDL
MODEL 7
REMARK VINA RESULT:      -6.2      3.704      6.793
REMARK  Name = 51221
REMARK  11 active torsions:
REMARK  status: ('A' for Active; 'I' for Inactive)
REMARK    1  A    between atoms: C_3  and  C_25
REMARK    2  A    between atoms: C_5  and  O_17
REMARK    3  A    between atoms: C_7  and  O_19
REMARK    4  A    between atoms: C_13  and  O_21
REMARK    5  A    between atoms: C_15  and  O_23
REMARK    6  A    between atoms: C_25  and  C_26
REMARK    7  A    between atoms: C_25  and  C_32
REMARK    8  A    between atoms: C_26  and  C_27
REMARK    9  A    between atoms: C_27  and  O_28
REMARK   10  A    between atoms: O_28  and  C_30
REMARK   11  A    between atoms: C_32  and  O_33
REMARK                            x       y       z     vdW  Elec       q    Type
REMARK                         _______ _______ _______ _____ _____    ______ ____
ROOT
ATOM      1  O   UNL     1     -33.420  25.702   1.239  0.00  0.00    -0.286 OA
ATOM      2  O   UNL     1     -33.723  26.578   6.502  0.00  0.00    -0.287 OA
ATOM      3  C   UNL     1     -35.516  22.935   3.585  0.00  0.00    +0.047 C 
ATOM      4  C   UNL     1     -34.217  24.961   3.321  0.00  0.00    +0.076 C 
ATOM      5  C   UNL     1     -34.828  23.831   2.765  0.00  0.00    +0.136 C 
ATOM      6  C   UNL     1     -34.295  25.189   4.696  0.00  0.00    +0.048 C 
ATOM      7  C   UNL     1     -35.595  23.164   4.958  0.00  0.00    +0.133 C 
ATOM      8  C   UNL     1     -34.986  24.289   5.515  0.00  0.00    +0.040 C 
ATOM      9  C   UNL     1     -33.492  25.902   2.444  0.00  0.00    +0.202 C 
ATOM     10  C   UNL     1     -32.851  27.091   3.043  0.00  0.00    +0.076 C 
ATOM     11  C   UNL     1     -32.930  27.320   4.419  0.00  0.00    +0.048 C 
ATOM     12  C   UNL     1     -33.655  26.377   5.295  0.00  0.00    +0.196 C 
ATOM     13  C   UNL     1     -32.162  27.992   2.224  0.00  0.00    +0.140 C 
ATOM     14  C   UNL     1     -32.318  28.450   4.974  0.00  0.00    +0.040 C 
ATOM     15  C   UNL     1     -31.632  29.346   4.154  0.00  0.00    +0.137 C 
ATOM     16  C   UNL     1     -31.553  29.117   2.781  0.00  0.00    +0.073 C 
ENDROOT
BRANCH   5  17
ATOM     17  O   UNL     1     -34.782  23.561   1.427  0.00  0.00    -0.506 OA
ATOM     18  H   UNL     1     -34.160  22.944   1.095  0.00  0.00    +0.292 HD
ENDBRANCH   5  17
BRANCH   7  19
ATOM     19  O   UNL     1     -36.261  22.299   5.772  0.00  0.00    -0.506 OA
ATOM     20  H   UNL     1     -36.991  22.598   6.277  0.00  0.00    +0.292 HD
ENDBRANCH   7  19
BRANCH  13  21
ATOM     21  O   UNL     1     -32.044  27.831   0.875  0.00  0.00    -0.505 OA
ATOM     22  H   UNL     1     -32.573  27.196   0.432  0.00  0.00    +0.292 HD
ENDBRANCH  13  21
BRANCH  15  23
ATOM     23  O   UNL     1     -31.037  30.445   4.694  0.00  0.00    -0.505 OA
ATOM     24  H   UNL     1     -31.302  30.754   5.538  0.00  0.00    +0.292 HD
ENDBRANCH  15  23
BRANCH   3  25
ATOM     25  C   UNL     1     -36.172  21.726   2.997  0.00  0.00    +0.061 C 
BRANCH  25  26
ATOM     26  C   UNL     1     -37.126  22.052   1.819  0.00  0.00    +0.054 C 
BRANCH  26  27
ATOM     27  C   UNL     1     -38.494  22.546   2.281  0.00  0.00    +0.209 C 
BRANCH  27  28
ATOM     28  O   UNL     1     -38.613  23.926   1.960  0.00  0.00    -0.448 OA
BRANCH  28  30
ATOM     29  O   UNL     1     -39.802  24.650   3.803  0.00  0.00    -0.250 OA
ATOM     30  C   UNL     1     -38.878  24.762   3.009  0.00  0.00    +0.318 C 
ATOM     31  C   UNL     1     -37.860  25.860   3.057  0.00  0.00    +0.121 C 
ENDBRANCH  28  30
ENDBRANCH  27  28
ENDBRANCH  26  27
ENDBRANCH  25  26
BRANCH  25  32
ATOM     32  C   UNL     1     -35.134  20.675   2.534  0.00  0.00    +0.142 C 
BRANCH  32  33
ATOM     33  O   UNL     1     -35.815  19.542   2.008  0.00  0.00    -0.382 OA
ATOM     34  H   UNL     1     -35.388  18.731   2.326  0.00  0.00    +0.210 HD
ENDBRANCH  32  33
ENDBRANCH  25  32
ENDBRANCH   3  25
TORSDOF 11
ENDMDL
MODEL 8
REMARK VINA RESULT:      -6.2      4.557      7.776
REMARK  Name = 51221
REMARK  11 active torsions:
REMARK  status: ('A' for Active; 'I' for Inactive)
REMARK    1  A    between atoms: C_3  and  C_25
REMARK    2  A    between atoms: C_5  and  O_17
REMARK    3  A    between atoms: C_7  and  O_19
REMARK    4  A    between atoms: C_13  and  O_21
REMARK    5  A    between atoms: C_15  and  O_23
REMARK    6  A    between atoms: C_25  and  C_26
REMARK    7  A    between atoms: C_25  and  C_32
REMARK    8  A    between atoms: C_26  and  C_27
REMARK    9  A    between atoms: C_27  and  O_28
REMARK   10  A    between atoms: O_28  and  C_30
REMARK   11  A    between atoms: C_32  and  O_33
REMARK                            x       y       z     vdW  Elec       q    Type
REMARK                         _______ _______ _______ _____ _____    ______ ____
ROOT
ATOM      1  O   UNL     1     -33.794  25.923   1.433  0.00  0.00    -0.286 OA
ATOM      2  O   UNL     1     -35.629  23.832   5.996  0.00  0.00    -0.287 OA
ATOM      3  C   UNL     1     -32.481  27.597   5.043  0.00  0.00    +0.047 C 
ATOM      4  C   UNL     1     -33.784  25.994   3.782  0.00  0.00    +0.076 C 
ATOM      5  C   UNL     1     -32.891  27.071   3.817  0.00  0.00    +0.136 C 
ATOM      6  C   UNL     1     -34.265  25.447   4.974  0.00  0.00    +0.048 C 
ATOM      7  C   UNL     1     -32.960  27.051   6.233  0.00  0.00    +0.133 C 
ATOM      8  C   UNL     1     -33.850  25.978   6.201  0.00  0.00    +0.040 C 
ATOM      9  C   UNL     1     -34.212  25.445   2.479  0.00  0.00    +0.202 C 
ATOM     10  C   UNL     1     -35.155  24.307   2.455  0.00  0.00    +0.076 C 
ATOM     11  C   UNL     1     -35.635  23.760   3.648  0.00  0.00    +0.048 C 
ATOM     12  C   UNL     1     -35.207  24.311   4.950  0.00  0.00    +0.196 C 
ATOM     13  C   UNL     1     -35.568  23.776   1.228  0.00  0.00    +0.140 C 
ATOM     14  C   UNL     1     -36.528  22.683   3.611  0.00  0.00    +0.040 C 
ATOM     15  C   UNL     1     -36.937  22.157   2.386  0.00  0.00    +0.137 C 
ATOM     16  C   UNL     1     -36.458  22.703   1.197  0.00  0.00    +0.073 C 
ENDROOT
BRANCH   5  17
ATOM     17  O   UNL     1     -32.392  27.641   2.681  0.00  0.00    -0.506 OA
ATOM     18  H   UNL     1     -32.050  28.513   2.706  0.00  0.00    +0.292 HD
ENDBRANCH   5  17
BRANCH   7  19
ATOM     19  O   UNL     1     -32.570  27.554   7.438  0.00  0.00    -0.506 OA
ATOM     20  H   UNL     1     -31.680  27.814   7.571  0.00  0.00    +0.292 HD
ENDBRANCH   7  19
BRANCH  13  21
ATOM     21  O   UNL     1     -35.140  24.261   0.027  0.00  0.00    -0.505 OA
ATOM     22  H   UNL     1     -35.663  24.884  -0.439  0.00  0.00    +0.292 HD
ENDBRANCH  13  21
BRANCH  15  23
ATOM     23  O   UNL     1     -37.806  21.109   2.351  0.00  0.00    -0.505 OA
ATOM     24  H   UNL     1     -37.565  20.316   1.913  0.00  0.00    +0.292 HD
ENDBRANCH  15  23
BRANCH   3  25
ATOM     25  C   UNL     1     -31.526  28.748   5.088  0.00  0.00    +0.061 C 
BRANCH  25  26
ATOM     26  C   UNL     1     -32.195  30.090   5.485  0.00  0.00    +0.054 C 
BRANCH  26  27
ATOM     27  C   UNL     1     -32.622  30.921   4.278  0.00  0.00    +0.209 C 
BRANCH  27  28
ATOM     28  O   UNL     1     -34.023  30.770   4.094  0.00  0.00    -0.448 OA
BRANCH  28  30
ATOM     29  O   UNL     1     -33.794  29.986   1.932  0.00  0.00    -0.250 OA
ATOM     30  C   UNL     1     -34.435  30.553   2.807  0.00  0.00    +0.318 C 
ATOM     31  C   UNL     1     -35.808  31.117   2.609  0.00  0.00    +0.121 C 
ENDBRANCH  28  30
ENDBRANCH  27  28
ENDBRANCH  26  27
ENDBRANCH  25  26
BRANCH  25  32
ATOM     32  C   UNL     1     -30.335  28.473   6.037  0.00  0.00    +0.142 C 
BRANCH  32  33
ATOM     33  O   UNL     1     -30.425  29.335   7.165  0.00  0.00    -0.382 OA
ATOM     34  H   UNL     1     -30.988  28.927   7.841  0.00  0.00    +0.210 HD
ENDBRANCH  32  33
ENDBRANCH  25  32
ENDBRANCH   3  25
TORSDOF 11
ENDMDL
MODEL 9
REMARK VINA RESULT:      -6.1      1.437      3.288
REMARK  Name = 51221
REMARK  11 active torsions:
REMARK  status: ('A' for Active; 'I' for Inactive)
REMARK    1  A    between atoms: C_3  and  C_25
REMARK    2  A    between atoms: C_5  and  O_17
REMARK    3  A    between atoms: C_7  and  O_19
REMARK    4  A    between atoms: C_13  and  O_21
REMARK    5  A    between atoms: C_15  and  O_23
REMARK    6  A    between atoms: C_25  and  C_26
REMARK    7  A    between atoms: C_25  and  C_32
REMARK    8  A    between atoms: C_26  and  C_27
REMARK    9  A    between atoms: C_27  and  O_28
REMARK   10  A    between atoms: O_28  and  C_30
REMARK   11  A    between atoms: C_32  and  O_33
REMARK                            x       y       z     vdW  Elec       q    Type
REMARK                         _______ _______ _______ _____ _____    ______ ____
ROOT
ATOM      1  O   UNL     1     -31.896  22.431  -0.946  0.00  0.00    -0.286 OA
ATOM      2  O   UNL     1     -32.132  17.644   1.418  0.00  0.00    -0.287 OA
ATOM      3  C   UNL     1     -35.322  21.491   1.275  0.00  0.00    +0.047 C 
ATOM      4  C   UNL     1     -33.133  20.949   0.393  0.00  0.00    +0.076 C 
ATOM      5  C   UNL     1     -34.200  21.847   0.525  0.00  0.00    +0.136 C 
ATOM      6  C   UNL     1     -33.195  19.698   1.010  0.00  0.00    +0.048 C 
ATOM      7  C   UNL     1     -35.383  20.242   1.892  0.00  0.00    +0.133 C 
ATOM      8  C   UNL     1     -34.322  19.345   1.761  0.00  0.00    +0.040 C 
ATOM      9  C   UNL     1     -31.951  21.336  -0.402  0.00  0.00    +0.202 C 
ATOM     10  C   UNL     1     -30.832  20.379  -0.535  0.00  0.00    +0.076 C 
ATOM     11  C   UNL     1     -30.893  19.128   0.083  0.00  0.00    +0.048 C 
ATOM     12  C   UNL     1     -32.077  18.742   0.878  0.00  0.00    +0.196 C 
ATOM     13  C   UNL     1     -29.704  20.733  -1.284  0.00  0.00    +0.140 C 
ATOM     14  C   UNL     1     -29.827  18.232  -0.050  0.00  0.00    +0.040 C 
ATOM     15  C   UNL     1     -28.705  18.588  -0.799  0.00  0.00    +0.137 C 
ATOM     16  C   UNL     1     -28.644  19.836  -1.415  0.00  0.00    +0.073 C 
ENDROOT
BRANCH   5  17
ATOM     17  O   UNL     1     -34.189  23.082  -0.057  0.00  0.00    -0.506 OA
ATOM     18  H   UNL     1     -34.475  23.830   0.429  0.00  0.00    +0.292 HD
ENDBRANCH   5  17
BRANCH   7  19
ATOM     19  O   UNL     1     -36.472  19.879   2.625  0.00  0.00    -0.506 OA
ATOM     20  H   UNL     1     -37.333  20.091   2.323  0.00  0.00    +0.292 HD
ENDBRANCH   7  19
BRANCH  13  21
ATOM     21  O   UNL     1     -29.578  21.936  -1.914  0.00  0.00    -0.505 OA
ATOM     22  H   UNL     1     -29.130  22.642  -1.490  0.00  0.00    +0.292 HD
ENDBRANCH  13  21
BRANCH  15  23
ATOM     23  O   UNL     1     -27.667  17.715  -0.928  0.00  0.00    -0.505 OA
ATOM     24  H   UNL     1     -27.835  16.817  -1.134  0.00  0.00    +0.292 HD
ENDBRANCH  15  23
BRANCH   3  25
ATOM     25  C   UNL     1     -36.464  22.446   1.421  0.00  0.00    +0.061 C 
BRANCH  25  26
ATOM     26  C   UNL     1     -36.076  23.770   2.129  0.00  0.00    +0.054 C 
BRANCH  26  27
ATOM     27  C   UNL     1     -36.636  23.874   3.545  0.00  0.00    +0.209 C 
BRANCH  27  28
ATOM     28  O   UNL     1     -36.667  22.573   4.119  0.00  0.00    -0.448 OA
BRANCH  28  30
ATOM     29  O   UNL     1     -35.182  21.164   5.190  0.00  0.00    -0.250 OA
ATOM     30  C   UNL     1     -35.643  22.277   4.976  0.00  0.00    +0.318 C 
ATOM     31  C   UNL     1     -35.150  23.529   5.635  0.00  0.00    +0.121 C 
ENDBRANCH  28  30
ENDBRANCH  27  28
ENDBRANCH  26  27
ENDBRANCH  25  26
BRANCH  25  32
ATOM     32  C   UNL     1     -37.121  22.772   0.058  0.00  0.00    +0.142 C 
BRANCH  32  33
ATOM     33  O   UNL     1     -36.924  24.148  -0.242  0.00  0.00    -0.382 OA
ATOM     34  H   UNL     1     -36.302  24.533   0.396  0.00  0.00    +0.210 HD
ENDBRANCH  32  33
ENDBRANCH  25  32
ENDBRANCH   3  25
TORSDOF 11
ENDMDL
