MODEL 1
REMARK VINA RESULT:      -6.0      0.000      0.000
REMARK  Name = 5310936
REMARK  13 active torsions:
REMARK  status: ('A' for Active; 'I' for Inactive)
REMARK    1  A    between atoms: C_1  and  O_2
REMARK    2  A    between atoms: C_1  and  C_4
REMARK    3  A    between atoms: C_1  and  C_20
REMARK    4  A    between atoms: C_4  and  N_5
REMARK    5  A    between atoms: N_5  and  C_8
REMARK    6  A    between atoms: C_8  and  C_10
REMARK    7  A    between atoms: C_13  and  C_17
REMARK    8  A    between atoms: C_17  and  O_18
REMARK    9  A    between atoms: C_20  and  P_21
REMARK   10  A    between atoms: P_21  and  O_23
REMARK   11  A    between atoms: P_21  and  C_25
REMARK   12  A    between atoms: C_25  and  C_26
REMARK   13  A    between atoms: C_31  and  O_32
REMARK                            x       y       z     vdW  Elec       q    Type
REMARK                         _______ _______ _______ _____ _____    ______ ____
ROOT
ATOM      1  C   UNL     1     -39.308  22.179   2.161  0.00  0.00    +0.100 C 
ENDROOT
BRANCH   1   2
ATOM      2  O   UNL     1     -40.220  21.080   2.179  0.00  0.00    -0.386 OA
ATOM      3  H   UNL     1     -39.958  20.453   2.871  0.00  0.00    +0.210 HD
ENDBRANCH   1   2
BRANCH   1   4
ATOM      4  C   UNL     1     -38.113  21.774   1.297  0.00  0.00    -0.046 C 
BRANCH   4   5
ATOM      5  N   UNL     1     -37.068  21.111   2.064  0.00  0.00    +0.391 N 
ATOM      6  C   UNL     1     -36.724  19.820   1.465  0.00  0.00    -0.100 C 
ATOM      7  H   UNL     1     -37.423  20.947   3.007  0.00  0.00    -0.079 HD
BRANCH   5   8
ATOM      8  C   UNL     1     -35.877  21.959   2.157  0.00  0.00    -0.035 C 
ATOM      9  C   UNL     1     -34.665  21.211   1.597  0.00  0.00    -0.018 C 
BRANCH   8  10
ATOM     10  C   UNL     1     -35.639  22.430   3.578  0.00  0.00    -0.041 C 
ATOM     11  C   UNL     1     -35.676  23.792   3.876  0.00  0.00    +0.000 C 
ATOM     12  C   UNL     1     -35.385  21.502   4.586  0.00  0.00    -0.006 C 
ATOM     13  C   UNL     1     -35.458  24.225   5.183  0.00  0.00    +0.075 C 
ATOM     14  C   UNL     1     -35.167  21.935   5.895  0.00  0.00    -0.000 C 
ATOM     15  C   UNL     1     -35.203  23.297   6.193  0.00  0.00    +0.006 C 
BRANCH  13  17
ATOM     16  O   UNL     1     -34.534  26.319   5.882  0.00  0.00    -0.245 OA
ATOM     17  C   UNL     1     -35.495  25.645   5.496  0.00  0.00    +0.338 C 
BRANCH  17  18
ATOM     18  O   UNL     1     -36.732  26.185   5.318  0.00  0.00    -0.477 OA
ATOM     19  H   UNL     1     -37.344  26.200   6.027  0.00  0.00    +0.295 HD
ENDBRANCH  17  18
ENDBRANCH  13  17
ENDBRANCH   8  10
ENDBRANCH   5   8
ENDBRANCH   4   5
ENDBRANCH   1   4
BRANCH   1  20
ATOM     20  C   UNL     1     -40.050  23.425   1.684  0.00  0.00    +0.114 C 
BRANCH  20  21
ATOM     21  P   UNL     1     -39.612  24.935   2.579  0.00  0.00    +0.226 P 
ATOM     22  O   UNL     1     -38.717  24.683   3.740  0.00  0.00    -0.289 OA
BRANCH  21  23
ATOM     23  O   UNL     1     -41.057  25.540   2.952  0.00  0.00    -0.342 OA
ATOM     24  H   UNL     1     -41.585  24.865   3.406  0.00  0.00    +0.218 HD
ENDBRANCH  21  23
BRANCH  21  25
ATOM     25  C   UNL     1     -38.979  26.052   1.362  0.00  0.00    +0.113 C 
BRANCH  25  26
ATOM     26  C   UNL     1     -37.479  26.055   1.274  0.00  0.00    -0.012 C 
ATOM     27  C   UNL     1     -36.739  26.980   2.010  0.00  0.00    -0.001 C 
ATOM     28  C   UNL     1     -36.826  25.132   0.457  0.00  0.00    -0.001 C 
ATOM     29  C   UNL     1     -35.347  26.983   1.929  0.00  0.00    +0.037 C 
ATOM     30  C   UNL     1     -35.434  25.134   0.376  0.00  0.00    +0.037 C 
ATOM     31  C   UNL     1     -34.695  26.060   1.113  0.00  0.00    +0.139 C 
BRANCH  31  32
ATOM     32  O   UNL     1     -33.336  26.064   1.032  0.00  0.00    -0.471 OA
ATOM     33  C   UNL     1     -32.762  26.309  -0.251  0.00  0.00    +0.252 C 
ENDBRANCH  31  32
ENDBRANCH  25  26
ENDBRANCH  21  25
ENDBRANCH  20  21
ENDBRANCH   1  20
TORSDOF 13
ENDMDL
MODEL 2
REMARK VINA RESULT:      -6.0      2.759      4.706
REMARK  Name = 5310936
REMARK  13 active torsions:
REMARK  status: ('A' for Active; 'I' for Inactive)
REMARK    1  A    between atoms: C_1  and  O_2
REMARK    2  A    between atoms: C_1  and  C_4
REMARK    3  A    between atoms: C_1  and  C_20
REMARK    4  A    between atoms: C_4  and  N_5
REMARK    5  A    between atoms: N_5  and  C_8
REMARK    6  A    between atoms: C_8  and  C_10
REMARK    7  A    between atoms: C_13  and  C_17
REMARK    8  A    between atoms: C_17  and  O_18
REMARK    9  A    between atoms: C_20  and  P_21
REMARK   10  A    between atoms: P_21  and  O_23
REMARK   11  A    between atoms: P_21  and  C_25
REMARK   12  A    between atoms: C_25  and  C_26
REMARK   13  A    between atoms: C_31  and  O_32
REMARK                            x       y       z     vdW  Elec       q    Type
REMARK                         _______ _______ _______ _____ _____    ______ ____
ROOT
ATOM      1  C   UNL     1     -38.799  22.636   2.095  0.00  0.00    +0.100 C 
ENDROOT
BRANCH   1   2
ATOM      2  O   UNL     1     -40.177  22.284   2.225  0.00  0.00    -0.386 OA
ATOM      3  H   UNL     1     -40.304  21.365   1.941  0.00  0.00    +0.210 HD
ENDBRANCH   1   2
BRANCH   1   4
ATOM      4  C   UNL     1     -38.110  21.524   1.301  0.00  0.00    -0.046 C 
BRANCH   4   5
ATOM      5  N   UNL     1     -36.981  20.945   2.016  0.00  0.00    +0.391 N 
ATOM      6  C   UNL     1     -36.546  19.701   1.379  0.00  0.00    -0.100 C 
ATOM      7  H   UNL     1     -37.285  20.734   2.968  0.00  0.00    -0.079 HD
BRANCH   5   8
ATOM      8  C   UNL     1     -35.869  21.896   2.084  0.00  0.00    -0.035 C 
ATOM      9  C   UNL     1     -34.600  21.246   1.529  0.00  0.00    -0.018 C 
BRANCH   8  10
ATOM     10  C   UNL     1     -35.665  22.414   3.494  0.00  0.00    -0.041 C 
ATOM     11  C   UNL     1     -35.789  23.777   3.760  0.00  0.00    +0.000 C 
ATOM     12  C   UNL     1     -35.354  21.527   4.523  0.00  0.00    -0.006 C 
ATOM     13  C   UNL     1     -35.601  24.254   5.057  0.00  0.00    +0.075 C 
ATOM     14  C   UNL     1     -35.167  22.003   5.822  0.00  0.00    -0.000 C 
ATOM     15  C   UNL     1     -35.290  23.367   6.088  0.00  0.00    +0.006 C 
BRANCH  13  17
ATOM     16  O   UNL     1     -34.843  26.394   5.813  0.00  0.00    -0.245 OA
ATOM     17  C   UNL     1     -35.729  25.675   5.337  0.00  0.00    +0.338 C 
BRANCH  17  18
ATOM     18  O   UNL     1     -36.959  26.161   5.014  0.00  0.00    -0.477 OA
ATOM     19  H   UNL     1     -37.039  26.869   4.406  0.00  0.00    +0.295 HD
ENDBRANCH  17  18
ENDBRANCH  13  17
ENDBRANCH   8  10
ENDBRANCH   5   8
ENDBRANCH   4   5
ENDBRANCH   1   4
BRANCH   1  20
ATOM     20  C   UNL     1     -38.705  24.024   1.465  0.00  0.00    +0.114 C 
BRANCH  20  21
ATOM     21  P   UNL     1     -39.452  25.339   2.457  0.00  0.00    +0.226 P 
ATOM     22  O   UNL     1     -38.716  26.628   2.363  0.00  0.00    -0.289 OA
BRANCH  21  23
ATOM     23  O   UNL     1     -39.486  24.679   3.925  0.00  0.00    -0.342 OA
ATOM     24  H   UNL     1     -40.338  24.236   4.063  0.00  0.00    +0.218 HD
ENDBRANCH  21  23
BRANCH  21  25
ATOM     25  C   UNL     1     -41.153  25.401   1.974  0.00  0.00    +0.113 C 
BRANCH  25  26
ATOM     26  C   UNL     1     -41.849  26.666   2.389  0.00  0.00    -0.012 C 
ATOM     27  C   UNL     1     -42.316  27.555   1.422  0.00  0.00    -0.001 C 
ATOM     28  C   UNL     1     -42.029  26.951   3.743  0.00  0.00    -0.001 C 
ATOM     29  C   UNL     1     -42.963  28.729   1.807  0.00  0.00    +0.037 C 
ATOM     30  C   UNL     1     -42.676  28.125   4.129  0.00  0.00    +0.037 C 
ATOM     31  C   UNL     1     -43.143  29.013   3.160  0.00  0.00    +0.139 C 
BRANCH  31  32
ATOM     32  O   UNL     1     -43.773  30.160   3.536  0.00  0.00    -0.471 OA
ATOM     33  C   UNL     1     -44.362  30.181   4.836  0.00  0.00    +0.252 C 
ENDBRANCH  31  32
ENDBRANCH  25  26
ENDBRANCH  21  25
ENDBRANCH  20  21
ENDBRANCH   1  20
TORSDOF 13
ENDMDL
MODEL 3
REMARK VINA RESULT:      -5.8      4.501      6.871
REMARK  Name = 5310936
REMARK  13 active torsions:
REMARK  status: ('A' for Active; 'I' for Inactive)
REMARK    1  A    between atoms: C_1  and  O_2
REMARK    2  A    between atoms: C_1  and  C_4
REMARK    3  A    between atoms: C_1  and  C_20
REMARK    4  A    between atoms: C_4  and  N_5
REMARK    5  A    between atoms: N_5  and  C_8
REMARK    6  A    between atoms: C_8  and  C_10
REMARK    7  A    between atoms: C_13  and  C_17
REMARK    8  A    between atoms: C_17  and  O_18
REMARK    9  A    between atoms: C_20  and  P_21
REMARK   10  A    between atoms: P_21  and  O_23
REMARK   11  A    between atoms: P_21  and  C_25
REMARK   12  A    between atoms: C_25  and  C_26
REMARK   13  A    between atoms: C_31  and  O_32
REMARK                            x       y       z     vdW  Elec       q    Type
REMARK                         _______ _______ _______ _____ _____    ______ ____
ROOT
ATOM      1  C   UNL     1     -34.212  28.151   3.368  0.00  0.00    +0.100 C 
ENDROOT
BRANCH   1   2
ATOM      2  O   UNL     1     -35.568  28.512   3.103  0.00  0.00    -0.386 OA
ATOM      3  H   UNL     1     -35.632  28.907   2.219  0.00  0.00    +0.210 HD
ENDBRANCH   1   2
BRANCH   1   4
ATOM      4  C   UNL     1     -34.048  26.674   3.004  0.00  0.00    -0.046 C 
BRANCH   4   5
ATOM      5  N   UNL     1     -34.050  25.807   4.173  0.00  0.00    +0.391 N 
ATOM      6  C   UNL     1     -33.601  26.536   5.361  0.00  0.00    -0.100 C 
ATOM      7  H   UNL     1     -33.400  25.039   3.999  0.00  0.00    -0.079 HD
BRANCH   5   8
ATOM      8  C   UNL     1     -35.383  25.245   4.398  0.00  0.00    -0.035 C 
ATOM      9  C   UNL     1     -36.051  25.956   5.578  0.00  0.00    -0.018 C 
BRANCH   8  10
ATOM     10  C   UNL     1     -35.327  23.744   4.605  0.00  0.00    -0.041 C 
ATOM     11  C   UNL     1     -35.470  22.885   3.515  0.00  0.00    +0.000 C 
ATOM     12  C   UNL     1     -35.133  23.224   5.883  0.00  0.00    -0.006 C 
ATOM     13  C   UNL     1     -35.418  21.505   3.705  0.00  0.00    +0.075 C 
ATOM     14  C   UNL     1     -35.080  21.842   6.073  0.00  0.00    -0.000 C 
ATOM     15  C   UNL     1     -35.223  20.983   4.984  0.00  0.00    +0.006 C 
BRANCH  13  17
ATOM     16  O   UNL     1     -34.796  20.537   1.607  0.00  0.00    -0.245 OA
ATOM     17  C   UNL     1     -35.567  20.607   2.570  0.00  0.00    +0.338 C 
BRANCH  17  18
ATOM     18  O   UNL     1     -36.674  19.821   2.670  0.00  0.00    -0.477 OA
ATOM     19  H   UNL     1     -36.969  19.331   1.928  0.00  0.00    +0.295 HD
ENDBRANCH  17  18
ENDBRANCH  13  17
ENDBRANCH   8  10
ENDBRANCH   5   8
ENDBRANCH   4   5
ENDBRANCH   1   4
BRANCH   1  20
ATOM     20  C   UNL     1     -33.293  29.104   2.607  0.00  0.00    +0.114 C 
BRANCH  20  21
ATOM     21  P   UNL     1     -33.502  30.845   3.050  0.00  0.00    +0.226 P 
ATOM     22  O   UNL     1     -34.680  31.084   3.927  0.00  0.00    -0.289 OA
BRANCH  21  23
ATOM     23  O   UNL     1     -33.570  31.557   1.608  0.00  0.00    -0.342 OA
ATOM     24  H   UNL     1     -34.462  31.460   1.240  0.00  0.00    +0.218 HD
ENDBRANCH  21  23
BRANCH  21  25
ATOM     25  C   UNL     1     -31.947  31.365   3.714  0.00  0.00    +0.113 C 
BRANCH  25  26
ATOM     26  C   UNL     1     -31.257  30.306   4.525  0.00  0.00    -0.012 C 
ATOM     27  C   UNL     1     -31.734  29.977   5.793  0.00  0.00    -0.001 C 
ATOM     28  C   UNL     1     -30.138  29.650   4.010  0.00  0.00    -0.001 C 
ATOM     29  C   UNL     1     -31.095  28.993   6.547  0.00  0.00    +0.037 C 
ATOM     30  C   UNL     1     -29.498  28.666   4.763  0.00  0.00    +0.037 C 
ATOM     31  C   UNL     1     -29.977  28.337   6.031  0.00  0.00    +0.139 C 
BRANCH  31  32
ATOM     32  O   UNL     1     -29.351  27.379   6.767  0.00  0.00    -0.471 OA
ATOM     33  C   UNL     1     -27.927  27.331   6.696  0.00  0.00    +0.252 C 
ENDBRANCH  31  32
ENDBRANCH  25  26
ENDBRANCH  21  25
ENDBRANCH  20  21
ENDBRANCH   1  20
TORSDOF 13
ENDMDL
MODEL 4
REMARK VINA RESULT:      -5.8      4.252      6.275
REMARK  Name = 5310936
REMARK  13 active torsions:
REMARK  status: ('A' for Active; 'I' for Inactive)
REMARK    1  A    between atoms: C_1  and  O_2
REMARK    2  A    between atoms: C_1  and  C_4
REMARK    3  A    between atoms: C_1  and  C_20
REMARK    4  A    between atoms: C_4  and  N_5
REMARK    5  A    between atoms: N_5  and  C_8
REMARK    6  A    between atoms: C_8  and  C_10
REMARK    7  A    between atoms: C_13  and  C_17
REMARK    8  A    between atoms: C_17  and  O_18
REMARK    9  A    between atoms: C_20  and  P_21
REMARK   10  A    between atoms: P_21  and  O_23
REMARK   11  A    between atoms: P_21  and  C_25
REMARK   12  A    between atoms: C_25  and  C_26
REMARK   13  A    between atoms: C_31  and  O_32
REMARK                            x       y       z     vdW  Elec       q    Type
REMARK                         _______ _______ _______ _____ _____    ______ ____
ROOT
ATOM      1  C   UNL     1     -39.663  25.091   2.415  0.00  0.00    +0.100 C 
ENDROOT
BRANCH   1   2
ATOM      2  O   UNL     1     -39.647  24.703   3.789  0.00  0.00    -0.386 OA
ATOM      3  H   UNL     1     -39.610  23.736   3.852  0.00  0.00    +0.210 HD
ENDBRANCH   1   2
BRANCH   1   4
ATOM      4  C   UNL     1     -38.902  24.026   1.623  0.00  0.00    -0.046 C 
BRANCH   4   5
ATOM      5  N   UNL     1     -38.567  22.862   2.433  0.00  0.00    +0.391 N 
ATOM      6  C   UNL     1     -39.387  21.711   2.051  0.00  0.00    -0.100 C 
ATOM      7  H   UNL     1     -38.761  23.090   3.409  0.00  0.00    -0.079 HD
BRANCH   5   8
ATOM      8  C   UNL     1     -37.145  22.536   2.306  0.00  0.00    -0.035 C 
ATOM      9  C   UNL     1     -36.986  21.065   1.913  0.00  0.00    -0.018 C 
BRANCH   8  10
ATOM     10  C   UNL     1     -36.383  22.864   3.575  0.00  0.00    -0.041 C 
ATOM     11  C   UNL     1     -36.243  24.191   3.980  0.00  0.00    +0.000 C 
ATOM     12  C   UNL     1     -35.824  21.839   4.336  0.00  0.00    -0.006 C 
ATOM     13  C   UNL     1     -35.543  24.493   5.147  0.00  0.00    +0.075 C 
ATOM     14  C   UNL     1     -35.124  22.140   5.505  0.00  0.00    -0.000 C 
ATOM     15  C   UNL     1     -34.983  23.468   5.910  0.00  0.00    +0.006 C 
BRANCH  13  17
ATOM     16  O   UNL     1     -34.347  26.394   5.972  0.00  0.00    -0.245 OA
ATOM     17  C   UNL     1     -35.395  25.876   5.571  0.00  0.00    +0.338 C 
BRANCH  17  18
ATOM     18  O   UNL     1     -36.560  26.576   5.482  0.00  0.00    -0.477 OA
ATOM     19  H   UNL     1     -37.369  26.123   5.352  0.00  0.00    +0.295 HD
ENDBRANCH  17  18
ENDBRANCH  13  17
ENDBRANCH   8  10
ENDBRANCH   5   8
ENDBRANCH   4   5
ENDBRANCH   1   4
BRANCH   1  20
ATOM     20  C   UNL     1     -41.113  25.297   1.980  0.00  0.00    +0.114 C 
BRANCH  20  21
ATOM     21  P   UNL     1     -41.851  26.839   2.572  0.00  0.00    +0.226 P 
ATOM     22  O   UNL     1     -41.575  27.996   1.679  0.00  0.00    -0.289 OA
BRANCH  21  23
ATOM     23  O   UNL     1     -41.236  26.962   4.055  0.00  0.00    -0.342 OA
ATOM     24  H   UNL     1     -41.781  27.566   4.583  0.00  0.00    +0.218 HD
ENDBRANCH  21  23
BRANCH  21  25
ATOM     25  C   UNL     1     -43.562  26.482   2.843  0.00  0.00    +0.113 C 
BRANCH  25  26
ATOM     26  C   UNL     1     -44.170  27.276   3.964  0.00  0.00    -0.012 C 
ATOM     27  C   UNL     1     -43.966  28.654   4.033  0.00  0.00    -0.001 C 
ATOM     28  C   UNL     1     -44.939  26.636   4.936  0.00  0.00    -0.001 C 
ATOM     29  C   UNL     1     -44.531  29.392   5.073  0.00  0.00    +0.037 C 
ATOM     30  C   UNL     1     -45.505  27.373   5.976  0.00  0.00    +0.037 C 
ATOM     31  C   UNL     1     -45.300  28.751   6.044  0.00  0.00    +0.139 C 
BRANCH  31  32
ATOM     32  O   UNL     1     -45.850  29.471   7.060  0.00  0.00    -0.471 OA
ATOM     33  C   UNL     1     -45.066  29.630   8.242  0.00  0.00    +0.252 C 
ENDBRANCH  31  32
ENDBRANCH  25  26
ENDBRANCH  21  25
ENDBRANCH  20  21
ENDBRANCH   1  20
TORSDOF 13
ENDMDL
MODEL 5
REMARK VINA RESULT:      -5.7      4.960      6.898
REMARK  Name = 5310936
REMARK  13 active torsions:
REMARK  status: ('A' for Active; 'I' for Inactive)
REMARK    1  A    between atoms: C_1  and  O_2
REMARK    2  A    between atoms: C_1  and  C_4
REMARK    3  A    between atoms: C_1  and  C_20
REMARK    4  A    between atoms: C_4  and  N_5
REMARK    5  A    between atoms: N_5  and  C_8
REMARK    6  A    between atoms: C_8  and  C_10
REMARK    7  A    between atoms: C_13  and  C_17
REMARK    8  A    between atoms: C_17  and  O_18
REMARK    9  A    between atoms: C_20  and  P_21
REMARK   10  A    between atoms: P_21  and  O_23
REMARK   11  A    between atoms: P_21  and  C_25
REMARK   12  A    between atoms: C_25  and  C_26
REMARK   13  A    between atoms: C_31  and  O_32
REMARK                            x       y       z     vdW  Elec       q    Type
REMARK                         _______ _______ _______ _____ _____    ______ ____
ROOT
ATOM      1  C   UNL     1     -35.418  27.863   2.362  0.00  0.00    +0.100 C 
ENDROOT
BRANCH   1   2
ATOM      2  O   UNL     1     -36.802  27.991   2.035  0.00  0.00    -0.386 OA
ATOM      3  H   UNL     1     -36.895  28.166   1.085  0.00  0.00    +0.210 HD
ENDBRANCH   1   2
BRANCH   1   4
ATOM      4  C   UNL     1     -35.046  26.385   2.227  0.00  0.00    -0.046 C 
BRANCH   4   5
ATOM      5  N   UNL     1     -34.608  25.802   3.488  0.00  0.00    +0.391 N 
ATOM      6  C   UNL     1     -33.919  26.800   4.309  0.00  0.00    -0.100 C 
ATOM      7  H   UNL     1     -33.953  25.048   3.277  0.00  0.00    -0.079 HD
BRANCH   5   8
ATOM      8  C   UNL     1     -35.744  25.239   4.221  0.00  0.00    -0.035 C 
ATOM      9  C   UNL     1     -35.980  26.041   5.503  0.00  0.00    -0.018 C 
BRANCH   8  10
ATOM     10  C   UNL     1     -35.545  23.764   4.509  0.00  0.00    -0.041 C 
ATOM     11  C   UNL     1     -35.623  22.835   3.472  0.00  0.00    +0.000 C 
ATOM     12  C   UNL     1     -35.283  23.338   5.810  0.00  0.00    -0.006 C 
ATOM     13  C   UNL     1     -35.439  21.478   3.737  0.00  0.00    +0.075 C 
ATOM     14  C   UNL     1     -35.099  21.980   6.076  0.00  0.00    -0.000 C 
ATOM     15  C   UNL     1     -35.177  21.051   5.039  0.00  0.00    +0.006 C 
BRANCH  13  17
ATOM     16  O   UNL     1     -34.641  20.299   1.815  0.00  0.00    -0.245 OA
ATOM     17  C   UNL     1     -35.520  20.507   2.658  0.00  0.00    +0.338 C 
BRANCH  17  18
ATOM     18  O   UNL     1     -36.696  19.822   2.661  0.00  0.00    -0.477 OA
ATOM     19  H   UNL     1     -37.053  19.507   3.468  0.00  0.00    +0.295 HD
ENDBRANCH  17  18
ENDBRANCH  13  17
ENDBRANCH   8  10
ENDBRANCH   5   8
ENDBRANCH   4   5
ENDBRANCH   1   4
BRANCH   1  20
ATOM     20  C   UNL     1     -34.613  28.808   1.474  0.00  0.00    +0.114 C 
BRANCH  20  21
ATOM     21  P   UNL     1     -34.882  30.562   1.827  0.00  0.00    +0.226 P 
ATOM     22  O   UNL     1     -33.621  31.352   1.837  0.00  0.00    -0.289 OA
BRANCH  21  23
ATOM     23  O   UNL     1     -35.665  30.510   3.232  0.00  0.00    -0.342 OA
ATOM     24  H   UNL     1     -35.059  30.218   3.931  0.00  0.00    +0.218 HD
ENDBRANCH  21  23
BRANCH  21  25
ATOM     25  C   UNL     1     -36.106  31.105   0.671  0.00  0.00    +0.113 C 
BRANCH  25  26
ATOM     26  C   UNL     1     -36.759  32.403   1.054  0.00  0.00    -0.012 C 
ATOM     27  C   UNL     1     -36.087  33.608   0.850  0.00  0.00    -0.001 C 
ATOM     28  C   UNL     1     -38.037  32.403   1.614  0.00  0.00    -0.001 C 
ATOM     29  C   UNL     1     -36.693  34.813   1.205  0.00  0.00    +0.037 C 
ATOM     30  C   UNL     1     -38.643  33.608   1.968  0.00  0.00    +0.037 C 
ATOM     31  C   UNL     1     -37.971  34.813   1.763  0.00  0.00    +0.139 C 
BRANCH  31  32
ATOM     32  O   UNL     1     -38.561  35.989   2.111  0.00  0.00    -0.471 OA
ATOM     33  C   UNL     1     -39.817  35.911   2.784  0.00  0.00    +0.252 C 
ENDBRANCH  31  32
ENDBRANCH  25  26
ENDBRANCH  21  25
ENDBRANCH  20  21
ENDBRANCH   1  20
TORSDOF 13
ENDMDL
MODEL 6
REMARK VINA RESULT:      -5.7      2.230      3.901
REMARK  Name = 5310936
REMARK  13 active torsions:
REMARK  status: ('A' for Active; 'I' for Inactive)
REMARK    1  A    between atoms: C_1  and  O_2
REMARK    2  A    between atoms: C_1  and  C_4
REMARK    3  A    between atoms: C_1  and  C_20
REMARK    4  A    between atoms: C_4  and  N_5
REMARK    5  A    between atoms: N_5  and  C_8
REMARK    6  A    between atoms: C_8  and  C_10
REMARK    7  A    between atoms: C_13  and  C_17
REMARK    8  A    between atoms: C_17  and  O_18
REMARK    9  A    between atoms: C_20  and  P_21
REMARK   10  A    between atoms: P_21  and  O_23
REMARK   11  A    between atoms: P_21  and  C_25
REMARK   12  A    between atoms: C_25  and  C_26
REMARK   13  A    between atoms: C_31  and  O_32
REMARK                            x       y       z     vdW  Elec       q    Type
REMARK                         _______ _______ _______ _____ _____    ______ ____
ROOT
ATOM      1  C   UNL     1     -37.822  20.972   1.234  0.00  0.00    +0.100 C 
ENDROOT
BRANCH   1   2
ATOM      2  O   UNL     1     -38.786  20.879   2.283  0.00  0.00    -0.386 OA
ATOM      3  H   UNL     1     -38.768  19.987   2.662  0.00  0.00    +0.210 HD
ENDBRANCH   1   2
BRANCH   1   4
ATOM      4  C   UNL     1     -36.741  19.924   1.505  0.00  0.00    -0.046 C 
BRANCH   4   5
ATOM      5  N   UNL     1     -35.515  20.508   2.030  0.00  0.00    +0.391 N 
ATOM      6  C   UNL     1     -34.364  20.121   1.212  0.00  0.00    -0.100 C 
ATOM      7  H   UNL     1     -35.375  20.153   2.976  0.00  0.00    -0.079 HD
BRANCH   5   8
ATOM      8  C   UNL     1     -35.624  21.967   2.093  0.00  0.00    -0.035 C 
ATOM      9  C   UNL     1     -34.568  22.604   1.186  0.00  0.00    -0.018 C 
BRANCH   8  10
ATOM     10  C   UNL     1     -35.517  22.472   3.519  0.00  0.00    -0.041 C 
ATOM     11  C   UNL     1     -35.597  23.839   3.783  0.00  0.00    +0.000 C 
ATOM     12  C   UNL     1     -35.339  21.568   4.566  0.00  0.00    -0.006 C 
ATOM     13  C   UNL     1     -35.499  24.302   5.094  0.00  0.00    +0.075 C 
ATOM     14  C   UNL     1     -35.241  22.032   5.879  0.00  0.00    -0.000 C 
ATOM     15  C   UNL     1     -35.322  23.399   6.143  0.00  0.00    +0.006 C 
BRANCH  13  17
ATOM     16  O   UNL     1     -34.636  26.448   5.706  0.00  0.00    -0.245 OA
ATOM     17  C   UNL     1     -35.583  25.728   5.371  0.00  0.00    +0.338 C 
BRANCH  17  18
ATOM     18  O   UNL     1     -36.845  26.215   5.222  0.00  0.00    -0.477 OA
ATOM     19  H   UNL     1     -37.532  25.652   4.923  0.00  0.00    +0.295 HD
ENDBRANCH  17  18
ENDBRANCH  13  17
ENDBRANCH   8  10
ENDBRANCH   5   8
ENDBRANCH   4   5
ENDBRANCH   1   4
BRANCH   1  20
ATOM     20  C   UNL     1     -38.538  20.821  -0.106  0.00  0.00    +0.114 C 
BRANCH  20  21
ATOM     21  P   UNL     1     -39.839  22.045  -0.391  0.00  0.00    +0.226 P 
ATOM     22  O   UNL     1     -41.017  21.858   0.499  0.00  0.00    -0.289 OA
BRANCH  21  23
ATOM     23  O   UNL     1     -40.137  21.864  -1.963  0.00  0.00    -0.342 OA
ATOM     24  H   UNL     1     -40.747  22.557  -2.260  0.00  0.00    +0.218 HD
ENDBRANCH  21  23
BRANCH  21  25
ATOM     25  C   UNL     1     -39.050  23.624  -0.282  0.00  0.00    +0.113 C 
BRANCH  25  26
ATOM     26  C   UNL     1     -39.616  24.505   0.795  0.00  0.00    -0.012 C 
ATOM     27  C   UNL     1     -40.756  25.268   0.545  0.00  0.00    -0.001 C 
ATOM     28  C   UNL     1     -39.002  24.558   2.047  0.00  0.00    -0.001 C 
ATOM     29  C   UNL     1     -41.283  26.085   1.545  0.00  0.00    +0.037 C 
ATOM     30  C   UNL     1     -39.529  25.375   3.048  0.00  0.00    +0.037 C 
ATOM     31  C   UNL     1     -40.669  26.138   2.796  0.00  0.00    +0.139 C 
BRANCH  31  32
ATOM     32  O   UNL     1     -41.182  26.936   3.772  0.00  0.00    -0.471 OA
ATOM     33  C   UNL     1     -42.595  27.140   3.769  0.00  0.00    +0.252 C 
ENDBRANCH  31  32
ENDBRANCH  25  26
ENDBRANCH  21  25
ENDBRANCH  20  21
ENDBRANCH   1  20
TORSDOF 13
ENDMDL
MODEL 7
REMARK VINA RESULT:      -5.6      3.355      5.582
REMARK  Name = 5310936
REMARK  13 active torsions:
REMARK  status: ('A' for Active; 'I' for Inactive)
REMARK    1  A    between atoms: C_1  and  O_2
REMARK    2  A    between atoms: C_1  and  C_4
REMARK    3  A    between atoms: C_1  and  C_20
REMARK    4  A    between atoms: C_4  and  N_5
REMARK    5  A    between atoms: N_5  and  C_8
REMARK    6  A    between atoms: C_8  and  C_10
REMARK    7  A    between atoms: C_13  and  C_17
REMARK    8  A    between atoms: C_17  and  O_18
REMARK    9  A    between atoms: C_20  and  P_21
REMARK   10  A    between atoms: P_21  and  O_23
REMARK   11  A    between atoms: P_21  and  C_25
REMARK   12  A    between atoms: C_25  and  C_26
REMARK   13  A    between atoms: C_31  and  O_32
REMARK                            x       y       z     vdW  Elec       q    Type
REMARK                         _______ _______ _______ _____ _____    ______ ____
ROOT
ATOM      1  C   UNL     1     -37.724  22.426  -0.188  0.00  0.00    +0.100 C 
ENDROOT
BRANCH   1   2
ATOM      2  O   UNL     1     -38.637  22.150  -1.251  0.00  0.00    -0.386 OA
ATOM      3  H   UNL     1     -38.333  21.372  -1.745  0.00  0.00    +0.210 HD
ENDBRANCH   1   2
BRANCH   1   4
ATOM      4  C   UNL     1     -37.949  23.875   0.251  0.00  0.00    -0.046 C 
BRANCH   4   5
ATOM      5  N   UNL     1     -36.882  24.371   1.108  0.00  0.00    +0.391 N 
ATOM      6  C   UNL     1     -35.987  25.257   0.361  0.00  0.00    -0.100 C 
ATOM      7  H   UNL     1     -36.343  23.569   1.438  0.00  0.00    -0.079 HD
BRANCH   5   8
ATOM      8  C   UNL     1     -37.434  25.070   2.270  0.00  0.00    -0.035 C 
ATOM      9  C   UNL     1     -37.468  26.576   1.998  0.00  0.00    -0.018 C 
BRANCH   8  10
ATOM     10  C   UNL     1     -36.662  24.744   3.533  0.00  0.00    -0.041 C 
ATOM     11  C   UNL     1     -36.297  23.426   3.807  0.00  0.00    +0.000 C 
ATOM     12  C   UNL     1     -36.317  25.763   4.421  0.00  0.00    -0.006 C 
ATOM     13  C   UNL     1     -35.587  23.127   4.969  0.00  0.00    +0.075 C 
ATOM     14  C   UNL     1     -35.606  25.463   5.584  0.00  0.00    -0.000 C 
ATOM     15  C   UNL     1     -35.241  24.145   5.858  0.00  0.00    +0.006 C 
BRANCH  13  17
ATOM     16  O   UNL     1     -35.211  20.824   4.442  0.00  0.00    -0.245 OA
ATOM     17  C   UNL     1     -35.207  21.753   5.256  0.00  0.00    +0.338 C 
BRANCH  17  18
ATOM     18  O   UNL     1     -34.830  21.577   6.553  0.00  0.00    -0.477 OA
ATOM     19  H   UNL     1     -34.061  21.081   6.754  0.00  0.00    +0.295 HD
ENDBRANCH  17  18
ENDBRANCH  13  17
ENDBRANCH   8  10
ENDBRANCH   5   8
ENDBRANCH   4   5
ENDBRANCH   1   4
BRANCH   1  20
ATOM     20  C   UNL     1     -37.923  21.386   0.913  0.00  0.00    +0.114 C 
BRANCH  20  21
ATOM     21  P   UNL     1     -36.566  20.198   1.061  0.00  0.00    +0.226 P 
ATOM     22  O   UNL     1     -36.555  19.191  -0.033  0.00  0.00    -0.289 OA
BRANCH  21  23
ATOM     23  O   UNL     1     -36.800  19.600   2.537  0.00  0.00    -0.342 OA
ATOM     24  H   UNL     1     -35.973  19.648   3.042  0.00  0.00    +0.218 HD
ENDBRANCH  21  23
BRANCH  21  25
ATOM     25  C   UNL     1     -35.093  21.165   1.217  0.00  0.00    +0.113 C 
BRANCH  25  26
ATOM     26  C   UNL     1     -33.838  20.399   0.910  0.00  0.00    -0.012 C 
ATOM     27  C   UNL     1     -32.879  20.945   0.057  0.00  0.00    -0.001 C 
ATOM     28  C   UNL     1     -33.631  19.142   1.478  0.00  0.00    -0.001 C 
ATOM     29  C   UNL     1     -31.713  20.235  -0.228  0.00  0.00    +0.037 C 
ATOM     30  C   UNL     1     -32.465  18.431   1.193  0.00  0.00    +0.037 C 
ATOM     31  C   UNL     1     -31.506  18.978   0.341  0.00  0.00    +0.139 C 
BRANCH  31  32
ATOM     32  O   UNL     1     -30.369  18.284   0.061  0.00  0.00    -0.471 OA
ATOM     33  C   UNL     1     -29.696  17.671   1.159  0.00  0.00    +0.252 C 
ENDBRANCH  31  32
ENDBRANCH  25  26
ENDBRANCH  21  25
ENDBRANCH  20  21
ENDBRANCH   1  20
TORSDOF 13
ENDMDL
MODEL 8
REMARK VINA RESULT:      -5.6      2.843      4.886
REMARK  Name = 5310936
REMARK  13 active torsions:
REMARK  status: ('A' for Active; 'I' for Inactive)
REMARK    1  A    between atoms: C_1  and  O_2
REMARK    2  A    between atoms: C_1  and  C_4
REMARK    3  A    between atoms: C_1  and  C_20
REMARK    4  A    between atoms: C_4  and  N_5
REMARK    5  A    between atoms: N_5  and  C_8
REMARK    6  A    between atoms: C_8  and  C_10
REMARK    7  A    between atoms: C_13  and  C_17
REMARK    8  A    between atoms: C_17  and  O_18
REMARK    9  A    between atoms: C_20  and  P_21
REMARK   10  A    between atoms: P_21  and  O_23
REMARK   11  A    between atoms: P_21  and  C_25
REMARK   12  A    between atoms: C_25  and  C_26
REMARK   13  A    between atoms: C_31  and  O_32
REMARK                            x       y       z     vdW  Elec       q    Type
REMARK                         _______ _______ _______ _____ _____    ______ ____
ROOT
ATOM      1  C   UNL     1     -37.412  24.277   0.130  0.00  0.00    +0.100 C 
ENDROOT
BRANCH   1   2
ATOM      2  O   UNL     1     -36.743  25.121   1.068  0.00  0.00    -0.386 OA
ATOM      3  H   UNL     1     -36.304  24.576   1.739  0.00  0.00    +0.210 HD
ENDBRANCH   1   2
BRANCH   1   4
ATOM      4  C   UNL     1     -36.881  22.855   0.327  0.00  0.00    -0.046 C 
BRANCH   4   5
ATOM      5  N   UNL     1     -37.035  22.386   1.696  0.00  0.00    +0.391 N 
ATOM      6  C   UNL     1     -38.004  21.290   1.763  0.00  0.00    -0.100 C 
ATOM      7  H   UNL     1     -37.384  23.162   2.259  0.00  0.00    -0.079 HD
BRANCH   5   8
ATOM      8  C   UNL     1     -35.747  21.957   2.244  0.00  0.00    -0.035 C 
ATOM      9  C   UNL     1     -35.623  20.435   2.142  0.00  0.00    -0.018 C 
BRANCH   8  10
ATOM     10  C   UNL     1     -35.559  22.441   3.669  0.00  0.00    -0.041 C 
ATOM     11  C   UNL     1     -35.582  23.807   3.949  0.00  0.00    +0.000 C 
ATOM     12  C   UNL     1     -35.364  21.521   4.697  0.00  0.00    -0.006 C 
ATOM     13  C   UNL     1     -35.409  24.253   5.259  0.00  0.00    +0.075 C 
ATOM     14  C   UNL     1     -35.192  21.966   6.009  0.00  0.00    -0.000 C 
ATOM     15  C   UNL     1     -35.215  23.332   6.289  0.00  0.00    +0.006 C 
BRANCH  13  17
ATOM     16  O   UNL     1     -34.467  26.342   5.944  0.00  0.00    -0.245 OA
ATOM     17  C   UNL     1     -35.432  25.677   5.553  0.00  0.00    +0.338 C 
BRANCH  17  18
ATOM     18  O   UNL     1     -36.659  26.231   5.351  0.00  0.00    -0.477 OA
ATOM     19  H   UNL     1     -37.380  25.692   5.090  0.00  0.00    +0.295 HD
ENDBRANCH  17  18
ENDBRANCH  13  17
ENDBRANCH   8  10
ENDBRANCH   5   8
ENDBRANCH   4   5
ENDBRANCH   1   4
BRANCH   1  20
ATOM     20  C   UNL     1     -38.919  24.428   0.321  0.00  0.00    +0.114 C 
BRANCH  20  21
ATOM     21  P   UNL     1     -39.387  25.410   1.767  0.00  0.00    +0.226 P 
ATOM     22  O   UNL     1     -38.883  26.808   1.707  0.00  0.00    -0.289 OA
BRANCH  21  23
ATOM     23  O   UNL     1     -38.803  24.527   2.980  0.00  0.00    -0.342 OA
ATOM     24  H   UNL     1     -37.883  24.286   2.793  0.00  0.00    +0.218 HD
ENDBRANCH  21  23
BRANCH  21  25
ATOM     25  C   UNL     1     -41.141  25.243   1.918  0.00  0.00    +0.113 C 
BRANCH  25  26
ATOM     26  C   UNL     1     -41.826  26.498   2.377  0.00  0.00    -0.012 C 
ATOM     27  C   UNL     1     -42.460  27.326   1.451  0.00  0.00    -0.001 C 
ATOM     28  C   UNL     1     -41.829  26.836   3.731  0.00  0.00    -0.001 C 
ATOM     29  C   UNL     1     -43.097  28.491   1.877  0.00  0.00    +0.037 C 
ATOM     30  C   UNL     1     -42.466  28.002   4.158  0.00  0.00    +0.037 C 
ATOM     31  C   UNL     1     -43.100  28.828   3.230  0.00  0.00    +0.139 C 
BRANCH  31  32
ATOM     32  O   UNL     1     -43.720  29.967   3.646  0.00  0.00    -0.471 OA
ATOM     33  C   UNL     1     -44.388  29.919   4.906  0.00  0.00    +0.252 C 
ENDBRANCH  31  32
ENDBRANCH  25  26
ENDBRANCH  21  25
ENDBRANCH  20  21
ENDBRANCH   1  20
TORSDOF 13
ENDMDL
MODEL 9
REMARK VINA RESULT:      -5.6      3.331      5.482
REMARK  Name = 5310936
REMARK  13 active torsions:
REMARK  status: ('A' for Active; 'I' for Inactive)
REMARK    1  A    between atoms: C_1  and  O_2
REMARK    2  A    between atoms: C_1  and  C_4
REMARK    3  A    between atoms: C_1  and  C_20
REMARK    4  A    between atoms: C_4  and  N_5
REMARK    5  A    between atoms: N_5  and  C_8
REMARK    6  A    between atoms: C_8  and  C_10
REMARK    7  A    between atoms: C_13  and  C_17
REMARK    8  A    between atoms: C_17  and  O_18
REMARK    9  A    between atoms: C_20  and  P_21
REMARK   10  A    between atoms: P_21  and  O_23
REMARK   11  A    between atoms: P_21  and  C_25
REMARK   12  A    between atoms: C_25  and  C_26
REMARK   13  A    between atoms: C_31  and  O_32
REMARK                            x       y       z     vdW  Elec       q    Type
REMARK                         _______ _______ _______ _____ _____    ______ ____
ROOT
ATOM      1  C   UNL     1     -36.770  20.966   1.904  0.00  0.00    +0.100 C 
ENDROOT
BRANCH   1   2
ATOM      2  O   UNL     1     -36.888  19.706   2.565  0.00  0.00    -0.386 OA
ATOM      3  H   UNL     1     -36.662  19.809   3.503  0.00  0.00    +0.210 HD
ENDBRANCH   1   2
BRANCH   1   4
ATOM      4  C   UNL     1     -36.891  20.713   0.400  0.00  0.00    -0.046 C 
BRANCH   4   5
ATOM      5  N   UNL     1     -35.597  20.514  -0.238  0.00  0.00    +0.391 N 
ATOM      6  C   UNL     1     -35.575  21.125  -1.569  0.00  0.00    -0.100 C 
ATOM      7  H   UNL     1     -35.445  19.510  -0.339  0.00  0.00    -0.079 HD
BRANCH   5   8
ATOM      8  C   UNL     1     -34.522  21.066   0.590  0.00  0.00    -0.035 C 
ATOM      9  C   UNL     1     -34.131  22.452   0.072  0.00  0.00    -0.018 C 
BRANCH   8  10
ATOM     10  C   UNL     1     -33.330  20.131   0.649  0.00  0.00    -0.041 C 
ATOM     11  C   UNL     1     -32.138  20.481   0.014  0.00  0.00    +0.000 C 
ATOM     12  C   UNL     1     -33.425  18.924   1.338  0.00  0.00    -0.006 C 
ATOM     13  C   UNL     1     -31.042  19.621   0.068  0.00  0.00    +0.075 C 
ATOM     14  C   UNL     1     -32.327  18.063   1.394  0.00  0.00    -0.000 C 
ATOM     15  C   UNL     1     -31.136  18.413   0.758  0.00  0.00    +0.006 C 
BRANCH  13  17
ATOM     16  O   UNL     1     -28.981  19.187  -1.067  0.00  0.00    -0.245 OA
ATOM     17  C   UNL     1     -29.798  19.984  -0.594  0.00  0.00    +0.338 C 
BRANCH  17  18
ATOM     18  O   UNL     1     -29.611  21.331  -0.648  0.00  0.00    -0.477 OA
ATOM     19  H   UNL     1     -30.183  21.903  -0.176  0.00  0.00    +0.295 HD
ENDBRANCH  17  18
ENDBRANCH  13  17
ENDBRANCH   8  10
ENDBRANCH   5   8
ENDBRANCH   4   5
ENDBRANCH   1   4
BRANCH   1  20
ATOM     20  C   UNL     1     -37.815  21.921   2.478  0.00  0.00    +0.114 C 
BRANCH  20  21
ATOM     21  P   UNL     1     -37.157  23.536   2.958  0.00  0.00    +0.226 P 
ATOM     22  O   UNL     1     -38.042  24.265   3.906  0.00  0.00    -0.289 OA
BRANCH  21  23
ATOM     23  O   UNL     1     -36.946  24.254   1.533  0.00  0.00    -0.342 OA
ATOM     24  H   UNL     1     -35.998  24.318   1.339  0.00  0.00    +0.218 HD
ENDBRANCH  21  23
BRANCH  21  25
ATOM     25  C   UNL     1     -35.512  23.234   3.536  0.00  0.00    +0.113 C 
BRANCH  25  26
ATOM     26  C   UNL     1     -34.820  24.467   4.045  0.00  0.00    -0.012 C 
ATOM     27  C   UNL     1     -34.929  24.823   5.389  0.00  0.00    -0.001 C 
ATOM     28  C   UNL     1     -34.067  25.254   3.174  0.00  0.00    -0.001 C 
ATOM     29  C   UNL     1     -34.286  25.966   5.862  0.00  0.00    +0.037 C 
ATOM     30  C   UNL     1     -33.424  26.398   3.646  0.00  0.00    +0.037 C 
ATOM     31  C   UNL     1     -33.533  26.753   4.991  0.00  0.00    +0.139 C 
BRANCH  31  32
ATOM     32  O   UNL     1     -32.907  27.870   5.452  0.00  0.00    -0.471 OA
ATOM     33  C   UNL     1     -31.742  28.298   4.749  0.00  0.00    +0.252 C 
ENDBRANCH  31  32
ENDBRANCH  25  26
ENDBRANCH  21  25
ENDBRANCH  20  21
ENDBRANCH   1  20
TORSDOF 13
ENDMDL
