MODEL 1
REMARK VINA RESULT:      -6.6      0.000      0.000
REMARK  Name = 53915611
REMARK  10 active torsions:
REMARK  status: ('A' for Active; 'I' for Inactive)
REMARK    1  A    between atoms: N_2  and  C_18
REMARK    2  A    between atoms: C_3  and  C_5
REMARK    3  A    between atoms: C_10  and  C_13
REMARK    4  A    between atoms: N_12  and  C_13
REMARK    5  A    between atoms: N_12  and  O_16
REMARK    6  A    between atoms: C_18  and  C_27
REMARK    7  A    between atoms: C_22  and  O_28
REMARK    8  A    between atoms: O_28  and  C_29
REMARK    9  A    between atoms: C_29  and  C_31
REMARK   10  A    between atoms: C_31  and  O_32
REMARK                            x       y       z     vdW  Elec       q    Type
REMARK                         _______ _______ _______ _____ _____    ______ ____
ROOT
ATOM      1  O   UNL     1     -34.440  22.693  -0.097  0.00  0.00    -0.270 OA
ATOM      2  N   UNL     1     -35.212  22.084   2.005  0.00  0.00    -0.295 N 
ATOM      3  C   UNL     1     -34.442  21.918   0.857  0.00  0.00    +0.246 C 
ATOM      4  H   UNL     1     -35.146  21.408   2.718  0.00  0.00    +0.150 HD
ENDROOT
BRANCH   3   5
ATOM      5  C   UNL     1     -33.595  20.698   0.802  0.00  0.00    +0.053 C 
ATOM      6  C   UNL     1     -33.995  19.542   1.469  0.00  0.00    +0.005 C 
ATOM      7  C   UNL     1     -32.400  20.711   0.083  0.00  0.00    +0.005 C 
ATOM      8  C   UNL     1     -33.200  18.397   1.418  0.00  0.00    +0.003 C 
ATOM      9  C   UNL     1     -31.605  19.566   0.031  0.00  0.00    +0.003 C 
ATOM     10  C   UNL     1     -32.006  18.408   0.698  0.00  0.00    +0.036 C 
BRANCH  10  12
ATOM     11  N   UNL     1     -29.833  17.284   1.029  0.00  0.00    -0.381 N 
ATOM     12  C   UNL     1     -31.177  17.214   0.643  0.00  0.00    +0.160 C 
ATOM     13  H   UNL     1     -29.268  16.480   0.993  0.00  0.00    +0.157 HD
ATOM     14  H   UNL     1     -29.453  18.139   1.335  0.00  0.00    +0.157 HD
BRANCH  12  15
ATOM     15  N   UNL     1     -31.728  16.083   0.229  0.00  0.00    -0.118 NA
BRANCH  15  16
ATOM     16  O   UNL     1     -30.876  14.987   0.396  0.00  0.00    -0.264 OA
ATOM     17  H   UNL     1     -30.625  14.717   1.257  0.00  0.00    +0.247 HD
ENDBRANCH  15  16
ENDBRANCH  12  15
ENDBRANCH  10  12
ENDBRANCH   3   5
BRANCH   2  18
ATOM     18  C   UNL     1     -36.096  23.195   2.195  0.00  0.00    +0.149 C 
ATOM     19  C   UNL     1     -37.524  22.862   1.829  0.00  0.00    +0.031 C 
BRANCH  18  27
ATOM     20  O   UNL     1     -36.852  23.113   4.439  0.00  0.00    -0.273 OA
ATOM     21  N   UNL     1     -34.877  24.273   4.053  0.00  0.00    -0.278 N 
ATOM     22  C   UNL     1     -33.394  26.647   4.779  0.00  0.00    +0.119 C 
ATOM     23  C   UNL     1     -33.639  26.273   3.318  0.00  0.00    +0.051 C 
ATOM     24  C   UNL     1     -34.502  26.089   5.674  0.00  0.00    +0.051 C 
ATOM     25  C   UNL     1     -33.826  24.768   3.153  0.00  0.00    +0.096 C 
ATOM     26  C   UNL     1     -34.673  24.588   5.469  0.00  0.00    +0.096 C 
ATOM     27  C   UNL     1     -35.982  23.518   3.663  0.00  0.00    +0.244 C 
BRANCH  22  28
ATOM     28  O   UNL     1     -33.352  28.065   4.889  0.00  0.00    -0.345 OA
BRANCH  28  29
ATOM     29  C   UNL     1     -32.015  28.545   4.918  0.00  0.00    +0.252 C 
BRANCH  29  31
ATOM     30  O   UNL     1     -31.875  29.399   7.189  0.00  0.00    -0.247 OA
ATOM     31  C   UNL     1     -31.524  28.594   6.339  0.00  0.00    +0.344 C 
BRANCH  31  32
ATOM     32  O   UNL     1     -30.620  27.605   6.557  0.00  0.00    -0.478 OA
ATOM     33  H   UNL     1     -29.913  27.741   7.155  0.00  0.00    +0.295 HD
ENDBRANCH  31  32
ENDBRANCH  29  31
ENDBRANCH  28  29
ENDBRANCH  22  28
ENDBRANCH  18  27
ENDBRANCH   2  18
TORSDOF 10
ENDMDL
MODEL 2
REMARK VINA RESULT:      -6.4      1.228      1.781
REMARK  Name = 53915611
REMARK  10 active torsions:
REMARK  status: ('A' for Active; 'I' for Inactive)
REMARK    1  A    between atoms: N_2  and  C_18
REMARK    2  A    between atoms: C_3  and  C_5
REMARK    3  A    between atoms: C_10  and  C_13
REMARK    4  A    between atoms: N_12  and  C_13
REMARK    5  A    between atoms: N_12  and  O_16
REMARK    6  A    between atoms: C_18  and  C_27
REMARK    7  A    between atoms: C_22  and  O_28
REMARK    8  A    between atoms: O_28  and  C_29
REMARK    9  A    between atoms: C_29  and  C_31
REMARK   10  A    between atoms: C_31  and  O_32
REMARK                            x       y       z     vdW  Elec       q    Type
REMARK                         _______ _______ _______ _____ _____    ______ ____
ROOT
ATOM      1  O   UNL     1     -34.774  22.262   0.251  0.00  0.00    -0.270 OA
ATOM      2  N   UNL     1     -35.956  21.541   2.114  0.00  0.00    -0.295 N 
ATOM      3  C   UNL     1     -35.115  21.364   1.017  0.00  0.00    +0.246 C 
ATOM      4  H   UNL     1     -36.173  20.759   2.671  0.00  0.00    +0.150 HD
ENDROOT
BRANCH   3   5
ATOM      5  C   UNL     1     -34.634  19.980   0.773  0.00  0.00    +0.053 C 
ATOM      6  C   UNL     1     -33.443  19.543   1.352  0.00  0.00    +0.005 C 
ATOM      7  C   UNL     1     -35.374  19.118  -0.036  0.00  0.00    +0.005 C 
ATOM      8  C   UNL     1     -32.992  18.243   1.122  0.00  0.00    +0.003 C 
ATOM      9  C   UNL     1     -34.924  17.818  -0.266  0.00  0.00    +0.003 C 
ATOM     10  C   UNL     1     -33.732  17.380   0.314  0.00  0.00    +0.036 C 
BRANCH  10  12
ATOM     11  N   UNL     1     -34.165  15.045  -0.362  0.00  0.00    -0.381 N 
ATOM     12  C   UNL     1     -33.263  16.024   0.075  0.00  0.00    +0.160 C 
ATOM     13  H   UNL     1     -33.853  14.127  -0.525  0.00  0.00    +0.157 HD
ATOM     14  H   UNL     1     -35.111  15.277  -0.505  0.00  0.00    +0.157 HD
BRANCH  12  15
ATOM     15  N   UNL     1     -31.982  15.755   0.277  0.00  0.00    -0.118 NA
BRANCH  15  16
ATOM     16  O   UNL     1     -31.729  14.381   0.310  0.00  0.00    -0.264 OA
ATOM     17  H   UNL     1     -30.926  14.061   0.673  0.00  0.00    +0.247 HD
ENDBRANCH  15  16
ENDBRANCH  12  15
ENDBRANCH  10  12
ENDBRANCH   3   5
BRANCH   2  18
ATOM     18  C   UNL     1     -36.520  22.810   2.464  0.00  0.00    +0.149 C 
ATOM     19  C   UNL     1     -38.022  22.750   2.612  0.00  0.00    +0.031 C 
BRANCH  18  27
ATOM     20  O   UNL     1     -36.246  22.594   4.808  0.00  0.00    -0.273 OA
ATOM     21  N   UNL     1     -34.859  24.121   3.739  0.00  0.00    -0.278 N 
ATOM     22  C   UNL     1     -33.674  26.749   3.976  0.00  0.00    +0.119 C 
ATOM     23  C   UNL     1     -34.431  26.323   2.719  0.00  0.00    +0.051 C 
ATOM     24  C   UNL     1     -34.187  25.987   5.200  0.00  0.00    +0.051 C 
ATOM     25  C   UNL     1     -34.388  24.810   2.530  0.00  0.00    +0.096 C 
ATOM     26  C   UNL     1     -34.147  24.481   4.968  0.00  0.00    +0.096 C 
ATOM     27  C   UNL     1     -35.868  23.159   3.778  0.00  0.00    +0.244 C 
BRANCH  22  28
ATOM     28  O   UNL     1     -33.851  28.147   4.168  0.00  0.00    -0.345 OA
BRANCH  28  29
ATOM     29  C   UNL     1     -32.628  28.853   4.012  0.00  0.00    +0.252 C 
BRANCH  29  31
ATOM     30  O   UNL     1     -30.690  27.932   5.154  0.00  0.00    -0.247 OA
ATOM     31  C   UNL     1     -31.729  28.575   5.186  0.00  0.00    +0.344 C 
BRANCH  31  32
ATOM     32  O   UNL     1     -32.234  29.147   6.308  0.00  0.00    -0.478 OA
ATOM     33  H   UNL     1     -33.148  29.074   6.499  0.00  0.00    +0.295 HD
ENDBRANCH  31  32
ENDBRANCH  29  31
ENDBRANCH  28  29
ENDBRANCH  22  28
ENDBRANCH  18  27
ENDBRANCH   2  18
TORSDOF 10
ENDMDL
MODEL 3
REMARK VINA RESULT:      -6.4      1.600      2.432
REMARK  Name = 53915611
REMARK  10 active torsions:
REMARK  status: ('A' for Active; 'I' for Inactive)
REMARK    1  A    between atoms: N_2  and  C_18
REMARK    2  A    between atoms: C_3  and  C_5
REMARK    3  A    between atoms: C_10  and  C_13
REMARK    4  A    between atoms: N_12  and  C_13
REMARK    5  A    between atoms: N_12  and  O_16
REMARK    6  A    between atoms: C_18  and  C_27
REMARK    7  A    between atoms: C_22  and  O_28
REMARK    8  A    between atoms: O_28  and  C_29
REMARK    9  A    between atoms: C_29  and  C_31
REMARK   10  A    between atoms: C_31  and  O_32
REMARK                            x       y       z     vdW  Elec       q    Type
REMARK                         _______ _______ _______ _____ _____    ______ ____
ROOT
ATOM      1  O   UNL     1     -34.516  22.356  -0.040  0.00  0.00    -0.270 OA
ATOM      2  N   UNL     1     -35.205  21.600   2.044  0.00  0.00    -0.295 N 
ATOM      3  C   UNL     1     -34.451  21.537   0.874  0.00  0.00    +0.246 C 
ATOM      4  H   UNL     1     -35.084  20.895   2.720  0.00  0.00    +0.150 HD
ENDROOT
BRANCH   3   5
ATOM      5  C   UNL     1     -33.534  20.375   0.743  0.00  0.00    +0.053 C 
ATOM      6  C   UNL     1     -32.311  20.523   0.091  0.00  0.00    +0.005 C 
ATOM      7  C   UNL     1     -33.898  19.137   1.274  0.00  0.00    +0.005 C 
ATOM      8  C   UNL     1     -31.450  19.432  -0.032  0.00  0.00    +0.003 C 
ATOM      9  C   UNL     1     -33.037  18.047   1.152  0.00  0.00    +0.003 C 
ATOM     10  C   UNL     1     -31.812  18.194   0.499  0.00  0.00    +0.036 C 
BRANCH  10  12
ATOM     11  N   UNL     1     -29.683  17.068   1.040  0.00  0.00    -0.381 N 
ATOM     12  C   UNL     1     -30.915  17.057   0.373  0.00  0.00    +0.160 C 
ATOM     13  H   UNL     1     -29.072  16.301   0.958  0.00  0.00    +0.157 HD
ATOM     14  H   UNL     1     -29.428  17.844   1.590  0.00  0.00    +0.157 HD
BRANCH  12  15
ATOM     15  N   UNL     1     -31.297  16.031  -0.373  0.00  0.00    -0.118 NA
BRANCH  15  16
ATOM     16  O   UNL     1     -31.652  14.920   0.398  0.00  0.00    -0.264 OA
ATOM     17  H   UNL     1     -31.005  14.279   0.621  0.00  0.00    +0.247 HD
ENDBRANCH  15  16
ENDBRANCH  12  15
ENDBRANCH  10  12
ENDBRANCH   3   5
BRANCH   2  18
ATOM     18  C   UNL     1     -36.150  22.644   2.304  0.00  0.00    +0.149 C 
ATOM     19  C   UNL     1     -37.576  22.145   2.295  0.00  0.00    +0.031 C 
BRANCH  18  27
ATOM     20  O   UNL     1     -36.265  22.630   4.671  0.00  0.00    -0.273 OA
ATOM     21  N   UNL     1     -34.872  24.223   3.711  0.00  0.00    -0.278 N 
ATOM     22  C   UNL     1     -34.011  26.977   3.903  0.00  0.00    +0.119 C 
ATOM     23  C   UNL     1     -34.493  26.380   2.582  0.00  0.00    +0.051 C 
ATOM     24  C   UNL     1     -34.650  26.252   5.089  0.00  0.00    +0.051 C 
ATOM     25  C   UNL     1     -34.269  24.871   2.539  0.00  0.00    +0.096 C 
ATOM     26  C   UNL     1     -34.423  24.747   5.003  0.00  0.00    +0.096 C 
ATOM     27  C   UNL     1     -35.772  23.158   3.670  0.00  0.00    +0.244 C 
BRANCH  22  28
ATOM     28  O   UNL     1     -34.356  28.357   3.936  0.00  0.00    -0.345 OA
BRANCH  28  29
ATOM     29  C   UNL     1     -34.393  28.915   2.631  0.00  0.00    +0.252 C 
BRANCH  29  31
ATOM     30  O   UNL     1     -36.106  30.324   1.637  0.00  0.00    -0.247 OA
ATOM     31  C   UNL     1     -35.392  30.039   2.587  0.00  0.00    +0.344 C 
BRANCH  31  32
ATOM     32  O   UNL     1     -35.396  30.707   3.768  0.00  0.00    -0.478 OA
ATOM     33  H   UNL     1     -34.764  30.498   4.426  0.00  0.00    +0.295 HD
ENDBRANCH  31  32
ENDBRANCH  29  31
ENDBRANCH  28  29
ENDBRANCH  22  28
ENDBRANCH  18  27
ENDBRANCH   2  18
TORSDOF 10
ENDMDL
MODEL 4
REMARK VINA RESULT:      -6.1      4.870     10.531
REMARK  Name = 53915611
REMARK  10 active torsions:
REMARK  status: ('A' for Active; 'I' for Inactive)
REMARK    1  A    between atoms: N_2  and  C_18
REMARK    2  A    between atoms: C_3  and  C_5
REMARK    3  A    between atoms: C_10  and  C_13
REMARK    4  A    between atoms: N_12  and  C_13
REMARK    5  A    between atoms: N_12  and  O_16
REMARK    6  A    between atoms: C_18  and  C_27
REMARK    7  A    between atoms: C_22  and  O_28
REMARK    8  A    between atoms: O_28  and  C_29
REMARK    9  A    between atoms: C_29  and  C_31
REMARK   10  A    between atoms: C_31  and  O_32
REMARK                            x       y       z     vdW  Elec       q    Type
REMARK                         _______ _______ _______ _____ _____    ______ ____
ROOT
ATOM      1  O   UNL     1     -33.922  28.230   1.129  0.00  0.00    -0.270 OA
ATOM      2  N   UNL     1     -34.271  28.336   3.421  0.00  0.00    -0.295 N 
ATOM      3  C   UNL     1     -34.495  28.718   2.100  0.00  0.00    +0.246 C 
ATOM      4  H   UNL     1     -34.780  28.786   4.134  0.00  0.00    +0.150 HD
ENDROOT
BRANCH   3   5
ATOM      5  C   UNL     1     -35.482  29.808   1.888  0.00  0.00    +0.053 C 
ATOM      6  C   UNL     1     -36.386  29.733   0.829  0.00  0.00    +0.005 C 
ATOM      7  C   UNL     1     -35.504  30.905   2.749  0.00  0.00    +0.005 C 
ATOM      8  C   UNL     1     -37.313  30.756   0.630  0.00  0.00    +0.003 C 
ATOM      9  C   UNL     1     -36.432  31.928   2.550  0.00  0.00    +0.003 C 
ATOM     10  C   UNL     1     -37.337  31.853   1.491  0.00  0.00    +0.036 C 
BRANCH  10  12
ATOM     11  N   UNL     1     -37.861  34.242   1.155  0.00  0.00    -0.381 N 
ATOM     12  C   UNL     1     -38.304  32.920   1.285  0.00  0.00    +0.160 C 
ATOM     13  H   UNL     1     -38.511  34.967   1.016  0.00  0.00    +0.157 HD
ATOM     14  H   UNL     1     -36.900  34.446   1.205  0.00  0.00    +0.157 HD
BRANCH  12  15
ATOM     15  N   UNL     1     -39.589  32.602   1.220  0.00  0.00    -0.118 NA
BRANCH  15  16
ATOM     16  O   UNL     1     -40.414  33.649   1.643  0.00  0.00    -0.264 OA
ATOM     17  H   UNL     1     -40.861  34.177   1.011  0.00  0.00    +0.247 HD
ENDBRANCH  15  16
ENDBRANCH  12  15
ENDBRANCH  10  12
ENDBRANCH   3   5
BRANCH   2  18
ATOM     18  C   UNL     1     -33.332  27.318   3.788  0.00  0.00    +0.149 C 
ATOM     19  C   UNL     1     -32.023  27.893   4.277  0.00  0.00    +0.031 C 
BRANCH  18  27
ATOM     20  O   UNL     1     -33.745  26.800   6.062  0.00  0.00    -0.273 OA
ATOM     21  N   UNL     1     -34.948  25.586   4.489  0.00  0.00    -0.278 N 
ATOM     22  C   UNL     1     -35.932  22.944   3.846  0.00  0.00    +0.119 C 
ATOM     23  C   UNL     1     -35.146  23.773   2.831  0.00  0.00    +0.051 C 
ATOM     24  C   UNL     1     -35.546  23.329   5.275  0.00  0.00    +0.051 C 
ATOM     25  C   UNL     1     -35.299  25.268   3.098  0.00  0.00    +0.096 C 
ATOM     26  C   UNL     1     -35.692  24.830   5.499  0.00  0.00    +0.096 C 
ATOM     27  C   UNL     1     -34.022  26.550   4.886  0.00  0.00    +0.244 C 
BRANCH  22  28
ATOM     28  O   UNL     1     -35.654  21.566   3.626  0.00  0.00    -0.345 OA
BRANCH  28  29
ATOM     29  C   UNL     1     -35.247  21.325   2.286  0.00  0.00    +0.252 C 
BRANCH  29  31
ATOM     30  O   UNL     1     -35.560  19.449   0.773  0.00  0.00    -0.247 OA
ATOM     31  C   UNL     1     -35.884  20.059   1.782  0.00  0.00    +0.344 C 
BRANCH  31  32
ATOM     32  O   UNL     1     -36.885  19.675   2.613  0.00  0.00    -0.478 OA
ATOM     33  H   UNL     1     -37.487  19.010   2.345  0.00  0.00    +0.295 HD
ENDBRANCH  31  32
ENDBRANCH  29  31
ENDBRANCH  28  29
ENDBRANCH  22  28
ENDBRANCH  18  27
ENDBRANCH   2  18
TORSDOF 10
ENDMDL
MODEL 5
REMARK VINA RESULT:      -6.0      4.424      7.743
REMARK  Name = 53915611
REMARK  10 active torsions:
REMARK  status: ('A' for Active; 'I' for Inactive)
REMARK    1  A    between atoms: N_2  and  C_18
REMARK    2  A    between atoms: C_3  and  C_5
REMARK    3  A    between atoms: C_10  and  C_13
REMARK    4  A    between atoms: N_12  and  C_13
REMARK    5  A    between atoms: N_12  and  O_16
REMARK    6  A    between atoms: C_18  and  C_27
REMARK    7  A    between atoms: C_22  and  O_28
REMARK    8  A    between atoms: O_28  and  C_29
REMARK    9  A    between atoms: C_29  and  C_31
REMARK   10  A    between atoms: C_31  and  O_32
REMARK                            x       y       z     vdW  Elec       q    Type
REMARK                         _______ _______ _______ _____ _____    ______ ____
ROOT
ATOM      1  O   UNL     1     -33.627  28.395   3.748  0.00  0.00    -0.270 OA
ATOM      2  N   UNL     1     -32.447  27.753   5.641  0.00  0.00    -0.295 N 
ATOM      3  C   UNL     1     -33.327  27.543   4.582  0.00  0.00    +0.246 C 
ATOM      4  H   UNL     1     -32.268  27.008   6.259  0.00  0.00    +0.150 HD
ENDROOT
BRANCH   3   5
ATOM      5  C   UNL     1     -33.947  26.196   4.498  0.00  0.00    +0.053 C 
ATOM      6  C   UNL     1     -34.546  25.633   5.624  0.00  0.00    +0.005 C 
ATOM      7  C   UNL     1     -33.928  25.494   3.292  0.00  0.00    +0.005 C 
ATOM      8  C   UNL     1     -35.128  24.368   5.545  0.00  0.00    +0.003 C 
ATOM      9  C   UNL     1     -34.511  24.229   3.213  0.00  0.00    +0.003 C 
ATOM     10  C   UNL     1     -35.111  23.666   4.340  0.00  0.00    +0.036 C 
BRANCH  10  12
ATOM     11  N   UNL     1     -36.980  22.201   3.665  0.00  0.00    -0.381 N 
ATOM     12  C   UNL     1     -35.719  22.347   4.256  0.00  0.00    +0.160 C 
ATOM     13  H   UNL     1     -37.396  21.311   3.606  0.00  0.00    +0.157 HD
ATOM     14  H   UNL     1     -37.451  22.989   3.309  0.00  0.00    +0.157 HD
BRANCH  12  15
ATOM     15  N   UNL     1     -35.050  21.312   4.743  0.00  0.00    -0.118 NA
BRANCH  15  16
ATOM     16  O   UNL     1     -35.570  20.876   5.966  0.00  0.00    -0.264 OA
ATOM     17  H   UNL     1     -35.084  20.272   6.492  0.00  0.00    +0.247 HD
ENDBRANCH  15  16
ENDBRANCH  12  15
ENDBRANCH  10  12
ENDBRANCH   3   5
BRANCH   2  18
ATOM     18  C   UNL     1     -31.790  29.006   5.869  0.00  0.00    +0.149 C 
ATOM     19  C   UNL     1     -31.725  29.361   7.337  0.00  0.00    +0.031 C 
BRANCH  18  27
ATOM     20  O   UNL     1     -29.715  27.874   5.712  0.00  0.00    -0.273 OA
ATOM     21  N   UNL     1     -29.990  29.728   4.340  0.00  0.00    -0.278 N 
ATOM     22  C   UNL     1     -28.645  32.062   3.288  0.00  0.00    +0.119 C 
ATOM     23  C   UNL     1     -30.016  32.162   3.957  0.00  0.00    +0.051 C 
ATOM     24  C   UNL     1     -27.864  30.865   3.831  0.00  0.00    +0.051 C 
ATOM     25  C   UNL     1     -30.790  30.853   3.836  0.00  0.00    +0.096 C 
ATOM     26  C   UNL     1     -28.675  29.578   3.712  0.00  0.00    +0.096 C 
ATOM     27  C   UNL     1     -30.406  28.812   5.305  0.00  0.00    +0.244 C 
BRANCH  22  28
ATOM     28  O   UNL     1     -27.924  33.263   3.538  0.00  0.00    -0.345 OA
BRANCH  28  29
ATOM     29  C   UNL     1     -28.622  34.400   3.050  0.00  0.00    +0.252 C 
BRANCH  29  31
ATOM     30  O   UNL     1     -29.046  36.605   3.982  0.00  0.00    -0.247 OA
ATOM     31  C   UNL     1     -28.400  35.567   3.973  0.00  0.00    +0.344 C 
BRANCH  31  32
ATOM     32  O   UNL     1     -27.367  35.309   4.814  0.00  0.00    -0.478 OA
ATOM     33  H   UNL     1     -26.497  35.230   4.476  0.00  0.00    +0.295 HD
ENDBRANCH  31  32
ENDBRANCH  29  31
ENDBRANCH  28  29
ENDBRANCH  22  28
ENDBRANCH  18  27
ENDBRANCH   2  18
TORSDOF 10
ENDMDL
MODEL 6
REMARK VINA RESULT:      -5.9      6.144     11.372
REMARK  Name = 53915611
REMARK  10 active torsions:
REMARK  status: ('A' for Active; 'I' for Inactive)
REMARK    1  A    between atoms: N_2  and  C_18
REMARK    2  A    between atoms: C_3  and  C_5
REMARK    3  A    between atoms: C_10  and  C_13
REMARK    4  A    between atoms: N_12  and  C_13
REMARK    5  A    between atoms: N_12  and  O_16
REMARK    6  A    between atoms: C_18  and  C_27
REMARK    7  A    between atoms: C_22  and  O_28
REMARK    8  A    between atoms: O_28  and  C_29
REMARK    9  A    between atoms: C_29  and  C_31
REMARK   10  A    between atoms: C_31  and  O_32
REMARK                            x       y       z     vdW  Elec       q    Type
REMARK                         _______ _______ _______ _____ _____    ______ ____
ROOT
ATOM      1  O   UNL     1     -36.605  29.044  -0.498  0.00  0.00    -0.270 OA
ATOM      2  N   UNL     1     -35.853  29.203   1.692  0.00  0.00    -0.295 N 
ATOM      3  C   UNL     1     -36.611  29.606   0.594  0.00  0.00    +0.246 C 
ATOM      4  H   UNL     1     -35.925  29.718   2.527  0.00  0.00    +0.150 HD
ENDROOT
BRANCH   3   5
ATOM      5  C   UNL     1     -37.454  30.814   0.784  0.00  0.00    +0.053 C 
ATOM      6  C   UNL     1     -38.618  30.976   0.034  0.00  0.00    +0.005 C 
ATOM      7  C   UNL     1     -37.082  31.785   1.713  0.00  0.00    +0.005 C 
ATOM      8  C   UNL     1     -39.410  32.111   0.212  0.00  0.00    +0.003 C 
ATOM      9  C   UNL     1     -37.874  32.919   1.892  0.00  0.00    +0.003 C 
ATOM     10  C   UNL     1     -39.039  33.082   1.142  0.00  0.00    +0.036 C 
BRANCH  10  12
ATOM     11  N   UNL     1     -39.304  35.536   1.162  0.00  0.00    -0.381 N 
ATOM     12  C   UNL     1     -39.865  34.264   1.329  0.00  0.00    +0.160 C 
ATOM     13  H   UNL     1     -39.858  36.339   1.288  0.00  0.00    +0.157 HD
ATOM     14  H   UNL     1     -38.354  35.627   0.920  0.00  0.00    +0.157 HD
BRANCH  12  15
ATOM     15  N   UNL     1     -41.140  34.098   1.652  0.00  0.00    -0.118 NA
BRANCH  15  16
ATOM     16  O   UNL     1     -41.465  34.723   2.860  0.00  0.00    -0.264 OA
ATOM     17  H   UNL     1     -40.969  34.534   3.632  0.00  0.00    +0.247 HD
ENDBRANCH  15  16
ENDBRANCH  12  15
ENDBRANCH  10  12
ENDBRANCH   3   5
BRANCH   2  18
ATOM     18  C   UNL     1     -34.974  28.073   1.656  0.00  0.00    +0.149 C 
ATOM     19  C   UNL     1     -33.590  28.437   1.170  0.00  0.00    +0.031 C 
BRANCH  18  27
ATOM     20  O   UNL     1     -34.164  28.139   3.882  0.00  0.00    -0.273 OA
ATOM     21  N   UNL     1     -35.770  26.528   3.411  0.00  0.00    -0.278 N 
ATOM     22  C   UNL     1     -36.521  23.779   3.906  0.00  0.00    +0.119 C 
ATOM     23  C   UNL     1     -36.454  24.347   2.489  0.00  0.00    +0.051 C 
ATOM     24  C   UNL     1     -35.564  24.528   4.835  0.00  0.00    +0.051 C 
ATOM     25  C   UNL     1     -36.688  25.854   2.483  0.00  0.00    +0.096 C 
ATOM     26  C   UNL     1     -35.815  26.032   4.789  0.00  0.00    +0.096 C 
ATOM     27  C   UNL     1     -34.928  27.590   3.083  0.00  0.00    +0.244 C 
BRANCH  22  28
ATOM     28  O   UNL     1     -36.174  22.400   3.866  0.00  0.00    -0.345 OA
BRANCH  28  29
ATOM     29  C   UNL     1     -35.892  21.974   2.540  0.00  0.00    +0.252 C 
BRANCH  29  31
ATOM     30  O   UNL     1     -34.593  19.926   2.387  0.00  0.00    -0.247 OA
ATOM     31  C   UNL     1     -35.671  20.486   2.521  0.00  0.00    +0.344 C 
BRANCH  31  32
ATOM     32  O   UNL     1     -36.851  19.835   2.675  0.00  0.00    -0.478 OA
ATOM     33  H   UNL     1     -36.875  19.005   3.107  0.00  0.00    +0.295 HD
ENDBRANCH  31  32
ENDBRANCH  29  31
ENDBRANCH  28  29
ENDBRANCH  22  28
ENDBRANCH  18  27
ENDBRANCH   2  18
TORSDOF 10
ENDMDL
MODEL 7
REMARK VINA RESULT:      -5.9      4.952      8.185
REMARK  Name = 53915611
REMARK  10 active torsions:
REMARK  status: ('A' for Active; 'I' for Inactive)
REMARK    1  A    between atoms: N_2  and  C_18
REMARK    2  A    between atoms: C_3  and  C_5
REMARK    3  A    between atoms: C_10  and  C_13
REMARK    4  A    between atoms: N_12  and  C_13
REMARK    5  A    between atoms: N_12  and  O_16
REMARK    6  A    between atoms: C_18  and  C_27
REMARK    7  A    between atoms: C_22  and  O_28
REMARK    8  A    between atoms: O_28  and  C_29
REMARK    9  A    between atoms: C_29  and  C_31
REMARK   10  A    between atoms: C_31  and  O_32
REMARK                            x       y       z     vdW  Elec       q    Type
REMARK                         _______ _______ _______ _____ _____    ______ ____
ROOT
ATOM      1  O   UNL     1     -32.575  28.313   5.412  0.00  0.00    -0.270 OA
ATOM      2  N   UNL     1     -32.474  28.004   3.115  0.00  0.00    -0.295 N 
ATOM      3  C   UNL     1     -32.857  27.662   4.410  0.00  0.00    +0.246 C 
ATOM      4  H   UNL     1     -32.748  27.418   2.373  0.00  0.00    +0.150 HD
ENDROOT
BRANCH   3   5
ATOM      5  C   UNL     1     -33.637  26.405   4.556  0.00  0.00    +0.053 C 
ATOM      6  C   UNL     1     -34.270  26.115   5.763  0.00  0.00    +0.005 C 
ATOM      7  C   UNL     1     -33.735  25.518   3.484  0.00  0.00    +0.005 C 
ATOM      8  C   UNL     1     -35.002  24.935   5.900  0.00  0.00    +0.003 C 
ATOM      9  C   UNL     1     -34.467  24.339   3.621  0.00  0.00    +0.003 C 
ATOM     10  C   UNL     1     -35.102  24.047   4.829  0.00  0.00    +0.036 C 
BRANCH  10  12
ATOM     11  N   UNL     1     -36.711  22.404   3.934  0.00  0.00    -0.381 N 
ATOM     12  C   UNL     1     -35.866  22.818   4.971  0.00  0.00    +0.160 C 
ATOM     13  H   UNL     1     -37.231  21.573   4.024  0.00  0.00    +0.157 HD
ATOM     14  H   UNL     1     -36.786  22.944   3.114  0.00  0.00    +0.157 HD
BRANCH  12  15
ATOM     15  N   UNL     1     -35.734  22.118   6.088  0.00  0.00    -0.118 NA
BRANCH  15  16
ATOM     16  O   UNL     1     -35.311  20.808   5.844  0.00  0.00    -0.264 OA
ATOM     17  H   UNL     1     -35.920  20.099   5.913  0.00  0.00    +0.247 HD
ENDBRANCH  15  16
ENDBRANCH  12  15
ENDBRANCH  10  12
ENDBRANCH   3   5
BRANCH   2  18
ATOM     18  C   UNL     1     -31.700  29.171   2.816  0.00  0.00    +0.149 C 
ATOM     19  C   UNL     1     -30.690  28.925   1.718  0.00  0.00    +0.031 C 
BRANCH  18  27
ATOM     20  O   UNL     1     -33.649  29.851   1.653  0.00  0.00    -0.273 OA
ATOM     21  N   UNL     1     -32.531  31.497   2.853  0.00  0.00    -0.278 N 
ATOM     22  C   UNL     1     -31.681  34.260   2.774  0.00  0.00    +0.119 C 
ATOM     23  C   UNL     1     -30.707  33.133   3.117  0.00  0.00    +0.051 C 
ATOM     24  C   UNL     1     -32.814  33.744   1.885  0.00  0.00    +0.051 C 
ATOM     25  C   UNL     1     -31.434  31.937   3.725  0.00  0.00    +0.096 C 
ATOM     26  C   UNL     1     -33.504  32.539   2.515  0.00  0.00    +0.096 C 
ATOM     27  C   UNL     1     -32.717  30.197   2.385  0.00  0.00    +0.244 C 
BRANCH  22  28
ATOM     28  O   UNL     1     -30.970  35.292   2.101  0.00  0.00    -0.345 OA
BRANCH  28  29
ATOM     29  C   UNL     1     -30.234  36.096   3.012  0.00  0.00    +0.252 C 
BRANCH  29  31
ATOM     30  O   UNL     1     -31.013  38.182   2.036  0.00  0.00    -0.247 OA
ATOM     31  C   UNL     1     -30.792  37.493   3.021  0.00  0.00    +0.344 C 
BRANCH  31  32
ATOM     32  O   UNL     1     -31.024  37.895   4.297  0.00  0.00    -0.478 OA
ATOM     33  H   UNL     1     -30.475  38.545   4.690  0.00  0.00    +0.295 HD
ENDBRANCH  31  32
ENDBRANCH  29  31
ENDBRANCH  28  29
ENDBRANCH  22  28
ENDBRANCH  18  27
ENDBRANCH   2  18
TORSDOF 10
ENDMDL
MODEL 8
REMARK VINA RESULT:      -5.9      3.573      5.411
REMARK  Name = 53915611
REMARK  10 active torsions:
REMARK  status: ('A' for Active; 'I' for Inactive)
REMARK    1  A    between atoms: N_2  and  C_18
REMARK    2  A    between atoms: C_3  and  C_5
REMARK    3  A    between atoms: C_10  and  C_13
REMARK    4  A    between atoms: N_12  and  C_13
REMARK    5  A    between atoms: N_12  and  O_16
REMARK    6  A    between atoms: C_18  and  C_27
REMARK    7  A    between atoms: C_22  and  O_28
REMARK    8  A    between atoms: O_28  and  C_29
REMARK    9  A    between atoms: C_29  and  C_31
REMARK   10  A    between atoms: C_31  and  O_32
REMARK                            x       y       z     vdW  Elec       q    Type
REMARK                         _______ _______ _______ _____ _____    ______ ____
ROOT
ATOM      1  O   UNL     1     -37.183  20.660   1.626  0.00  0.00    -0.270 OA
ATOM      2  N   UNL     1     -35.416  21.472   2.893  0.00  0.00    -0.295 N 
ATOM      3  C   UNL     1     -35.998  20.627   1.951  0.00  0.00    +0.246 C 
ATOM      4  H   UNL     1     -34.457  21.369   3.088  0.00  0.00    +0.150 HD
ENDROOT
BRANCH   3   5
ATOM      5  C   UNL     1     -35.104  19.613   1.333  0.00  0.00    +0.053 C 
ATOM      6  C   UNL     1     -35.547  18.866   0.243  0.00  0.00    +0.005 C 
ATOM      7  C   UNL     1     -33.823  19.411   1.845  0.00  0.00    +0.005 C 
ATOM      8  C   UNL     1     -34.708  17.914  -0.336  0.00  0.00    +0.003 C 
ATOM      9  C   UNL     1     -32.983  18.460   1.265  0.00  0.00    +0.003 C 
ATOM     10  C   UNL     1     -33.425  17.711   0.174  0.00  0.00    +0.036 C 
BRANCH  10  12
ATOM     11  N   UNL     1     -31.524  16.144   0.330  0.00  0.00    -0.381 N 
ATOM     12  C   UNL     1     -32.549  16.721  -0.431  0.00  0.00    +0.160 C 
ATOM     13  H   UNL     1     -30.929  15.474  -0.074  0.00  0.00    +0.157 HD
ATOM     14  H   UNL     1     -31.399  16.411   1.269  0.00  0.00    +0.157 HD
BRANCH  12  15
ATOM     15  N   UNL     1     -32.753  16.387  -1.697  0.00  0.00    -0.118 NA
BRANCH  15  16
ATOM     16  O   UNL     1     -31.939  17.111  -2.573  0.00  0.00    -0.264 OA
ATOM     17  H   UNL     1     -31.184  17.559  -2.246  0.00  0.00    +0.247 HD
ENDBRANCH  15  16
ENDBRANCH  12  15
ENDBRANCH  10  12
ENDBRANCH   3   5
BRANCH   2  18
ATOM     18  C   UNL     1     -36.153  22.482   3.591  0.00  0.00    +0.149 C 
ATOM     19  C   UNL     1     -35.579  22.769   4.960  0.00  0.00    +0.031 C 
BRANCH  18  27
ATOM     20  O   UNL     1     -34.946  24.190   2.478  0.00  0.00    -0.273 OA
ATOM     21  N   UNL     1     -37.251  24.196   2.192  0.00  0.00    -0.278 N 
ATOM     22  C   UNL     1     -39.570  25.917   2.035  0.00  0.00    +0.119 C 
ATOM     23  C   UNL     1     -39.535  24.705   2.966  0.00  0.00    +0.051 C 
ATOM     24  C   UNL     1     -38.158  26.450   1.788  0.00  0.00    +0.051 C 
ATOM     25  C   UNL     1     -38.584  23.632   2.444  0.00  0.00    +0.096 C 
ATOM     26  C   UNL     1     -37.232  25.348   1.286  0.00  0.00    +0.096 C 
ATOM     27  C   UNL     1     -36.054  23.698   2.705  0.00  0.00    +0.244 C 
BRANCH  22  28
ATOM     28  O   UNL     1     -40.372  26.930   2.630  0.00  0.00    -0.345 OA
BRANCH  28  29
ATOM     29  C   UNL     1     -41.262  26.388   3.597  0.00  0.00    +0.252 C 
BRANCH  29  31
ATOM     30  O   UNL     1     -41.862  28.564   4.497  0.00  0.00    -0.247 OA
ATOM     31  C   UNL     1     -42.194  27.462   4.088  0.00  0.00    +0.344 C 
BRANCH  31  32
ATOM     32  O   UNL     1     -43.480  27.035   4.014  0.00  0.00    -0.478 OA
ATOM     33  H   UNL     1     -44.182  27.654   4.053  0.00  0.00    +0.295 HD
ENDBRANCH  31  32
ENDBRANCH  29  31
ENDBRANCH  28  29
ENDBRANCH  22  28
ENDBRANCH  18  27
ENDBRANCH   2  18
TORSDOF 10
ENDMDL
MODEL 9
REMARK VINA RESULT:      -5.8      3.740      5.450
REMARK  Name = 53915611
REMARK  10 active torsions:
REMARK  status: ('A' for Active; 'I' for Inactive)
REMARK    1  A    between atoms: N_2  and  C_18
REMARK    2  A    between atoms: C_3  and  C_5
REMARK    3  A    between atoms: C_10  and  C_13
REMARK    4  A    between atoms: N_12  and  C_13
REMARK    5  A    between atoms: N_12  and  O_16
REMARK    6  A    between atoms: C_18  and  C_27
REMARK    7  A    between atoms: C_22  and  O_28
REMARK    8  A    between atoms: O_28  and  C_29
REMARK    9  A    between atoms: C_29  and  C_31
REMARK   10  A    between atoms: C_31  and  O_32
REMARK                            x       y       z     vdW  Elec       q    Type
REMARK                         _______ _______ _______ _____ _____    ______ ____
ROOT
ATOM      1  O   UNL     1     -35.932  20.106   0.993  0.00  0.00    -0.270 OA
ATOM      2  N   UNL     1     -34.808  21.520   2.451  0.00  0.00    -0.295 N 
ATOM      3  C   UNL     1     -34.885  20.511   1.493  0.00  0.00    +0.246 C 
ATOM      4  H   UNL     1     -33.922  21.776   2.794  0.00  0.00    +0.150 HD
ENDROOT
BRANCH   3   5
ATOM      5  C   UNL     1     -33.599  19.885   1.090  0.00  0.00    +0.053 C 
ATOM      6  C   UNL     1     -32.693  20.599   0.308  0.00  0.00    +0.005 C 
ATOM      7  C   UNL     1     -33.300  18.585   1.496  0.00  0.00    +0.005 C 
ATOM      8  C   UNL     1     -31.486  20.012  -0.071  0.00  0.00    +0.003 C 
ATOM      9  C   UNL     1     -32.092  17.998   1.118  0.00  0.00    +0.003 C 
ATOM     10  C   UNL     1     -31.184  18.712   0.335  0.00  0.00    +0.036 C 
BRANCH  10  12
ATOM     11  N   UNL     1     -29.576  18.039  -1.413  0.00  0.00    -0.381 N 
ATOM     12  C   UNL     1     -29.925  18.100  -0.058  0.00  0.00    +0.160 C 
ATOM     13  H   UNL     1     -28.725  17.626  -1.684  0.00  0.00    +0.157 HD
ATOM     14  H   UNL     1     -30.183  18.409  -2.094  0.00  0.00    +0.157 HD
BRANCH  12  15
ATOM     15  N   UNL     1     -29.135  17.617   0.890  0.00  0.00    -0.118 NA
BRANCH  15  16
ATOM     16  O   UNL     1     -27.991  18.400   1.074  0.00  0.00    -0.264 OA
ATOM     17  H   UNL     1     -27.929  19.241   0.666  0.00  0.00    +0.247 HD
ENDBRANCH  15  16
ENDBRANCH  12  15
ENDBRANCH  10  12
ENDBRANCH   3   5
BRANCH   2  18
ATOM     18  C   UNL     1     -35.962  22.200   2.958  0.00  0.00    +0.149 C 
ATOM     19  C   UNL     1     -35.880  22.438   4.448  0.00  0.00    +0.031 C 
BRANCH  18  27
ATOM     20  O   UNL     1     -34.917  24.047   1.903  0.00  0.00    -0.273 OA
ATOM     21  N   UNL     1     -37.240  24.035   1.908  0.00  0.00    -0.278 N 
ATOM     22  C   UNL     1     -39.573  25.712   2.235  0.00  0.00    +0.119 C 
ATOM     23  C   UNL     1     -39.412  24.406   3.012  0.00  0.00    +0.051 C 
ATOM     24  C   UNL     1     -38.208  26.300   1.876  0.00  0.00    +0.051 C 
ATOM     25  C   UNL     1     -38.526  23.418   2.259  0.00  0.00    +0.096 C 
ATOM     26  C   UNL     1     -37.344  25.280   1.143  0.00  0.00    +0.096 C 
ATOM     27  C   UNL     1     -35.984  23.509   2.209  0.00  0.00    +0.244 C 
BRANCH  22  28
ATOM     28  O   UNL     1     -40.302  26.635   3.036  0.00  0.00    -0.345 OA
BRANCH  28  29
ATOM     29  C   UNL     1     -41.702  26.419   2.936  0.00  0.00    +0.252 C 
BRANCH  29  31
ATOM     30  O   UNL     1     -43.618  27.240   4.185  0.00  0.00    -0.247 OA
ATOM     31  C   UNL     1     -42.422  27.280   3.937  0.00  0.00    +0.344 C 
BRANCH  31  32
ATOM     32  O   UNL     1     -41.549  28.124   4.542  0.00  0.00    -0.478 OA
ATOM     33  H   UNL     1     -41.779  28.533   5.353  0.00  0.00    +0.295 HD
ENDBRANCH  31  32
ENDBRANCH  29  31
ENDBRANCH  28  29
ENDBRANCH  22  28
ENDBRANCH  18  27
ENDBRANCH   2  18
TORSDOF 10
ENDMDL
