MODEL 1
REMARK VINA RESULT:      -7.0      0.000      0.000
REMARK  Name = 5311018
REMARK  8 active torsions:
REMARK  status: ('A' for Active; 'I' for Inactive)
REMARK    1  A    between atoms: N_2  and  C_34
REMARK    2  A    between atoms: C_4  and  O_30
REMARK    3  A    between atoms: C_10  and  N_21
REMARK    4  A    between atoms: C_17  and  O_32
REMARK    5  A    between atoms: C_22  and  C_24
REMARK    6  A    between atoms: C_25  and  C_27
REMARK    7  A    between atoms: C_27  and  O_28
REMARK    8  A    between atoms: C_34  and  C_35
REMARK                            x       y       z     vdW  Elec       q    Type
REMARK                         _______ _______ _______ _____ _____    ______ ____
ROOT
ATOM      1  O   UNL     1     -37.150  25.280   3.529  0.00  0.00    -0.474 OA
ATOM      2  N   UNL     1     -36.247  20.486   1.770  0.00  0.00    +0.390 N 
ATOM      3  C   UNL     1     -37.319  23.057   2.594  0.00  0.00    +0.078 C 
ATOM      4  C   UNL     1     -38.065  22.140   1.615  0.00  0.00    +0.078 C 
ATOM      5  C   UNL     1     -36.968  21.364   0.813  0.00  0.00    -0.028 C 
ATOM      6  C   UNL     1     -38.112  24.185   3.287  0.00  0.00    +0.189 C 
ATOM      7  C   UNL     1     -36.505  22.194   3.589  0.00  0.00    -0.013 C 
ATOM      8  C   UNL     1     -36.373  23.936   1.852  0.00  0.00    +0.016 C 
ATOM      9  C   UNL     1     -39.067  22.913   0.745  0.00  0.00    +0.027 C 
ATOM     10  C   UNL     1     -39.283  24.771   2.455  0.00  0.00    +0.112 C 
ATOM     11  C   UNL     1     -36.042  22.326  -0.012  0.00  0.00    +0.008 C 
ATOM     12  C   UNL     1     -35.581  21.193   2.869  0.00  0.00    -0.077 C 
ATOM     13  C   UNL     1     -40.026  23.725   1.622  0.00  0.00    +0.026 C 
ATOM     14  C   UNL     1     -35.709  23.620   0.682  0.00  0.00    -0.025 C 
ATOM     15  C   UNL     1     -36.267  25.161   2.480  0.00  0.00    +0.168 C 
ATOM     16  C   UNL     1     -34.833  24.583   0.180  0.00  0.00    -0.001 C 
ATOM     17  C   UNL     1     -35.396  26.117   2.011  0.00  0.00    +0.167 C 
ATOM     18  C   UNL     1     -34.667  25.814   0.851  0.00  0.00    +0.039 C 
ATOM     19  H   UNL     1     -36.998  19.947   2.203  0.00  0.00    -0.080 HD
ENDROOT
BRANCH  10  21
ATOM     20  O   UNL     1     -40.916  27.055   1.779  0.00  0.00    -0.270 OA
ATOM     21  N   UNL     1     -40.208  25.469   3.322  0.00  0.00    -0.299 N 
ATOM     22  C   UNL     1     -40.948  26.559   2.901  0.00  0.00    +0.246 C 
ATOM     23  H   UNL     1     -40.315  25.156   4.249  0.00  0.00    +0.150 HD
BRANCH  22  24
ATOM     24  C   UNL     1     -41.817  27.092   3.988  0.00  0.00    +0.064 C 
ATOM     25  C   UNL     1     -42.570  28.175   3.765  0.00  0.00    +0.087 C 
BRANCH  25  27
ATOM     26  O   UNL     1     -44.551  28.295   5.119  0.00  0.00    -0.245 OA
ATOM     27  C   UNL     1     -43.431  28.697   4.849  0.00  0.00    +0.342 C 
BRANCH  27  28
ATOM     28  O   UNL     1     -42.745  29.690   5.477  0.00  0.00    -0.441 OA
ATOM     29  C   UNL     1     -43.529  30.540   6.321  0.00  0.00    +0.256 C 
ENDBRANCH  27  28
ENDBRANCH  25  27
ENDBRANCH  22  24
ENDBRANCH  10  21
BRANCH   4  30
ATOM     30  O   UNL     1     -38.845  21.189   2.363  0.00  0.00    -0.388 OA
ATOM     31  H   UNL     1     -38.306  20.404   2.550  0.00  0.00    +0.210 HD
ENDBRANCH   4  30
BRANCH  17  32
ATOM     32  O   UNL     1     -35.266  27.321   2.619  0.00  0.00    -0.503 OA
ATOM     33  H   UNL     1     -36.022  27.758   2.960  0.00  0.00    +0.292 HD
ENDBRANCH  17  32
BRANCH   2  34
ATOM     34  C   UNL     1     -35.352  19.530   1.130  0.00  0.00    -0.077 C 
BRANCH  34  35
ATOM     35  C   UNL     1     -33.949  19.685   1.622  0.00  0.00    -0.021 C 
ATOM     36  C   UNL     1     -32.956  18.604   1.328  0.00  0.00    -0.002 C 
ATOM     37  C   UNL     1     -32.857  19.928   0.628  0.00  0.00    -0.002 C 
ENDBRANCH  34  35
ENDBRANCH   2  34
TORSDOF 8
ENDMDL
MODEL 2
REMARK VINA RESULT:      -6.7      4.231      7.899
REMARK  Name = 5311018
REMARK  8 active torsions:
REMARK  status: ('A' for Active; 'I' for Inactive)
REMARK    1  A    between atoms: N_2  and  C_34
REMARK    2  A    between atoms: C_4  and  O_30
REMARK    3  A    between atoms: C_10  and  N_21
REMARK    4  A    between atoms: C_17  and  O_32
REMARK    5  A    between atoms: C_22  and  C_24
REMARK    6  A    between atoms: C_25  and  C_27
REMARK    7  A    between atoms: C_27  and  O_28
REMARK    8  A    between atoms: C_34  and  C_35
REMARK                            x       y       z     vdW  Elec       q    Type
REMARK                         _______ _______ _______ _____ _____    ______ ____
ROOT
ATOM      1  O   UNL     1     -35.594  21.213   2.824  0.00  0.00    -0.474 OA
ATOM      2  N   UNL     1     -34.905  26.189   1.540  0.00  0.00    +0.390 N 
ATOM      3  C   UNL     1     -35.797  23.454   1.942  0.00  0.00    +0.078 C 
ATOM      4  C   UNL     1     -36.757  24.567   1.500  0.00  0.00    +0.078 C 
ATOM      5  C   UNL     1     -36.228  25.891   2.146  0.00  0.00    -0.028 C 
ATOM      6  C   UNL     1     -36.237  21.989   1.743  0.00  0.00    +0.189 C 
ATOM      7  C   UNL     1     -34.384  23.740   1.380  0.00  0.00    -0.013 C 
ATOM      8  C   UNL     1     -35.713  23.413   3.429  0.00  0.00    +0.016 C 
ATOM      9  C   UNL     1     -38.221  24.235   1.828  0.00  0.00    +0.027 C 
ATOM     10  C   UNL     1     -37.765  21.742   1.841  0.00  0.00    +0.112 C 
ATOM     11  C   UNL     1     -36.227  25.828   3.714  0.00  0.00    +0.008 C 
ATOM     12  C   UNL     1     -33.887  25.153   1.746  0.00  0.00    -0.077 C 
ATOM     13  C   UNL     1     -38.607  22.872   1.244  0.00  0.00    +0.026 C 
ATOM     14  C   UNL     1     -35.838  24.490   4.286  0.00  0.00    -0.025 C 
ATOM     15  C   UNL     1     -35.522  22.116   3.861  0.00  0.00    +0.168 C 
ATOM     16  C   UNL     1     -35.680  24.229   5.647  0.00  0.00    -0.001 C 
ATOM     17  C   UNL     1     -35.347  21.839   5.197  0.00  0.00    +0.167 C 
ATOM     18  C   UNL     1     -35.419  22.915   6.094  0.00  0.00    +0.039 C 
ATOM     19  H   UNL     1     -35.102  26.188   0.539  0.00  0.00    -0.080 HD
ENDROOT
BRANCH  10  21
ATOM     20  O   UNL     1     -37.129  20.904  -0.849  0.00  0.00    -0.270 OA
ATOM     21  N   UNL     1     -38.106  20.482   1.217  0.00  0.00    -0.299 N 
ATOM     22  C   UNL     1     -37.753  20.175  -0.085  0.00  0.00    +0.246 C 
ATOM     23  H   UNL     1     -38.609  19.816   1.739  0.00  0.00    +0.150 HD
BRANCH  22  24
ATOM     24  C   UNL     1     -38.229  18.819  -0.482  0.00  0.00    +0.064 C 
ATOM     25  C   UNL     1     -37.571  17.734  -0.057  0.00  0.00    +0.087 C 
BRANCH  25  27
ATOM     26  O   UNL     1     -37.374  15.376  -0.477  0.00  0.00    -0.245 OA
ATOM     27  C   UNL     1     -38.050  16.392  -0.455  0.00  0.00    +0.342 C 
BRANCH  27  28
ATOM     28  O   UNL     1     -39.366  16.506  -0.783  0.00  0.00    -0.441 OA
ATOM     29  C   UNL     1     -40.107  15.281  -0.788  0.00  0.00    +0.256 C 
ENDBRANCH  27  28
ENDBRANCH  25  27
ENDBRANCH  22  24
ENDBRANCH  10  21
BRANCH   4  30
ATOM     30  O   UNL     1     -36.696  24.699   0.068  0.00  0.00    -0.388 OA
ATOM     31  H   UNL     1     -36.101  24.024  -0.294  0.00  0.00    +0.210 HD
ENDBRANCH   4  30
BRANCH  17  32
ATOM     32  O   UNL     1     -35.146  20.575   5.641  0.00  0.00    -0.503 OA
ATOM     33  H   UNL     1     -34.305  20.174   5.549  0.00  0.00    +0.292 HD
ENDBRANCH  17  32
BRANCH   2  34
ATOM     34  C   UNL     1     -34.393  27.514   1.871  0.00  0.00    -0.077 C 
BRANCH  34  35
ATOM     35  C   UNL     1     -33.092  27.427   2.601  0.00  0.00    -0.021 C 
ATOM     36  C   UNL     1     -32.492  28.678   3.160  0.00  0.00    -0.002 C 
ATOM     37  C   UNL     1     -33.077  27.646   4.080  0.00  0.00    -0.002 C 
ENDBRANCH  34  35
ENDBRANCH   2  34
TORSDOF 8
ENDMDL
MODEL 3
REMARK VINA RESULT:      -6.6      3.932      7.462
REMARK  Name = 5311018
REMARK  8 active torsions:
REMARK  status: ('A' for Active; 'I' for Inactive)
REMARK    1  A    between atoms: N_2  and  C_34
REMARK    2  A    between atoms: C_4  and  O_30
REMARK    3  A    between atoms: C_10  and  N_21
REMARK    4  A    between atoms: C_17  and  O_32
REMARK    5  A    between atoms: C_22  and  C_24
REMARK    6  A    between atoms: C_25  and  C_27
REMARK    7  A    between atoms: C_27  and  O_28
REMARK    8  A    between atoms: C_34  and  C_35
REMARK                            x       y       z     vdW  Elec       q    Type
REMARK                         _______ _______ _______ _____ _____    ______ ____
ROOT
ATOM      1  O   UNL     1     -35.707  22.213   2.379  0.00  0.00    -0.474 OA
ATOM      2  N   UNL     1     -34.205  27.172   2.591  0.00  0.00    +0.390 N 
ATOM      3  C   UNL     1     -35.540  24.620   2.215  0.00  0.00    +0.078 C 
ATOM      4  C   UNL     1     -36.303  25.950   2.179  0.00  0.00    +0.078 C 
ATOM      5  C   UNL     1     -35.556  26.916   3.157  0.00  0.00    -0.028 C 
ATOM      6  C   UNL     1     -36.220  23.371   1.616  0.00  0.00    +0.189 C 
ATOM      7  C   UNL     1     -34.103  24.836   1.683  0.00  0.00    -0.013 C 
ATOM      8  C   UNL     1     -35.451  24.119   3.615  0.00  0.00    +0.016 C 
ATOM      9  C   UNL     1     -37.799  25.769   2.479  0.00  0.00    +0.027 C 
ATOM     10  C   UNL     1     -37.766  23.349   1.725  0.00  0.00    +0.112 C 
ATOM     11  C   UNL     1     -35.552  26.384   4.633  0.00  0.00    +0.008 C 
ATOM     12  C   UNL     1     -33.374  25.976   2.422  0.00  0.00    -0.077 C 
ATOM     13  C   UNL     1     -38.412  24.724   1.540  0.00  0.00    +0.026 C 
ATOM     14  C   UNL     1     -35.388  24.892   4.759  0.00  0.00    -0.025 C 
ATOM     15  C   UNL     1     -35.477  22.738   3.631  0.00  0.00    +0.168 C 
ATOM     16  C   UNL     1     -35.266  24.210   5.970  0.00  0.00    -0.001 C 
ATOM     17  C   UNL     1     -35.341  22.047   4.813  0.00  0.00    +0.167 C 
ATOM     18  C   UNL     1     -35.225  22.799   5.992  0.00  0.00    +0.039 C 
ATOM     19  H   UNL     1     -34.408  27.504   1.648  0.00  0.00    -0.080 HD
ENDROOT
BRANCH  10  21
ATOM     20  O   UNL     1     -40.077  21.656   2.097  0.00  0.00    -0.270 OA
ATOM     21  N   UNL     1     -38.318  22.407   0.776  0.00  0.00    -0.299 N 
ATOM     22  C   UNL     1     -39.435  21.637   1.052  0.00  0.00    +0.246 C 
ATOM     23  H   UNL     1     -37.882  22.308  -0.101  0.00  0.00    +0.150 HD
BRANCH  22  24
ATOM     24  C   UNL     1     -39.791  20.749  -0.091  0.00  0.00    +0.064 C 
ATOM     25  C   UNL     1     -38.907  19.842  -0.527  0.00  0.00    +0.087 C 
BRANCH  25  27
ATOM     26  O   UNL     1     -39.145  19.246  -2.843  0.00  0.00    -0.245 OA
ATOM     27  C   UNL     1     -39.269  18.965  -1.661  0.00  0.00    +0.342 C 
BRANCH  27  28
ATOM     28  O   UNL     1     -39.755  17.803  -1.145  0.00  0.00    -0.441 OA
ATOM     29  C   UNL     1     -38.801  16.745  -1.003  0.00  0.00    +0.256 C 
ENDBRANCH  27  28
ENDBRANCH  25  27
ENDBRANCH  22  24
ENDBRANCH  10  21
BRANCH   4  30
ATOM     30  O   UNL     1     -36.232  26.497   0.850  0.00  0.00    -0.388 OA
ATOM     31  H   UNL     1     -36.596  25.859   0.217  0.00  0.00    +0.210 HD
ENDBRANCH   4  30
BRANCH  17  32
ATOM     32  O   UNL     1     -35.351  20.693   4.850  0.00  0.00    -0.503 OA
ATOM     33  H   UNL     1     -34.573  20.224   5.080  0.00  0.00    +0.292 HD
ENDBRANCH  17  32
BRANCH   2  34
ATOM     34  C   UNL     1     -33.477  28.237   3.271  0.00  0.00    -0.077 C 
BRANCH  34  35
ATOM     35  C   UNL     1     -32.334  27.693   4.064  0.00  0.00    -0.021 C 
ATOM     36  C   UNL     1     -31.202  28.605   4.420  0.00  0.00    -0.002 C 
ATOM     37  C   UNL     1     -32.158  28.142   5.480  0.00  0.00    -0.002 C 
ENDBRANCH  34  35
ENDBRANCH   2  34
TORSDOF 8
ENDMDL
MODEL 4
REMARK VINA RESULT:      -6.6      1.623      2.158
REMARK  Name = 5311018
REMARK  8 active torsions:
REMARK  status: ('A' for Active; 'I' for Inactive)
REMARK    1  A    between atoms: N_2  and  C_34
REMARK    2  A    between atoms: C_4  and  O_30
REMARK    3  A    between atoms: C_10  and  N_21
REMARK    4  A    between atoms: C_17  and  O_32
REMARK    5  A    between atoms: C_22  and  C_24
REMARK    6  A    between atoms: C_25  and  C_27
REMARK    7  A    between atoms: C_27  and  O_28
REMARK    8  A    between atoms: C_34  and  C_35
REMARK                            x       y       z     vdW  Elec       q    Type
REMARK                         _______ _______ _______ _____ _____    ______ ____
ROOT
ATOM      1  O   UNL     1     -37.923  24.433   4.026  0.00  0.00    -0.474 OA
ATOM      2  N   UNL     1     -35.126  21.145   1.153  0.00  0.00    +0.390 N 
ATOM      3  C   UNL     1     -37.032  23.031   2.269  0.00  0.00    +0.078 C 
ATOM      4  C   UNL     1     -36.880  22.827   0.756  0.00  0.00    +0.078 C 
ATOM      5  C   UNL     1     -35.380  22.459   0.507  0.00  0.00    -0.028 C 
ATOM      6  C   UNL     1     -38.309  23.723   2.789  0.00  0.00    +0.189 C 
ATOM      7  C   UNL     1     -36.728  21.702   3.002  0.00  0.00    -0.013 C 
ATOM      8  C   UNL     1     -36.067  24.061   2.746  0.00  0.00    +0.016 C 
ATOM      9  C   UNL     1     -37.384  24.037  -0.046  0.00  0.00    +0.027 C 
ATOM     10  C   UNL     1     -38.926  24.771   1.827  0.00  0.00    +0.112 C 
ATOM     11  C   UNL     1     -34.404  23.604   0.956  0.00  0.00    +0.008 C 
ATOM     12  C   UNL     1     -35.359  21.118   2.601  0.00  0.00    -0.077 C 
ATOM     13  C   UNL     1     -38.824  24.382   0.350  0.00  0.00    +0.026 C 
ATOM     14  C   UNL     1     -34.817  24.319   2.216  0.00  0.00    -0.025 C 
ATOM     15  C   UNL     1     -36.609  24.775   3.796  0.00  0.00    +0.168 C 
ATOM     16  C   UNL     1     -34.060  25.305   2.848  0.00  0.00    -0.001 C 
ATOM     17  C   UNL     1     -35.872  25.738   4.445  0.00  0.00    +0.167 C 
ATOM     18  C   UNL     1     -34.579  25.995   3.965  0.00  0.00    +0.039 C 
ATOM     19  H   UNL     1     -35.842  20.544   0.746  0.00  0.00    -0.080 HD
ENDROOT
BRANCH  10  21
ATOM     20  O   UNL     1     -40.373  27.256   1.546  0.00  0.00    -0.270 OA
ATOM     21  N   UNL     1     -40.306  25.021   2.183  0.00  0.00    -0.299 N 
ATOM     22  C   UNL     1     -40.910  26.254   2.008  0.00  0.00    +0.246 C 
ATOM     23  H   UNL     1     -40.837  24.286   2.564  0.00  0.00    +0.150 HD
BRANCH  22  24
ATOM     24  C   UNL     1     -42.331  26.243   2.458  0.00  0.00    +0.064 C 
ATOM     25  C   UNL     1     -42.685  26.918   3.558  0.00  0.00    +0.087 C 
BRANCH  25  27
ATOM     26  O   UNL     1     -44.551  27.517   4.949  0.00  0.00    -0.245 OA
ATOM     27  C   UNL     1     -44.097  26.901   3.997  0.00  0.00    +0.342 C 
BRANCH  27  28
ATOM     28  O   UNL     1     -44.782  26.084   3.152  0.00  0.00    -0.441 OA
ATOM     29  C   UNL     1     -45.973  25.501   3.690  0.00  0.00    +0.256 C 
ENDBRANCH  27  28
ENDBRANCH  25  27
ENDBRANCH  22  24
ENDBRANCH  10  21
BRANCH   4  30
ATOM     30  O   UNL     1     -37.699  21.716   0.348  0.00  0.00    -0.388 OA
ATOM     31  H   UNL     1     -38.055  21.885  -0.538  0.00  0.00    +0.210 HD
ENDBRANCH   4  30
BRANCH  17  32
ATOM     32  O   UNL     1     -36.380  26.442   5.486  0.00  0.00    -0.503 OA
ATOM     33  H   UNL     1     -36.092  27.319   5.644  0.00  0.00    +0.292 HD
ENDBRANCH  17  32
BRANCH   2  34
ATOM     34  C   UNL     1     -33.834  20.562   0.808  0.00  0.00    -0.077 C 
BRANCH  34  35
ATOM     35  C   UNL     1     -33.644  19.235   1.468  0.00  0.00    -0.021 C 
ATOM     36  C   UNL     1     -33.694  17.997   0.629  0.00  0.00    -0.002 C 
ATOM     37  C   UNL     1     -32.388  18.468   1.200  0.00  0.00    -0.002 C 
ENDBRANCH  34  35
ENDBRANCH   2  34
TORSDOF 8
ENDMDL
MODEL 5
REMARK VINA RESULT:      -6.4      3.865      6.963
REMARK  Name = 5311018
REMARK  8 active torsions:
REMARK  status: ('A' for Active; 'I' for Inactive)
REMARK    1  A    between atoms: N_2  and  C_34
REMARK    2  A    between atoms: C_4  and  O_30
REMARK    3  A    between atoms: C_10  and  N_21
REMARK    4  A    between atoms: C_17  and  O_32
REMARK    5  A    between atoms: C_22  and  C_24
REMARK    6  A    between atoms: C_25  and  C_27
REMARK    7  A    between atoms: C_27  and  O_28
REMARK    8  A    between atoms: C_34  and  C_35
REMARK                            x       y       z     vdW  Elec       q    Type
REMARK                         _______ _______ _______ _____ _____    ______ ____
ROOT
ATOM      1  O   UNL     1     -35.809  22.268   2.334  0.00  0.00    -0.474 OA
ATOM      2  N   UNL     1     -34.297  27.211   2.736  0.00  0.00    +0.390 N 
ATOM      3  C   UNL     1     -35.646  24.679   2.285  0.00  0.00    +0.078 C 
ATOM      4  C   UNL     1     -36.410  26.009   2.345  0.00  0.00    +0.078 C 
ATOM      5  C   UNL     1     -35.624  26.926   3.340  0.00  0.00    -0.028 C 
ATOM      6  C   UNL     1     -36.350  23.461   1.651  0.00  0.00    +0.189 C 
ATOM      7  C   UNL     1     -34.231  24.924   1.708  0.00  0.00    -0.013 C 
ATOM      8  C   UNL     1     -35.504  24.109   3.653  0.00  0.00    +0.016 C 
ATOM      9  C   UNL     1     -37.893  25.811   2.693  0.00  0.00    +0.027 C 
ATOM     10  C   UNL     1     -37.891  23.432   1.818  0.00  0.00    +0.112 C 
ATOM     11  C   UNL     1     -35.563  26.320   4.787  0.00  0.00    +0.008 C 
ATOM     12  C   UNL     1     -33.473  26.026   2.475  0.00  0.00    -0.077 C 
ATOM     13  C   UNL     1     -38.543  24.814   1.728  0.00  0.00    +0.026 C 
ATOM     14  C   UNL     1     -35.395  24.823   4.831  0.00  0.00    -0.025 C 
ATOM     15  C   UNL     1     -35.530  22.729   3.601  0.00  0.00    +0.168 C 
ATOM     16  C   UNL     1     -35.226  24.082   6.000  0.00  0.00    -0.001 C 
ATOM     17  C   UNL     1     -35.348  21.980   4.740  0.00  0.00    +0.167 C 
ATOM     18  C   UNL     1     -35.186  22.671   5.949  0.00  0.00    +0.039 C 
ATOM     19  H   UNL     1     -34.535  27.590   1.819  0.00  0.00    -0.080 HD
ENDROOT
BRANCH  10  21
ATOM     20  O   UNL     1     -40.063  21.577   2.251  0.00  0.00    -0.270 OA
ATOM     21  N   UNL     1     -38.480  22.538   0.845  0.00  0.00    -0.299 N 
ATOM     22  C   UNL     1     -39.523  21.682   1.154  0.00  0.00    +0.246 C 
ATOM     23  H   UNL     1     -38.125  22.537  -0.073  0.00  0.00    +0.150 HD
BRANCH  22  24
ATOM     24  C   UNL     1     -39.939  20.869  -0.024  0.00  0.00    +0.064 C 
ATOM     25  C   UNL     1     -41.139  21.072  -0.581  0.00  0.00    +0.087 C 
BRANCH  25  27
ATOM     26  O   UNL     1     -41.311  20.535  -2.917  0.00  0.00    -0.245 OA
ATOM     27  C   UNL     1     -41.543  20.261  -1.750  0.00  0.00    +0.342 C 
BRANCH  27  28
ATOM     28  O   UNL     1     -42.210  19.170  -1.284  0.00  0.00    -0.441 OA
ATOM     29  C   UNL     1     -43.513  19.426  -0.751  0.00  0.00    +0.256 C 
ENDBRANCH  27  28
ENDBRANCH  25  27
ENDBRANCH  22  24
ENDBRANCH  10  21
BRANCH   4  30
ATOM     30  O   UNL     1     -36.390  26.622   1.043  0.00  0.00    -0.388 OA
ATOM     31  H   UNL     1     -37.218  26.423   0.579  0.00  0.00    +0.210 HD
ENDBRANCH   4  30
BRANCH  17  32
ATOM     32  O   UNL     1     -35.357  20.625   4.709  0.00  0.00    -0.503 OA
ATOM     33  H   UNL     1     -36.104  20.154   5.024  0.00  0.00    +0.292 HD
ENDBRANCH  17  32
BRANCH   2  34
ATOM     34  C   UNL     1     -33.542  28.242   3.439  0.00  0.00    -0.077 C 
BRANCH  34  35
ATOM     35  C   UNL     1     -32.411  27.651   4.218  0.00  0.00    -0.021 C 
ATOM     36  C   UNL     1     -31.230  28.510   4.542  0.00  0.00    -0.002 C 
ATOM     37  C   UNL     1     -32.187  28.106   5.625  0.00  0.00    -0.002 C 
ENDBRANCH  34  35
ENDBRANCH   2  34
TORSDOF 8
ENDMDL
MODEL 6
REMARK VINA RESULT:      -6.3      4.955      8.214
REMARK  Name = 5311018
REMARK  8 active torsions:
REMARK  status: ('A' for Active; 'I' for Inactive)
REMARK    1  A    between atoms: N_2  and  C_34
REMARK    2  A    between atoms: C_4  and  O_30
REMARK    3  A    between atoms: C_10  and  N_21
REMARK    4  A    between atoms: C_17  and  O_32
REMARK    5  A    between atoms: C_22  and  C_24
REMARK    6  A    between atoms: C_25  and  C_27
REMARK    7  A    between atoms: C_27  and  O_28
REMARK    8  A    between atoms: C_34  and  C_35
REMARK                            x       y       z     vdW  Elec       q    Type
REMARK                         _______ _______ _______ _____ _____    ______ ____
ROOT
ATOM      1  O   UNL     1     -32.611  28.210   2.646  0.00  0.00    -0.474 OA
ATOM      2  N   UNL     1     -35.206  23.730   2.349  0.00  0.00    +0.390 N 
ATOM      3  C   UNL     1     -33.719  26.110   3.100  0.00  0.00    +0.078 C 
ATOM      4  C   UNL     1     -34.489  25.272   4.130  0.00  0.00    +0.078 C 
ATOM      5  C   UNL     1     -35.722  24.670   3.378  0.00  0.00    -0.028 C 
ATOM      6  C   UNL     1     -32.646  27.093   3.613  0.00  0.00    +0.189 C 
ATOM      7  C   UNL     1     -33.199  25.187   1.971  0.00  0.00    -0.013 C 
ATOM      8  C   UNL     1     -34.619  27.130   2.495  0.00  0.00    +0.016 C 
ATOM      9  C   UNL     1     -34.839  26.079   5.390  0.00  0.00    +0.027 C 
ATOM     10  C   UNL     1     -32.927  27.700   5.013  0.00  0.00    +0.112 C 
ATOM     11  C   UNL     1     -36.681  25.781   2.823  0.00  0.00    +0.008 C 
ATOM     12  C   UNL     1     -34.326  24.341   1.347  0.00  0.00    -0.077 C 
ATOM     13  C   UNL     1     -33.579  26.717   5.987  0.00  0.00    +0.026 C 
ATOM     14  C   UNL     1     -35.979  27.001   2.286  0.00  0.00    -0.025 C 
ATOM     15  C   UNL     1     -33.909  28.275   2.193  0.00  0.00    +0.168 C 
ATOM     16  C   UNL     1     -36.621  28.071   1.662  0.00  0.00    -0.001 C 
ATOM     17  C   UNL     1     -34.520  29.334   1.562  0.00  0.00    +0.167 C 
ATOM     18  C   UNL     1     -35.891  29.220   1.288  0.00  0.00    +0.039 C 
ATOM     19  H   UNL     1     -34.615  23.097   2.888  0.00  0.00    -0.080 HD
ENDROOT
BRANCH  10  21
ATOM     20  O   UNL     1     -32.373  30.450   5.700  0.00  0.00    -0.270 OA
ATOM     21  N   UNL     1     -31.704  28.228   5.580  0.00  0.00    -0.299 N 
ATOM     22  C   UNL     1     -31.537  29.569   5.875  0.00  0.00    +0.246 C 
ATOM     23  H   UNL     1     -30.962  27.608   5.763  0.00  0.00    +0.150 HD
BRANCH  22  24
ATOM     24  C   UNL     1     -30.188  29.846   6.444  0.00  0.00    +0.064 C 
ATOM     25  C   UNL     1     -29.578  28.917   7.190  0.00  0.00    +0.087 C 
BRANCH  25  27
ATOM     26  O   UNL     1     -28.001  29.984   8.655  0.00  0.00    -0.245 OA
ATOM     27  C   UNL     1     -28.239  29.200   7.750  0.00  0.00    +0.342 C 
BRANCH  27  28
ATOM     28  O   UNL     1     -27.340  28.432   7.077  0.00  0.00    -0.441 OA
ATOM     29  C   UNL     1     -27.616  27.027   7.067  0.00  0.00    +0.256 C 
ENDBRANCH  27  28
ENDBRANCH  25  27
ENDBRANCH  22  24
ENDBRANCH  10  21
BRANCH   4  30
ATOM     30  O   UNL     1     -33.650  24.190   4.577  0.00  0.00    -0.388 OA
ATOM     31  H   UNL     1     -33.304  24.393   5.460  0.00  0.00    +0.210 HD
ENDBRANCH   4  30
BRANCH  17  32
ATOM     32  O   UNL     1     -33.839  30.462   1.244  0.00  0.00    -0.503 OA
ATOM     33  H   UNL     1     -33.623  31.084   1.911  0.00  0.00    +0.292 HD
ENDBRANCH  17  32
BRANCH   2  34
ATOM     34  C   UNL     1     -36.243  22.917   1.725  0.00  0.00    -0.077 C 
BRANCH  34  35
ATOM     35  C   UNL     1     -36.267  21.536   2.295  0.00  0.00    -0.021 C 
ATOM     36  C   UNL     1     -35.080  20.648   2.087  0.00  0.00    -0.002 C 
ATOM     37  C   UNL     1     -35.369  21.214   3.447  0.00  0.00    -0.002 C 
ENDBRANCH  34  35
ENDBRANCH   2  34
TORSDOF 8
ENDMDL
MODEL 7
REMARK VINA RESULT:      -6.2      5.205      9.219
REMARK  Name = 5311018
REMARK  8 active torsions:
REMARK  status: ('A' for Active; 'I' for Inactive)
REMARK    1  A    between atoms: N_2  and  C_34
REMARK    2  A    between atoms: C_4  and  O_30
REMARK    3  A    between atoms: C_10  and  N_21
REMARK    4  A    between atoms: C_17  and  O_32
REMARK    5  A    between atoms: C_22  and  C_24
REMARK    6  A    between atoms: C_25  and  C_27
REMARK    7  A    between atoms: C_27  and  O_28
REMARK    8  A    between atoms: C_34  and  C_35
REMARK                            x       y       z     vdW  Elec       q    Type
REMARK                         _______ _______ _______ _____ _____    ______ ____
ROOT
ATOM      1  O   UNL     1     -32.476  26.834   4.271  0.00  0.00    -0.474 OA
ATOM      2  N   UNL     1     -31.713  30.880   1.118  0.00  0.00    +0.390 N 
ATOM      3  C   UNL     1     -32.683  28.596   2.628  0.00  0.00    +0.078 C 
ATOM      4  C   UNL     1     -33.635  29.556   1.904  0.00  0.00    +0.078 C 
ATOM      5  C   UNL     1     -32.953  30.964   1.934  0.00  0.00    -0.028 C 
ATOM      6  C   UNL     1     -33.222  27.214   3.053  0.00  0.00    +0.189 C 
ATOM      7  C   UNL     1     -31.349  28.508   1.848  0.00  0.00    -0.013 C 
ATOM      8  C   UNL     1     -32.393  29.102   3.999  0.00  0.00    +0.016 C 
ATOM      9  C   UNL     1     -35.054  29.521   2.492  0.00  0.00    +0.027 C 
ATOM     10  C   UNL     1     -34.732  27.178   3.405  0.00  0.00    +0.112 C 
ATOM     11  C   UNL     1     -32.735  31.489   3.397  0.00  0.00    +0.008 C 
ATOM     12  C   UNL     1     -30.733  29.897   1.591  0.00  0.00    -0.077 C 
ATOM     13  C   UNL     1     -35.589  28.085   2.518  0.00  0.00    +0.026 C 
ATOM     14  C   UNL     1     -32.340  30.427   4.389  0.00  0.00    -0.025 C 
ATOM     15  C   UNL     1     -32.212  28.046   4.870  0.00  0.00    +0.168 C 
ATOM     16  C   UNL     1     -32.008  30.674   5.721  0.00  0.00    -0.001 C 
ATOM     17  C   UNL     1     -31.867  28.268   6.182  0.00  0.00    +0.167 C 
ATOM     18  C   UNL     1     -31.756  29.602   6.604  0.00  0.00    +0.039 C 
ATOM     19  H   UNL     1     -32.048  30.528   0.222  0.00  0.00    -0.080 HD
ENDROOT
BRANCH  10  21
ATOM     20  O   UNL     1     -35.994  25.696   5.539  0.00  0.00    -0.270 OA
ATOM     21  N   UNL     1     -35.222  25.818   3.350  0.00  0.00    -0.299 N 
ATOM     22  C   UNL     1     -35.815  25.194   4.434  0.00  0.00    +0.246 C 
ATOM     23  H   UNL     1     -35.131  25.315   2.508  0.00  0.00    +0.150 HD
BRANCH  22  24
ATOM     24  C   UNL     1     -36.226  23.798   4.112  0.00  0.00    +0.064 C 
ATOM     25  C   UNL     1     -35.382  22.992   3.455  0.00  0.00    +0.087 C 
BRANCH  25  27
ATOM     26  O   UNL     1     -35.265  20.595   3.564  0.00  0.00    -0.245 OA
ATOM     27  C   UNL     1     -35.798  21.608   3.140  0.00  0.00    +0.342 C 
BRANCH  27  28
ATOM     28  O   UNL     1     -36.870  21.680   2.305  0.00  0.00    -0.441 OA
ATOM     29  C   UNL     1     -36.999  20.600   1.375  0.00  0.00    +0.256 C 
ENDBRANCH  27  28
ENDBRANCH  25  27
ENDBRANCH  22  24
ENDBRANCH  10  21
BRANCH   4  30
ATOM     30  O   UNL     1     -33.768  29.140   0.532  0.00  0.00    -0.388 OA
ATOM     31  H   UNL     1     -34.706  29.135   0.285  0.00  0.00    +0.210 HD
ENDBRANCH   4  30
BRANCH  17  32
ATOM     32  O   UNL     1     -31.672  27.246   7.050  0.00  0.00    -0.503 OA
ATOM     33  H   UNL     1     -31.474  26.389   6.729  0.00  0.00    +0.292 HD
ENDBRANCH  17  32
BRANCH   2  34
ATOM     34  C   UNL     1     -31.092  32.174   0.861  0.00  0.00    -0.077 C 
BRANCH  34  35
ATOM     35  C   UNL     1     -29.741  32.264   1.495  0.00  0.00    -0.021 C 
ATOM     36  C   UNL     1     -28.924  33.499   1.284  0.00  0.00    -0.002 C 
ATOM     37  C   UNL     1     -29.536  33.221   2.626  0.00  0.00    -0.002 C 
ENDBRANCH  34  35
ENDBRANCH   2  34
TORSDOF 8
ENDMDL
MODEL 8
REMARK VINA RESULT:      -6.2      3.263      6.178
REMARK  Name = 5311018
REMARK  8 active torsions:
REMARK  status: ('A' for Active; 'I' for Inactive)
REMARK    1  A    between atoms: N_2  and  C_34
REMARK    2  A    between atoms: C_4  and  O_30
REMARK    3  A    between atoms: C_10  and  N_21
REMARK    4  A    between atoms: C_17  and  O_32
REMARK    5  A    between atoms: C_22  and  C_24
REMARK    6  A    between atoms: C_25  and  C_27
REMARK    7  A    between atoms: C_27  and  O_28
REMARK    8  A    between atoms: C_34  and  C_35
REMARK                            x       y       z     vdW  Elec       q    Type
REMARK                         _______ _______ _______ _____ _____    ______ ____
ROOT
ATOM      1  O   UNL     1     -36.329  25.286   2.641  0.00  0.00    -0.474 OA
ATOM      2  N   UNL     1     -36.429  20.718   0.189  0.00  0.00    +0.390 N 
ATOM      3  C   UNL     1     -36.039  22.983   1.965  0.00  0.00    +0.078 C 
ATOM      4  C   UNL     1     -35.819  21.537   2.430  0.00  0.00    +0.078 C 
ATOM      5  C   UNL     1     -36.825  20.654   1.620  0.00  0.00    -0.028 C 
ATOM      6  C   UNL     1     -35.434  24.123   2.811  0.00  0.00    +0.189 C 
ATOM      7  C   UNL     1     -35.689  23.100   0.462  0.00  0.00    -0.013 C 
ATOM      8  C   UNL     1     -37.466  23.367   2.147  0.00  0.00    +0.016 C 
ATOM      9  C   UNL     1     -35.927  21.396   3.956  0.00  0.00    +0.027 C 
ATOM     10  C   UNL     1     -35.337  23.832   4.331  0.00  0.00    +0.112 C 
ATOM     11  C   UNL     1     -38.319  21.045   1.900  0.00  0.00    +0.008 C 
ATOM     12  C   UNL     1     -36.447  22.064  -0.393  0.00  0.00    -0.077 C 
ATOM     13  C   UNL     1     -34.982  22.379   4.655  0.00  0.00    +0.026 C 
ATOM     14  C   UNL     1     -38.558  22.524   2.061  0.00  0.00    -0.025 C 
ATOM     15  C   UNL     1     -37.565  24.708   2.457  0.00  0.00    +0.168 C 
ATOM     16  C   UNL     1     -39.814  23.107   2.225  0.00  0.00    -0.001 C 
ATOM     17  C   UNL     1     -38.795  25.307   2.605  0.00  0.00    +0.167 C 
ATOM     18  C   UNL     1     -39.929  24.492   2.477  0.00  0.00    +0.039 C 
ATOM     19  H   UNL     1     -35.448  20.437   0.207  0.00  0.00    -0.080 HD
ENDROOT
BRANCH  10  21
ATOM     20  O   UNL     1     -35.920  26.251   5.798  0.00  0.00    -0.270 OA
ATOM     21  N   UNL     1     -34.383  24.728   4.949  0.00  0.00    -0.299 N 
ATOM     22  C   UNL     1     -34.766  25.868   5.633  0.00  0.00    +0.246 C 
ATOM     23  H   UNL     1     -33.424  24.519   4.880  0.00  0.00    +0.150 HD
BRANCH  22  24
ATOM     24  C   UNL     1     -33.591  26.614   6.167  0.00  0.00    +0.064 C 
ATOM     25  C   UNL     1     -32.911  27.443   5.366  0.00  0.00    +0.087 C 
BRANCH  25  27
ATOM     26  O   UNL     1     -30.603  27.755   5.958  0.00  0.00    -0.245 OA
ATOM     27  C   UNL     1     -31.747  28.179   5.904  0.00  0.00    +0.342 C 
BRANCH  27  28
ATOM     28  O   UNL     1     -32.186  29.399   6.318  0.00  0.00    -0.441 OA
ATOM     29  C   UNL     1     -32.205  30.420   5.315  0.00  0.00    +0.256 C 
ENDBRANCH  27  28
ENDBRANCH  25  27
ENDBRANCH  22  24
ENDBRANCH  10  21
BRANCH   4  30
ATOM     30  O   UNL     1     -34.479  21.134   2.092  0.00  0.00    -0.388 OA
ATOM     31  H   UNL     1     -34.498  20.590   1.289  0.00  0.00    +0.210 HD
ENDBRANCH   4  30
BRANCH  17  32
ATOM     32  O   UNL     1     -38.915  26.625   2.897  0.00  0.00    -0.503 OA
ATOM     33  H   UNL     1     -39.197  26.892   3.750  0.00  0.00    +0.292 HD
ENDBRANCH  17  32
BRANCH   2  34
ATOM     34  C   UNL     1     -37.131  19.760  -0.657  0.00  0.00    -0.077 C 
BRANCH  34  35
ATOM     35  C   UNL     1     -38.054  20.451  -1.608  0.00  0.00    -0.021 C 
ATOM     36  C   UNL     1     -38.645  19.668  -2.738  0.00  0.00    -0.002 C 
ATOM     37  C   UNL     1     -39.508  20.100  -1.588  0.00  0.00    -0.002 C 
ENDBRANCH  34  35
ENDBRANCH   2  34
TORSDOF 8
ENDMDL
MODEL 9
REMARK VINA RESULT:      -6.0      4.589      5.805
REMARK  Name = 5311018
REMARK  8 active torsions:
REMARK  status: ('A' for Active; 'I' for Inactive)
REMARK    1  A    between atoms: N_2  and  C_34
REMARK    2  A    between atoms: C_4  and  O_30
REMARK    3  A    between atoms: C_10  and  N_21
REMARK    4  A    between atoms: C_17  and  O_32
REMARK    5  A    between atoms: C_22  and  C_24
REMARK    6  A    between atoms: C_25  and  C_27
REMARK    7  A    between atoms: C_27  and  O_28
REMARK    8  A    between atoms: C_34  and  C_35
REMARK                            x       y       z     vdW  Elec       q    Type
REMARK                         _______ _______ _______ _____ _____    ______ ____
ROOT
ATOM      1  O   UNL     1     -34.055  22.915   0.814  0.00  0.00    -0.474 OA
ATOM      2  N   UNL     1     -36.343  18.287   0.327  0.00  0.00    +0.390 N 
ATOM      3  C   UNL     1     -35.477  20.970   1.024  0.00  0.00    +0.078 C 
ATOM      4  C   UNL     1     -36.872  20.446   1.387  0.00  0.00    +0.078 C 
ATOM      5  C   UNL     1     -37.276  19.442   0.257  0.00  0.00    -0.028 C 
ATOM      6  C   UNL     1     -34.950  22.219   1.762  0.00  0.00    +0.189 C 
ATOM      7  C   UNL     1     -34.467  19.797   1.031  0.00  0.00    -0.013 C 
ATOM      8  C   UNL     1     -35.494  21.566  -0.341  0.00  0.00    +0.016 C 
ATOM      9  C   UNL     1     -37.877  21.584   1.621  0.00  0.00    +0.027 C 
ATOM     10  C   UNL     1     -36.040  23.231   2.199  0.00  0.00    +0.112 C 
ATOM     11  C   UNL     1     -37.354  20.130  -1.151  0.00  0.00    +0.008 C 
ATOM     12  C   UNL     1     -34.929  18.627   0.139  0.00  0.00    -0.077 C 
ATOM     13  C   UNL     1     -37.339  22.570   2.663  0.00  0.00    +0.026 C 
ATOM     14  C   UNL     1     -36.293  21.171  -1.397  0.00  0.00    -0.025 C 
ATOM     15  C   UNL     1     -34.607  22.622  -0.413  0.00  0.00    +0.168 C 
ATOM     16  C   UNL     1     -36.113  21.845  -2.605  0.00  0.00    -0.001 C 
ATOM     17  C   UNL     1     -34.402  23.288  -1.599  0.00  0.00    +0.167 C 
ATOM     18  C   UNL     1     -35.161  22.883  -2.707  0.00  0.00    +0.039 C 
ATOM     19  H   UNL     1     -36.427  17.979   1.297  0.00  0.00    -0.080 HD
ENDROOT
BRANCH  10  21
ATOM     20  O   UNL     1     -36.042  22.738   5.046  0.00  0.00    -0.270 OA
ATOM     21  N   UNL     1     -35.524  24.100   3.235  0.00  0.00    -0.299 N 
ATOM     22  C   UNL     1     -35.573  23.771   4.579  0.00  0.00    +0.246 C 
ATOM     23  H   UNL     1     -35.122  24.960   2.975  0.00  0.00    +0.150 HD
BRANCH  22  24
ATOM     24  C   UNL     1     -34.979  24.838   5.432  0.00  0.00    +0.064 C 
ATOM     25  C   UNL     1     -34.075  25.678   4.912  0.00  0.00    +0.087 C 
BRANCH  25  27
ATOM     26  O   UNL     1     -33.268  26.637   6.962  0.00  0.00    -0.245 OA
ATOM     27  C   UNL     1     -33.491  26.735   5.766  0.00  0.00    +0.342 C 
BRANCH  27  28
ATOM     28  O   UNL     1     -33.254  27.818   4.976  0.00  0.00    -0.441 OA
ATOM     29  C   UNL     1     -33.335  27.581   3.567  0.00  0.00    +0.256 C 
ENDBRANCH  27  28
ENDBRANCH  25  27
ENDBRANCH  22  24
ENDBRANCH  10  21
BRANCH   4  30
ATOM     30  O   UNL     1     -36.795  19.728   2.633  0.00  0.00    -0.388 OA
ATOM     31  H   UNL     1     -37.612  19.865   3.136  0.00  0.00    +0.210 HD
ENDBRANCH   4  30
BRANCH  17  32
ATOM     32  O   UNL     1     -33.527  24.318  -1.695  0.00  0.00    -0.503 OA
ATOM     33  H   UNL     1     -33.369  24.869  -0.954  0.00  0.00    +0.292 HD
ENDBRANCH  17  32
BRANCH   2  34
ATOM     34  C   UNL     1     -36.739  17.162  -0.512  0.00  0.00    -0.077 C 
BRANCH  34  35
ATOM     35  C   UNL     1     -38.193  16.854  -0.358  0.00  0.00    -0.021 C 
ATOM     36  C   UNL     1     -38.989  16.497  -1.574  0.00  0.00    -0.002 C 
ATOM     37  C   UNL     1     -38.659  15.446  -0.554  0.00  0.00    -0.002 C 
ENDBRANCH  34  35
ENDBRANCH   2  34
TORSDOF 8
ENDMDL
