MODEL 1
REMARK VINA RESULT:      -6.9      0.000      0.000
REMARK  Name = 53360482
REMARK  14 active torsions:
REMARK  status: ('A' for Active; 'I' for Inactive)
REMARK    1  A    between atoms: C_1  and  C_3
REMARK    2  A    between atoms: C_1  and  C_16
REMARK    3  A    between atoms: C_1  and  O_32
REMARK    4  A    between atoms: C_5  and  O_9
REMARK    5  A    between atoms: C_6  and  O_11
REMARK    6  A    between atoms: C_7  and  C_13
REMARK    7  A    between atoms: C_13  and  O_14
REMARK    8  A    between atoms: C_17  and  C_19
REMARK    9  A    between atoms: C_19  and  O_20
REMARK   10  A    between atoms: C_19  and  C_22
REMARK   11  A    between atoms: C_22  and  C_23
REMARK   12  A    between atoms: C_24  and  C_26
REMARK   13  A    between atoms: C_26  and  C_27
REMARK   14  A    between atoms: C_27  and  C_28
REMARK                            x       y       z     vdW  Elec       q    Type
REMARK                         _______ _______ _______ _____ _____    ______ ____
ROOT
ATOM      1  C   UNL     1     -35.845  26.707   2.638  0.00  0.00    +0.162 C 
ENDROOT
BRANCH   1   3
ATOM      2  O   UNL     1     -34.354  24.809   2.940  0.00  0.00    -0.348 OA
ATOM      3  C   UNL     1     -35.464  25.534   3.496  0.00  0.00    +0.177 C 
ATOM      4  C   UNL     1     -35.630  24.148   2.942  0.00  0.00    +0.176 C 
ATOM      5  C   UNL     1     -35.378  25.746   4.975  0.00  0.00    +0.162 C 
ATOM      6  C   UNL     1     -35.710  22.969   3.867  0.00  0.00    +0.160 C 
ATOM      7  C   UNL     1     -35.484  23.252   5.337  0.00  0.00    +0.012 C 
ATOM      8  C   UNL     1     -35.340  24.501   5.816  0.00  0.00    +0.001 C 
BRANCH   5   9
ATOM      9  O   UNL     1     -36.507  26.501   5.421  0.00  0.00    -0.377 OA
ATOM     10  H   UNL     1     -37.212  25.895   5.697  0.00  0.00    +0.211 HD
ENDBRANCH   5   9
BRANCH   6  11
ATOM     11  O   UNL     1     -37.003  22.374   3.733  0.00  0.00    -0.378 OA
ATOM     12  H   UNL     1     -36.916  21.409   3.725  0.00  0.00    +0.211 HD
ENDBRANCH   6  11
BRANCH   7  13
ATOM     13  C   UNL     1     -35.415  22.055   6.244  0.00  0.00    +0.162 C 
BRANCH  13  14
ATOM     14  O   UNL     1     -35.233  20.885   5.473  0.00  0.00    -0.377 OA
ATOM     15  H   UNL     1     -34.931  21.128   4.584  0.00  0.00    +0.211 HD
ENDBRANCH  13  14
ENDBRANCH   7  13
ENDBRANCH   1   3
BRANCH   1  16
ATOM     16  C   UNL     1     -35.151  27.990   3.016  0.00  0.00    -0.001 C 
ATOM     17  C   UNL     1     -35.266  29.194   2.419  0.00  0.00    -0.019 C 
ATOM     18  C   UNL     1     -36.156  29.434   1.222  0.00  0.00    +0.029 C 
BRANCH  17  19
ATOM     19  C   UNL     1     -34.532  30.446   2.891  0.00  0.00    +0.133 C 
BRANCH  19  20
ATOM     20  O   UNL     1     -33.564  30.018   3.854  0.00  0.00    -0.380 OA
ATOM     21  H   UNL     1     -33.684  30.517   4.678  0.00  0.00    +0.211 HD
ENDBRANCH  19  20
BRANCH  19  22
ATOM     22  C   UNL     1     -33.815  31.296   1.820  0.00  0.00    +0.059 C 
BRANCH  22  23
ATOM     23  C   UNL     1     -34.157  32.760   1.936  0.00  0.00    -0.032 C 
ATOM     24  C   UNL     1     -34.914  33.502   1.104  0.00  0.00    -0.048 C 
ATOM     25  C   UNL     1     -35.531  32.867  -0.117  0.00  0.00    +0.026 C 
BRANCH  24  26
ATOM     26  C   UNL     1     -35.180  34.985   1.257  0.00  0.00    +0.026 C 
BRANCH  26  27
ATOM     27  C   UNL     1     -36.424  35.479   0.507  0.00  0.00    +0.030 C 
BRANCH  27  28
ATOM     28  C   UNL     1     -37.530  35.904   1.432  0.00  0.00    -0.034 C 
ATOM     29  C   UNL     1     -38.481  35.138   2.000  0.00  0.00    -0.048 C 
ATOM     30  C   UNL     1     -39.531  35.758   2.883  0.00  0.00    +0.026 C 
ATOM     31  C   UNL     1     -38.602  33.648   1.847  0.00  0.00    +0.026 C 
ENDBRANCH  27  28
ENDBRANCH  26  27
ENDBRANCH  24  26
ENDBRANCH  22  23
ENDBRANCH  19  22
ENDBRANCH  17  19
ENDBRANCH   1  16
BRANCH   1  32
ATOM     32  O   UNL     1     -37.252  26.932   2.760  0.00  0.00    -0.377 OA
ATOM     33  H   UNL     1     -37.694  26.100   2.994  0.00  0.00    +0.211 HD
ENDBRANCH   1  32
TORSDOF 14
ENDMDL
MODEL 2
REMARK VINA RESULT:      -6.9      1.032      1.557
REMARK  Name = 53360482
REMARK  14 active torsions:
REMARK  status: ('A' for Active; 'I' for Inactive)
REMARK    1  A    between atoms: C_1  and  C_3
REMARK    2  A    between atoms: C_1  and  C_16
REMARK    3  A    between atoms: C_1  and  O_32
REMARK    4  A    between atoms: C_5  and  O_9
REMARK    5  A    between atoms: C_6  and  O_11
REMARK    6  A    between atoms: C_7  and  C_13
REMARK    7  A    between atoms: C_13  and  O_14
REMARK    8  A    between atoms: C_17  and  C_19
REMARK    9  A    between atoms: C_19  and  O_20
REMARK   10  A    between atoms: C_19  and  C_22
REMARK   11  A    between atoms: C_22  and  C_23
REMARK   12  A    between atoms: C_24  and  C_26
REMARK   13  A    between atoms: C_26  and  C_27
REMARK   14  A    between atoms: C_27  and  C_28
REMARK                            x       y       z     vdW  Elec       q    Type
REMARK                         _______ _______ _______ _____ _____    ______ ____
ROOT
ATOM      1  C   UNL     1     -35.566  26.631   2.664  0.00  0.00    +0.162 C 
ENDROOT
BRANCH   1   3
ATOM      2  O   UNL     1     -34.161  24.690   3.077  0.00  0.00    -0.348 OA
ATOM      3  C   UNL     1     -35.274  25.461   3.559  0.00  0.00    +0.177 C 
ATOM      4  C   UNL     1     -35.456  24.072   3.019  0.00  0.00    +0.176 C 
ATOM      5  C   UNL     1     -35.262  25.695   5.038  0.00  0.00    +0.162 C 
ATOM      6  C   UNL     1     -35.628  22.912   3.955  0.00  0.00    +0.160 C 
ATOM      7  C   UNL     1     -35.474  23.213   5.431  0.00  0.00    +0.012 C 
ATOM      8  C   UNL     1     -35.314  24.464   5.899  0.00  0.00    +0.001 C 
BRANCH   5   9
ATOM      9  O   UNL     1     -36.387  26.495   5.409  0.00  0.00    -0.377 OA
ATOM     10  H   UNL     1     -37.188  25.949   5.402  0.00  0.00    +0.211 HD
ENDBRANCH   5   9
BRANCH   6  11
ATOM     11  O   UNL     1     -36.932  22.359   3.758  0.00  0.00    -0.378 OA
ATOM     12  H   UNL     1     -37.467  22.972   3.232  0.00  0.00    +0.211 HD
ENDBRANCH   6  11
BRANCH   7  13
ATOM     13  C   UNL     1     -35.497  22.030   6.359  0.00  0.00    +0.162 C 
BRANCH  13  14
ATOM     14  O   UNL     1     -35.205  20.852   5.633  0.00  0.00    -0.377 OA
ATOM     15  H   UNL     1     -35.392  20.998   4.692  0.00  0.00    +0.211 HD
ENDBRANCH  13  14
ENDBRANCH   7  13
ENDBRANCH   1   3
BRANCH   1  16
ATOM     16  C   UNL     1     -34.801  27.880   3.023  0.00  0.00    -0.001 C 
ATOM     17  C   UNL     1     -34.118  28.693   2.191  0.00  0.00    -0.019 C 
ATOM     18  C   UNL     1     -34.021  28.451   0.703  0.00  0.00    +0.029 C 
BRANCH  17  19
ATOM     19  C   UNL     1     -33.389  29.953   2.651  0.00  0.00    +0.133 C 
BRANCH  19  20
ATOM     20  O   UNL     1     -32.716  30.481   1.504  0.00  0.00    -0.380 OA
ATOM     21  H   UNL     1     -32.773  31.451   1.514  0.00  0.00    +0.211 HD
ENDBRANCH  19  20
BRANCH  19  22
ATOM     22  C   UNL     1     -34.241  31.077   3.279  0.00  0.00    +0.059 C 
BRANCH  22  23
ATOM     23  C   UNL     1     -35.652  31.083   2.746  0.00  0.00    -0.032 C 
ATOM     24  C   UNL     1     -36.175  31.884   1.797  0.00  0.00    -0.048 C 
ATOM     25  C   UNL     1     -35.312  32.930   1.137  0.00  0.00    +0.026 C 
BRANCH  24  26
ATOM     26  C   UNL     1     -37.620  31.867   1.341  0.00  0.00    +0.026 C 
BRANCH  26  27
ATOM     27  C   UNL     1     -38.118  33.209   0.791  0.00  0.00    +0.030 C 
BRANCH  27  28
ATOM     28  C   UNL     1     -38.917  33.990   1.796  0.00  0.00    -0.034 C 
ATOM     29  C   UNL     1     -38.833  35.303   2.087  0.00  0.00    -0.048 C 
ATOM     30  C   UNL     1     -39.707  35.903   3.156  0.00  0.00    +0.026 C 
ATOM     31  C   UNL     1     -37.919  36.285   1.411  0.00  0.00    +0.026 C 
ENDBRANCH  27  28
ENDBRANCH  26  27
ENDBRANCH  24  26
ENDBRANCH  22  23
ENDBRANCH  19  22
ENDBRANCH  17  19
ENDBRANCH   1  16
BRANCH   1  32
ATOM     32  O   UNL     1     -36.959  26.945   2.752  0.00  0.00    -0.377 OA
ATOM     33  H   UNL     1     -37.427  26.550   1.999  0.00  0.00    +0.211 HD
ENDBRANCH   1  32
TORSDOF 14
ENDMDL
MODEL 3
REMARK VINA RESULT:      -6.9      3.173      5.840
REMARK  Name = 53360482
REMARK  14 active torsions:
REMARK  status: ('A' for Active; 'I' for Inactive)
REMARK    1  A    between atoms: C_1  and  C_3
REMARK    2  A    between atoms: C_1  and  C_16
REMARK    3  A    between atoms: C_1  and  O_32
REMARK    4  A    between atoms: C_5  and  O_9
REMARK    5  A    between atoms: C_6  and  O_11
REMARK    6  A    between atoms: C_7  and  C_13
REMARK    7  A    between atoms: C_13  and  O_14
REMARK    8  A    between atoms: C_17  and  C_19
REMARK    9  A    between atoms: C_19  and  O_20
REMARK   10  A    between atoms: C_19  and  C_22
REMARK   11  A    between atoms: C_22  and  C_23
REMARK   12  A    between atoms: C_24  and  C_26
REMARK   13  A    between atoms: C_26  and  C_27
REMARK   14  A    between atoms: C_27  and  C_28
REMARK                            x       y       z     vdW  Elec       q    Type
REMARK                         _______ _______ _______ _____ _____    ______ ____
ROOT
ATOM      1  C   UNL     1     -36.127  26.648   2.520  0.00  0.00    +0.162 C 
ENDROOT
BRANCH   1   3
ATOM      2  O   UNL     1     -34.535  24.830   2.801  0.00  0.00    -0.348 OA
ATOM      3  C   UNL     1     -35.646  25.524   3.393  0.00  0.00    +0.177 C 
ATOM      4  C   UNL     1     -35.776  24.113   2.895  0.00  0.00    +0.176 C 
ATOM      5  C   UNL     1     -35.491  25.791   4.858  0.00  0.00    +0.162 C 
ATOM      6  C   UNL     1     -35.751  22.965   3.860  0.00  0.00    +0.160 C 
ATOM      7  C   UNL     1     -35.460  23.309   5.305  0.00  0.00    +0.012 C 
ATOM      8  C   UNL     1     -35.349  24.579   5.736  0.00  0.00    +0.001 C 
BRANCH   5   9
ATOM      9  O   UNL     1     -36.628  26.509   5.341  0.00  0.00    -0.377 OA
ATOM     10  H   UNL     1     -36.453  27.462   5.294  0.00  0.00    +0.211 HD
ENDBRANCH   5   9
BRANCH   6  11
ATOM     11  O   UNL     1     -37.020  22.308   3.818  0.00  0.00    -0.378 OA
ATOM     12  H   UNL     1     -37.716  22.959   3.638  0.00  0.00    +0.211 HD
ENDBRANCH   6  11
BRANCH   7  13
ATOM     13  C   UNL     1     -35.287  22.149   6.246  0.00  0.00    +0.162 C 
BRANCH  13  14
ATOM     14  O   UNL     1     -35.205  20.947   5.507  0.00  0.00    -0.377 OA
ATOM     15  H   UNL     1     -35.374  20.194   6.094  0.00  0.00    +0.211 HD
ENDBRANCH  13  14
ENDBRANCH   7  13
ENDBRANCH   1   3
BRANCH   1  16
ATOM     16  C   UNL     1     -35.487  27.977   2.829  0.00  0.00    -0.001 C 
ATOM     17  C   UNL     1     -35.548  29.109   2.098  0.00  0.00    -0.019 C 
ATOM     18  C   UNL     1     -36.309  29.204   0.796  0.00  0.00    +0.029 C 
BRANCH  17  19
ATOM     19  C   UNL     1     -34.879  30.418   2.508  0.00  0.00    +0.133 C 
BRANCH  19  20
ATOM     20  O   UNL     1     -35.360  30.734   3.818  0.00  0.00    -0.380 OA
ATOM     21  H   UNL     1     -34.741  30.389   4.482  0.00  0.00    +0.211 HD
ENDBRANCH  19  20
BRANCH  19  22
ATOM     22  C   UNL     1     -33.336  30.448   2.534  0.00  0.00    +0.059 C 
BRANCH  22  23
ATOM     23  C   UNL     1     -32.793  30.483   3.941  0.00  0.00    -0.032 C 
ATOM     24  C   UNL     1     -32.230  29.475   4.636  0.00  0.00    -0.048 C 
ATOM     25  C   UNL     1     -32.088  28.113   4.003  0.00  0.00    +0.026 C 
BRANCH  24  26
ATOM     26  C   UNL     1     -31.746  29.568   6.068  0.00  0.00    +0.026 C 
BRANCH  26  27
ATOM     27  C   UNL     1     -30.268  29.954   6.205  0.00  0.00    +0.030 C 
BRANCH  27  28
ATOM     28  C   UNL     1     -29.439  28.870   6.836  0.00  0.00    -0.034 C 
ATOM     29  C   UNL     1     -28.669  27.949   6.225  0.00  0.00    -0.048 C 
ATOM     30  C   UNL     1     -27.930  26.917   7.034  0.00  0.00    +0.026 C 
ATOM     31  C   UNL     1     -28.451  27.846   4.742  0.00  0.00    +0.026 C 
ENDBRANCH  27  28
ENDBRANCH  26  27
ENDBRANCH  24  26
ENDBRANCH  22  23
ENDBRANCH  19  22
ENDBRANCH  17  19
ENDBRANCH   1  16
BRANCH   1  32
ATOM     32  O   UNL     1     -37.537  26.802   2.699  0.00  0.00    -0.377 OA
ATOM     33  H   UNL     1     -37.761  27.745   2.711  0.00  0.00    +0.211 HD
ENDBRANCH   1  32
TORSDOF 14
ENDMDL
MODEL 4
REMARK VINA RESULT:      -6.5      1.083      1.774
REMARK  Name = 53360482
REMARK  14 active torsions:
REMARK  status: ('A' for Active; 'I' for Inactive)
REMARK    1  A    between atoms: C_1  and  C_3
REMARK    2  A    between atoms: C_1  and  C_16
REMARK    3  A    between atoms: C_1  and  O_32
REMARK    4  A    between atoms: C_5  and  O_9
REMARK    5  A    between atoms: C_6  and  O_11
REMARK    6  A    between atoms: C_7  and  C_13
REMARK    7  A    between atoms: C_13  and  O_14
REMARK    8  A    between atoms: C_17  and  C_19
REMARK    9  A    between atoms: C_19  and  O_20
REMARK   10  A    between atoms: C_19  and  C_22
REMARK   11  A    between atoms: C_22  and  C_23
REMARK   12  A    between atoms: C_24  and  C_26
REMARK   13  A    between atoms: C_26  and  C_27
REMARK   14  A    between atoms: C_27  and  C_28
REMARK                            x       y       z     vdW  Elec       q    Type
REMARK                         _______ _______ _______ _____ _____    ______ ____
ROOT
ATOM      1  C   UNL     1     -35.882  26.762   2.616  0.00  0.00    +0.162 C 
ENDROOT
BRANCH   1   3
ATOM      2  O   UNL     1     -34.368  24.888   2.948  0.00  0.00    -0.348 OA
ATOM      3  C   UNL     1     -35.489  25.605   3.491  0.00  0.00    +0.177 C 
ATOM      4  C   UNL     1     -35.635  24.211   2.955  0.00  0.00    +0.176 C 
ATOM      5  C   UNL     1     -35.412  25.837   4.967  0.00  0.00    +0.162 C 
ATOM      6  C   UNL     1     -35.704  23.042   3.894  0.00  0.00    +0.160 C 
ATOM      7  C   UNL     1     -35.487  23.348   5.361  0.00  0.00    +0.012 C 
ATOM      8  C   UNL     1     -35.361  24.604   5.825  0.00  0.00    +0.001 C 
BRANCH   5   9
ATOM      9  O   UNL     1     -36.551  26.583   5.400  0.00  0.00    -0.377 OA
ATOM     10  H   UNL     1     -37.021  26.934   4.627  0.00  0.00    +0.211 HD
ENDBRANCH   5   9
BRANCH   6  11
ATOM     11  O   UNL     1     -36.988  22.429   3.764  0.00  0.00    -0.378 OA
ATOM     12  H   UNL     1     -37.605  23.056   3.355  0.00  0.00    +0.211 HD
ENDBRANCH   6  11
BRANCH   7  13
ATOM     13  C   UNL     1     -35.406  22.164   6.284  0.00  0.00    +0.162 C 
BRANCH  13  14
ATOM     14  O   UNL     1     -35.254  20.980   5.526  0.00  0.00    -0.377 OA
ATOM     15  H   UNL     1     -35.548  20.220   6.052  0.00  0.00    +0.211 HD
ENDBRANCH  13  14
ENDBRANCH   7  13
ENDBRANCH   1   3
BRANCH   1  16
ATOM     16  C   UNL     1     -35.310  28.084   3.060  0.00  0.00    -0.001 C 
ATOM     17  C   UNL     1     -34.164  28.665   2.646  0.00  0.00    -0.019 C 
ATOM     18  C   UNL     1     -33.248  28.034   1.624  0.00  0.00    +0.029 C 
BRANCH  17  19
ATOM     19  C   UNL     1     -33.678  30.023   3.143  0.00  0.00    +0.133 C 
BRANCH  19  20
ATOM     20  O   UNL     1     -32.863  29.774   4.293  0.00  0.00    -0.380 OA
ATOM     21  H   UNL     1     -32.437  28.906   4.206  0.00  0.00    +0.211 HD
ENDBRANCH  19  20
BRANCH  19  22
ATOM     22  C   UNL     1     -32.874  30.895   2.154  0.00  0.00    +0.059 C 
BRANCH  22  23
ATOM     23  C   UNL     1     -33.470  32.272   1.999  0.00  0.00    -0.032 C 
ATOM     24  C   UNL     1     -32.933  33.453   2.363  0.00  0.00    -0.048 C 
ATOM     25  C   UNL     1     -31.573  33.491   3.013  0.00  0.00    +0.026 C 
BRANCH  24  26
ATOM     26  C   UNL     1     -33.611  34.800   2.218  0.00  0.00    +0.026 C 
BRANCH  26  27
ATOM     27  C   UNL     1     -34.467  34.936   0.952  0.00  0.00    +0.030 C 
BRANCH  27  28
ATOM     28  C   UNL     1     -35.936  35.045   1.252  0.00  0.00    -0.034 C 
ATOM     29  C   UNL     1     -36.765  36.073   0.990  0.00  0.00    -0.048 C 
ATOM     30  C   UNL     1     -38.213  36.006   1.396  0.00  0.00    +0.026 C 
ATOM     31  C   UNL     1     -36.378  37.343   0.286  0.00  0.00    +0.026 C 
ENDBRANCH  27  28
ENDBRANCH  26  27
ENDBRANCH  24  26
ENDBRANCH  22  23
ENDBRANCH  19  22
ENDBRANCH  17  19
ENDBRANCH   1  16
BRANCH   1  32
ATOM     32  O   UNL     1     -37.306  26.889   2.629  0.00  0.00    -0.377 OA
ATOM     33  H   UNL     1     -37.669  26.400   3.384  0.00  0.00    +0.211 HD
ENDBRANCH   1  32
TORSDOF 14
ENDMDL
MODEL 5
REMARK VINA RESULT:      -6.4      1.157      1.818
REMARK  Name = 53360482
REMARK  14 active torsions:
REMARK  status: ('A' for Active; 'I' for Inactive)
REMARK    1  A    between atoms: C_1  and  C_3
REMARK    2  A    between atoms: C_1  and  C_16
REMARK    3  A    between atoms: C_1  and  O_32
REMARK    4  A    between atoms: C_5  and  O_9
REMARK    5  A    between atoms: C_6  and  O_11
REMARK    6  A    between atoms: C_7  and  C_13
REMARK    7  A    between atoms: C_13  and  O_14
REMARK    8  A    between atoms: C_17  and  C_19
REMARK    9  A    between atoms: C_19  and  O_20
REMARK   10  A    between atoms: C_19  and  C_22
REMARK   11  A    between atoms: C_22  and  C_23
REMARK   12  A    between atoms: C_24  and  C_26
REMARK   13  A    between atoms: C_26  and  C_27
REMARK   14  A    between atoms: C_27  and  C_28
REMARK                            x       y       z     vdW  Elec       q    Type
REMARK                         _______ _______ _______ _____ _____    ______ ____
ROOT
ATOM      1  C   UNL     1     -35.411  26.702   2.787  0.00  0.00    +0.162 C 
ENDROOT
BRANCH   1   3
ATOM      2  O   UNL     1     -34.077  24.707   3.178  0.00  0.00    -0.348 OA
ATOM      3  C   UNL     1     -35.179  25.497   3.653  0.00  0.00    +0.177 C 
ATOM      4  C   UNL     1     -35.388  24.131   3.066  0.00  0.00    +0.176 C 
ATOM      5  C   UNL     1     -35.202  25.686   5.138  0.00  0.00    +0.162 C 
ATOM      6  C   UNL     1     -35.620  22.950   3.961  0.00  0.00    +0.160 C 
ATOM      7  C   UNL     1     -35.498  23.201   5.449  0.00  0.00    +0.012 C 
ATOM      8  C   UNL     1     -35.314  24.433   5.959  0.00  0.00    +0.001 C 
BRANCH   5   9
ATOM      9  O   UNL     1     -36.312  26.509   5.503  0.00  0.00    -0.377 OA
ATOM     10  H   UNL     1     -36.100  27.437   5.322  0.00  0.00    +0.211 HD
ENDBRANCH   5   9
BRANCH   6  11
ATOM     11  O   UNL     1     -36.933  22.443   3.712  0.00  0.00    -0.378 OA
ATOM     12  H   UNL     1     -37.577  23.165   3.779  0.00  0.00    +0.211 HD
ENDBRANCH   6  11
BRANCH   7  13
ATOM     13  C   UNL     1     -35.582  21.993   6.339  0.00  0.00    +0.162 C 
BRANCH  13  14
ATOM     14  O   UNL     1     -35.217  20.839   5.608  0.00  0.00    -0.377 OA
ATOM     15  H   UNL     1     -35.645  20.061   5.998  0.00  0.00    +0.211 HD
ENDBRANCH  13  14
ENDBRANCH   7  13
ENDBRANCH   1   3
BRANCH   1  16
ATOM     16  C   UNL     1     -34.562  27.891   3.156  0.00  0.00    -0.001 C 
ATOM     17  C   UNL     1     -33.369  28.244   2.635  0.00  0.00    -0.019 C 
ATOM     18  C   UNL     1     -32.681  27.449   1.549  0.00  0.00    +0.029 C 
BRANCH  17  19
ATOM     19  C   UNL     1     -32.593  29.485   3.064  0.00  0.00    +0.133 C 
BRANCH  19  20
ATOM     20  O   UNL     1     -31.893  29.955   1.907  0.00  0.00    -0.380 OA
ATOM     21  H   UNL     1     -31.578  30.860   2.064  0.00  0.00    +0.211 HD
ENDBRANCH  19  20
BRANCH  19  22
ATOM     22  C   UNL     1     -33.402  30.660   3.655  0.00  0.00    +0.059 C 
BRANCH  22  23
ATOM     23  C   UNL     1     -33.587  31.778   2.660  0.00  0.00    -0.032 C 
ATOM     24  C   UNL     1     -34.714  32.133   2.013  0.00  0.00    -0.048 C 
ATOM     25  C   UNL     1     -35.992  31.368   2.255  0.00  0.00    +0.026 C 
BRANCH  24  26
ATOM     26  C   UNL     1     -34.818  33.243   0.987  0.00  0.00    +0.026 C 
BRANCH  26  27
ATOM     27  C   UNL     1     -34.686  34.653   1.577  0.00  0.00    +0.030 C 
BRANCH  27  28
ATOM     28  C   UNL     1     -35.316  35.707   0.710  0.00  0.00    -0.034 C 
ATOM     29  C   UNL     1     -36.601  36.109   0.690  0.00  0.00    -0.048 C 
ATOM     30  C   UNL     1     -37.052  37.170  -0.279  0.00  0.00    +0.026 C 
ATOM     31  C   UNL     1     -37.687  35.591   1.589  0.00  0.00    +0.026 C 
ENDBRANCH  27  28
ENDBRANCH  26  27
ENDBRANCH  24  26
ENDBRANCH  22  23
ENDBRANCH  19  22
ENDBRANCH  17  19
ENDBRANCH   1  16
BRANCH   1  32
ATOM     32  O   UNL     1     -36.779  27.101   2.906  0.00  0.00    -0.377 OA
ATOM     33  H   UNL     1     -36.850  27.828   3.545  0.00  0.00    +0.211 HD
ENDBRANCH   1  32
TORSDOF 14
ENDMDL
MODEL 6
REMARK VINA RESULT:      -6.3      4.835     10.477
REMARK  Name = 53360482
REMARK  14 active torsions:
REMARK  status: ('A' for Active; 'I' for Inactive)
REMARK    1  A    between atoms: C_1  and  C_3
REMARK    2  A    between atoms: C_1  and  C_16
REMARK    3  A    between atoms: C_1  and  O_32
REMARK    4  A    between atoms: C_5  and  O_9
REMARK    5  A    between atoms: C_6  and  O_11
REMARK    6  A    between atoms: C_7  and  C_13
REMARK    7  A    between atoms: C_13  and  O_14
REMARK    8  A    between atoms: C_17  and  C_19
REMARK    9  A    between atoms: C_19  and  O_20
REMARK   10  A    between atoms: C_19  and  C_22
REMARK   11  A    between atoms: C_22  and  C_23
REMARK   12  A    between atoms: C_24  and  C_26
REMARK   13  A    between atoms: C_26  and  C_27
REMARK   14  A    between atoms: C_27  and  C_28
REMARK                            x       y       z     vdW  Elec       q    Type
REMARK                         _______ _______ _______ _____ _____    ______ ____
ROOT
ATOM      1  C   UNL     1     -35.619  25.662   5.416  0.00  0.00    +0.162 C 
ENDROOT
BRANCH   1   3
ATOM      2  O   UNL     1     -33.203  25.508   5.177  0.00  0.00    -0.348 OA
ATOM      3  C   UNL     1     -34.352  26.354   5.001  0.00  0.00    +0.177 C 
ATOM      4  C   UNL     1     -33.313  26.649   6.043  0.00  0.00    +0.176 C 
ATOM      5  C   UNL     1     -34.359  27.116   3.712  0.00  0.00    +0.162 C 
ATOM      6  C   UNL     1     -32.277  27.707   5.801  0.00  0.00    +0.160 C 
ATOM      7  C   UNL     1     -32.272  28.339   4.425  0.00  0.00    +0.012 C 
ATOM      8  C   UNL     1     -33.213  28.065   3.503  0.00  0.00    +0.001 C 
BRANCH   5   9
ATOM      9  O   UNL     1     -35.552  27.897   3.619  0.00  0.00    -0.377 OA
ATOM     10  H   UNL     1     -35.751  28.074   2.687  0.00  0.00    +0.211 HD
ENDBRANCH   5   9
BRANCH   6  11
ATOM     11  O   UNL     1     -32.463  28.753   6.757  0.00  0.00    -0.378 OA
ATOM     12  H   UNL     1     -32.194  29.599   6.368  0.00  0.00    +0.211 HD
ENDBRANCH   6  11
BRANCH   7  13
ATOM     13  C   UNL     1     -31.144  29.289   4.130  0.00  0.00    +0.162 C 
BRANCH  13  14
ATOM     14  O   UNL     1     -30.286  29.368   5.251  0.00  0.00    -0.377 OA
ATOM     15  H   UNL     1     -30.559  28.714   5.913  0.00  0.00    +0.211 HD
ENDBRANCH  13  14
ENDBRANCH   7  13
ENDBRANCH   1   3
BRANCH   1  16
ATOM     16  C   UNL     1     -36.051  24.565   4.477  0.00  0.00    -0.001 C 
ATOM     17  C   UNL     1     -35.868  23.237   4.623  0.00  0.00    -0.019 C 
ATOM     18  C   UNL     1     -35.165  22.633   5.816  0.00  0.00    +0.029 C 
BRANCH  17  19
ATOM     19  C   UNL     1     -36.363  22.199   3.620  0.00  0.00    +0.133 C 
BRANCH  19  20
ATOM     20  O   UNL     1     -37.690  22.585   3.249  0.00  0.00    -0.380 OA
ATOM     21  H   UNL     1     -38.211  21.792   3.039  0.00  0.00    +0.211 HD
ENDBRANCH  19  20
BRANCH  19  22
ATOM     22  C   UNL     1     -35.533  22.003   2.333  0.00  0.00    +0.059 C 
BRANCH  22  23
ATOM     23  C   UNL     1     -34.941  20.618   2.246  0.00  0.00    -0.032 C 
ATOM     24  C   UNL     1     -34.047  20.155   1.351  0.00  0.00    -0.048 C 
ATOM     25  C   UNL     1     -33.524  21.067   0.270  0.00  0.00    +0.026 C 
BRANCH  24  26
ATOM     26  C   UNL     1     -33.528  18.733   1.294  0.00  0.00    +0.026 C 
BRANCH  26  27
ATOM     27  C   UNL     1     -33.740  18.043  -0.060  0.00  0.00    +0.030 C 
BRANCH  27  28
ATOM     28  C   UNL     1     -35.040  17.291  -0.132  0.00  0.00    -0.034 C 
ATOM     29  C   UNL     1     -36.239  17.738  -0.550  0.00  0.00    -0.048 C 
ATOM     30  C   UNL     1     -37.442  16.833  -0.522  0.00  0.00    +0.026 C 
ATOM     31  C   UNL     1     -36.514  19.116  -1.082  0.00  0.00    +0.026 C 
ENDBRANCH  27  28
ENDBRANCH  26  27
ENDBRANCH  24  26
ENDBRANCH  22  23
ENDBRANCH  19  22
ENDBRANCH  17  19
ENDBRANCH   1  16
BRANCH   1  32
ATOM     32  O   UNL     1     -36.677  26.623   5.464  0.00  0.00    -0.377 OA
ATOM     33  H   UNL     1     -37.128  26.651   4.606  0.00  0.00    +0.211 HD
ENDBRANCH   1  32
TORSDOF 14
ENDMDL
MODEL 7
REMARK VINA RESULT:      -6.3      4.847     10.441
REMARK  Name = 53360482
REMARK  14 active torsions:
REMARK  status: ('A' for Active; 'I' for Inactive)
REMARK    1  A    between atoms: C_1  and  C_3
REMARK    2  A    between atoms: C_1  and  C_16
REMARK    3  A    between atoms: C_1  and  O_32
REMARK    4  A    between atoms: C_5  and  O_9
REMARK    5  A    between atoms: C_6  and  O_11
REMARK    6  A    between atoms: C_7  and  C_13
REMARK    7  A    between atoms: C_13  and  O_14
REMARK    8  A    between atoms: C_17  and  C_19
REMARK    9  A    between atoms: C_19  and  O_20
REMARK   10  A    between atoms: C_19  and  C_22
REMARK   11  A    between atoms: C_22  and  C_23
REMARK   12  A    between atoms: C_24  and  C_26
REMARK   13  A    between atoms: C_26  and  C_27
REMARK   14  A    between atoms: C_27  and  C_28
REMARK                            x       y       z     vdW  Elec       q    Type
REMARK                         _______ _______ _______ _____ _____    ______ ____
ROOT
ATOM      1  C   UNL     1     -35.600  25.710   5.472  0.00  0.00    +0.162 C 
ENDROOT
BRANCH   1   3
ATOM      2  O   UNL     1     -33.183  25.539   5.257  0.00  0.00    -0.348 OA
ATOM      3  C   UNL     1     -34.323  26.397   5.080  0.00  0.00    +0.177 C 
ATOM      4  C   UNL     1     -33.293  26.669   6.137  0.00  0.00    +0.176 C 
ATOM      5  C   UNL     1     -34.309  27.176   3.802  0.00  0.00    +0.162 C 
ATOM      6  C   UNL     1     -32.245  27.721   5.921  0.00  0.00    +0.160 C 
ATOM      7  C   UNL     1     -32.220  28.371   4.553  0.00  0.00    +0.012 C 
ATOM      8  C   UNL     1     -33.153  28.118   3.617  0.00  0.00    +0.001 C 
BRANCH   5   9
ATOM      9  O   UNL     1     -35.495  27.969   3.706  0.00  0.00    -0.377 OA
ATOM     10  H   UNL     1     -35.368  28.662   3.041  0.00  0.00    +0.211 HD
ENDBRANCH   5   9
BRANCH   6  11
ATOM     11  O   UNL     1     -32.433  28.756   6.889  0.00  0.00    -0.378 OA
ATOM     12  H   UNL     1     -33.302  28.655   7.306  0.00  0.00    +0.211 HD
ENDBRANCH   6  11
BRANCH   7  13
ATOM     13  C   UNL     1     -31.081  29.315   4.284  0.00  0.00    +0.162 C 
BRANCH  13  14
ATOM     14  O   UNL     1     -30.225  29.358   5.408  0.00  0.00    -0.377 OA
ATOM     15  H   UNL     1     -29.360  28.988   5.169  0.00  0.00    +0.211 HD
ENDBRANCH  13  14
ENDBRANCH   7  13
ENDBRANCH   1   3
BRANCH   1  16
ATOM     16  C   UNL     1     -35.999  24.590   4.546  0.00  0.00    -0.001 C 
ATOM     17  C   UNL     1     -35.827  23.265   4.736  0.00  0.00    -0.019 C 
ATOM     18  C   UNL     1     -35.174  22.692   5.972  0.00  0.00    +0.029 C 
BRANCH  17  19
ATOM     19  C   UNL     1     -36.287  22.202   3.742  0.00  0.00    +0.133 C 
BRANCH  19  20
ATOM     20  O   UNL     1     -37.617  22.554   3.348  0.00  0.00    -0.380 OA
ATOM     21  H   UNL     1     -37.852  23.413   3.733  0.00  0.00    +0.211 HD
ENDBRANCH  19  20
BRANCH  19  22
ATOM     22  C   UNL     1     -35.436  22.005   2.470  0.00  0.00    +0.059 C 
BRANCH  22  23
ATOM     23  C   UNL     1     -35.551  20.603   1.923  0.00  0.00    -0.032 C 
ATOM     24  C   UNL     1     -35.989  20.222   0.707  0.00  0.00    -0.048 C 
ATOM     25  C   UNL     1     -36.438  21.262  -0.290  0.00  0.00    +0.026 C 
BRANCH  24  26
ATOM     26  C   UNL     1     -36.122  18.788   0.239  0.00  0.00    +0.026 C 
BRANCH  26  27
ATOM     27  C   UNL     1     -34.956  18.303  -0.632  0.00  0.00    +0.030 C 
BRANCH  27  28
ATOM     28  C   UNL     1     -33.770  17.860   0.178  0.00  0.00    -0.034 C 
ATOM     29  C   UNL     1     -32.662  18.561   0.484  0.00  0.00    -0.048 C 
ATOM     30  C   UNL     1     -31.558  17.929   1.290  0.00  0.00    +0.026 C 
ATOM     31  C   UNL     1     -32.403  19.988   0.093  0.00  0.00    +0.026 C 
ENDBRANCH  27  28
ENDBRANCH  26  27
ENDBRANCH  24  26
ENDBRANCH  22  23
ENDBRANCH  19  22
ENDBRANCH  17  19
ENDBRANCH   1  16
BRANCH   1  32
ATOM     32  O   UNL     1     -36.662  26.668   5.464  0.00  0.00    -0.377 OA
ATOM     33  H   UNL     1     -36.463  27.377   6.096  0.00  0.00    +0.211 HD
ENDBRANCH   1  32
TORSDOF 14
ENDMDL
MODEL 8
REMARK VINA RESULT:      -6.2      4.490      7.183
REMARK  Name = 53360482
REMARK  14 active torsions:
REMARK  status: ('A' for Active; 'I' for Inactive)
REMARK    1  A    between atoms: C_1  and  C_3
REMARK    2  A    between atoms: C_1  and  C_16
REMARK    3  A    between atoms: C_1  and  O_32
REMARK    4  A    between atoms: C_5  and  O_9
REMARK    5  A    between atoms: C_6  and  O_11
REMARK    6  A    between atoms: C_7  and  C_13
REMARK    7  A    between atoms: C_13  and  O_14
REMARK    8  A    between atoms: C_17  and  C_19
REMARK    9  A    between atoms: C_19  and  O_20
REMARK   10  A    between atoms: C_19  and  C_22
REMARK   11  A    between atoms: C_22  and  C_23
REMARK   12  A    between atoms: C_24  and  C_26
REMARK   13  A    between atoms: C_26  and  C_27
REMARK   14  A    between atoms: C_27  and  C_28
REMARK                            x       y       z     vdW  Elec       q    Type
REMARK                         _______ _______ _______ _____ _____    ______ ____
ROOT
ATOM      1  C   UNL     1     -35.890  21.169   2.998  0.00  0.00    +0.162 C 
ENDROOT
BRANCH   1   3
ATOM      2  O   UNL     1     -37.207  22.644   1.583  0.00  0.00    -0.348 OA
ATOM      3  C   UNL     1     -36.950  21.276   1.939  0.00  0.00    +0.177 C 
ATOM      4  C   UNL     1     -38.250  21.945   2.281  0.00  0.00    +0.176 C 
ATOM      5  C   UNL     1     -36.871  20.344   0.771  0.00  0.00    +0.162 C 
ATOM      6  C   UNL     1     -39.476  21.684   1.456  0.00  0.00    +0.160 C 
ATOM      7  C   UNL     1     -39.282  20.834   0.217  0.00  0.00    +0.012 C 
ATOM      8  C   UNL     1     -38.110  20.240  -0.073  0.00  0.00    +0.001 C 
BRANCH   5   9
ATOM      9  O   UNL     1     -36.581  19.020   1.227  0.00  0.00    -0.377 OA
ATOM     10  H   UNL     1     -35.638  18.834   1.100  0.00  0.00    +0.211 HD
ENDBRANCH   5   9
BRANCH   6  11
ATOM     11  O   UNL     1     -40.448  21.036   2.279  0.00  0.00    -0.378 OA
ATOM     12  H   UNL     1     -41.310  21.052   1.835  0.00  0.00    +0.211 HD
ENDBRANCH   6  11
BRANCH   7  13
ATOM     13  C   UNL     1     -40.473  20.696  -0.690  0.00  0.00    +0.162 C 
BRANCH  13  14
ATOM     14  O   UNL     1     -41.556  21.440  -0.168  0.00  0.00    -0.377 OA
ATOM     15  H   UNL     1     -41.875  21.018   0.645  0.00  0.00    +0.211 HD
ENDBRANCH  13  14
ENDBRANCH   7  13
ENDBRANCH   1   3
BRANCH   1  16
ATOM     16  C   UNL     1     -35.505  22.490   3.612  0.00  0.00    -0.001 C 
ATOM     17  C   UNL     1     -35.266  22.753   4.914  0.00  0.00    -0.019 C 
ATOM     18  C   UNL     1     -35.355  21.700   5.993  0.00  0.00    +0.029 C 
BRANCH  17  19
ATOM     19  C   UNL     1     -34.861  24.128   5.438  0.00  0.00    +0.133 C 
BRANCH  19  20
ATOM     20  O   UNL     1     -33.648  24.484   4.768  0.00  0.00    -0.380 OA
ATOM     21  H   UNL     1     -32.970  23.812   4.946  0.00  0.00    +0.211 HD
ENDBRANCH  19  20
BRANCH  19  22
ATOM     22  C   UNL     1     -35.873  25.281   5.262  0.00  0.00    +0.059 C 
BRANCH  22  23
ATOM     23  C   UNL     1     -35.233  26.509   4.662  0.00  0.00    -0.032 C 
ATOM     24  C   UNL     1     -35.325  26.954   3.393  0.00  0.00    -0.048 C 
ATOM     25  C   UNL     1     -36.145  26.188   2.386  0.00  0.00    +0.026 C 
BRANCH  24  26
ATOM     26  C   UNL     1     -34.616  28.175   2.845  0.00  0.00    +0.026 C 
BRANCH  26  27
ATOM     27  C   UNL     1     -33.097  28.165   3.061  0.00  0.00    +0.030 C 
BRANCH  27  28
ATOM     28  C   UNL     1     -32.621  29.317   3.902  0.00  0.00    -0.034 C 
ATOM     29  C   UNL     1     -32.211  29.298   5.184  0.00  0.00    -0.048 C 
ATOM     30  C   UNL     1     -31.795  30.573   5.870  0.00  0.00    +0.026 C 
ATOM     31  C   UNL     1     -32.109  28.071   6.045  0.00  0.00    +0.026 C 
ENDBRANCH  27  28
ENDBRANCH  26  27
ENDBRANCH  24  26
ENDBRANCH  22  23
ENDBRANCH  19  22
ENDBRANCH  17  19
ENDBRANCH   1  16
BRANCH   1  32
ATOM     32  O   UNL     1     -34.709  20.611   2.415  0.00  0.00    -0.377 OA
ATOM     33  H   UNL     1     -33.998  21.271   2.427  0.00  0.00    +0.211 HD
ENDBRANCH   1  32
TORSDOF 14
ENDMDL
MODEL 9
REMARK VINA RESULT:      -6.2      4.826      8.825
REMARK  Name = 53360482
REMARK  14 active torsions:
REMARK  status: ('A' for Active; 'I' for Inactive)
REMARK    1  A    between atoms: C_1  and  C_3
REMARK    2  A    between atoms: C_1  and  C_16
REMARK    3  A    between atoms: C_1  and  O_32
REMARK    4  A    between atoms: C_5  and  O_9
REMARK    5  A    between atoms: C_6  and  O_11
REMARK    6  A    between atoms: C_7  and  C_13
REMARK    7  A    between atoms: C_13  and  O_14
REMARK    8  A    between atoms: C_17  and  C_19
REMARK    9  A    between atoms: C_19  and  O_20
REMARK   10  A    between atoms: C_19  and  C_22
REMARK   11  A    between atoms: C_22  and  C_23
REMARK   12  A    between atoms: C_24  and  C_26
REMARK   13  A    between atoms: C_26  and  C_27
REMARK   14  A    between atoms: C_27  and  C_28
REMARK                            x       y       z     vdW  Elec       q    Type
REMARK                         _______ _______ _______ _____ _____    ______ ____
ROOT
ATOM      1  C   UNL     1     -35.654  25.674   5.321  0.00  0.00    +0.162 C 
ENDROOT
BRANCH   1   3
ATOM      2  O   UNL     1     -33.246  25.483   5.037  0.00  0.00    -0.348 OA
ATOM      3  C   UNL     1     -34.381  26.354   4.902  0.00  0.00    +0.177 C 
ATOM      4  C   UNL     1     -33.319  26.602   5.934  0.00  0.00    +0.176 C 
ATOM      5  C   UNL     1     -34.396  27.149   3.634  0.00  0.00    +0.162 C 
ATOM      6  C   UNL     1     -32.268  27.647   5.701  0.00  0.00    +0.160 C 
ATOM      7  C   UNL     1     -32.274  28.314   4.342  0.00  0.00    +0.012 C 
ATOM      8  C   UNL     1     -33.235  28.082   3.429  0.00  0.00    +0.001 C 
BRANCH   5   9
ATOM      9  O   UNL     1     -35.575  27.954   3.582  0.00  0.00    -0.377 OA
ATOM     10  H   UNL     1     -35.487  28.697   4.199  0.00  0.00    +0.211 HD
ENDBRANCH   5   9
BRANCH   6  11
ATOM     11  O   UNL     1     -32.418  28.670   6.687  0.00  0.00    -0.378 OA
ATOM     12  H   UNL     1     -31.817  29.404   6.486  0.00  0.00    +0.211 HD
ENDBRANCH   6  11
BRANCH   7  13
ATOM     13  C   UNL     1     -31.134  29.250   4.052  0.00  0.00    +0.162 C 
BRANCH  13  14
ATOM     14  O   UNL     1     -30.177  29.168   5.091  0.00  0.00    -0.377 OA
ATOM     15  H   UNL     1     -29.516  29.869   4.977  0.00  0.00    +0.211 HD
ENDBRANCH  13  14
ENDBRANCH   7  13
ENDBRANCH   1   3
BRANCH   1  16
ATOM     16  C   UNL     1     -36.154  24.652   4.333  0.00  0.00    -0.001 C 
ATOM     17  C   UNL     1     -35.990  23.314   4.381  0.00  0.00    -0.019 C 
ATOM     18  C   UNL     1     -35.241  22.618   5.493  0.00  0.00    +0.029 C 
BRANCH  17  19
ATOM     19  C   UNL     1     -36.555  22.356   3.336  0.00  0.00    +0.133 C 
BRANCH  19  20
ATOM     20  O   UNL     1     -36.864  23.141   2.180  0.00  0.00    -0.380 OA
ATOM     21  H   UNL     1     -36.541  22.687   1.385  0.00  0.00    +0.211 HD
ENDBRANCH  19  20
BRANCH  19  22
ATOM     22  C   UNL     1     -35.662  21.174   2.900  0.00  0.00    +0.059 C 
BRANCH  22  23
ATOM     23  C   UNL     1     -34.823  21.514   1.693  0.00  0.00    -0.032 C 
ATOM     24  C   UNL     1     -33.976  20.710   1.021  0.00  0.00    -0.048 C 
ATOM     25  C   UNL     1     -33.784  19.281   1.465  0.00  0.00    +0.026 C 
BRANCH  24  26
ATOM     26  C   UNL     1     -33.126  21.133  -0.160  0.00  0.00    +0.026 C 
BRANCH  26  27
ATOM     27  C   UNL     1     -33.500  22.502  -0.742  0.00  0.00    +0.030 C 
BRANCH  27  28
ATOM     28  C   UNL     1     -32.617  23.609  -0.239  0.00  0.00    -0.034 C 
ATOM     29  C   UNL     1     -32.978  24.730   0.414  0.00  0.00    -0.048 C 
ATOM     30  C   UNL     1     -31.941  25.746   0.814  0.00  0.00    +0.026 C 
ATOM     31  C   UNL     1     -34.381  25.087   0.815  0.00  0.00    +0.026 C 
ENDBRANCH  27  28
ENDBRANCH  26  27
ENDBRANCH  24  26
ENDBRANCH  22  23
ENDBRANCH  19  22
ENDBRANCH  17  19
ENDBRANCH   1  16
BRANCH   1  32
ATOM     32  O   UNL     1     -36.678  26.662   5.468  0.00  0.00    -0.377 OA
ATOM     33  H   UNL     1     -36.949  26.712   6.399  0.00  0.00    +0.211 HD
ENDBRANCH   1  32
TORSDOF 14
ENDMDL
