MODEL 1
REMARK VINA RESULT:      -5.8      0.000      0.000
REMARK  Name = 191005
REMARK  8 active torsions:
REMARK  status: ('A' for Active; 'I' for Inactive)
REMARK    1  A    between atoms: C_1  and  C_2
REMARK    2  A    between atoms: C_1  and  O_11
REMARK    3  A    between atoms: C_1  and  CA_13
REMARK    4  A    between atoms: C_7  and  N_10
REMARK    5  A    between atoms: CA_13  and  N_15
REMARK    6  A    between atoms: CA_13  and  C_20
REMARK    7  A    between atoms: C_16  and  C_19
REMARK    8  A    between atoms: C_20  and  O_21
REMARK                            x       y       z     vdW  Elec       q    Type
REMARK                         _______ _______ _______ _____ _____    ______ ____
ROOT
ATOM      1  C   UNL     1     -35.337  22.490   4.445  0.00  0.00    +0.153 C 
ENDROOT
BRANCH   1   2
ATOM      2  C   UNL     1     -34.808  23.905   4.491  0.00  0.00    +0.006 C 
ATOM      3  C   UNL     1     -34.871  24.613   5.680  0.00  0.00    -0.000 C 
ATOM      4  C   UNL     1     -34.272  24.465   3.344  0.00  0.00    -0.000 C 
ATOM      5  C   UNL     1     -34.382  25.919   5.722  0.00  0.00    +0.024 C 
ATOM      6  C   UNL     1     -33.783  25.771   3.387  0.00  0.00    +0.024 C 
ATOM      7  C   UNL     1     -33.838  26.498   4.576  0.00  0.00    +0.143 C 
BRANCH   7  10
ATOM      8  O   UNL     1     -32.551  28.145   5.539  0.00  0.00    -0.126 OA
ATOM      9  O   UNL     1     -33.711  28.638   3.736  0.00  0.00    -0.126 OA
ATOM     10  N   UNL     1     -33.342  27.828   4.620  0.00  0.00    +0.058 N 
ENDBRANCH   7  10
ENDBRANCH   1   2
BRANCH   1  11
ATOM     11  O   UNL     1     -36.342  22.384   5.459  0.00  0.00    -0.378 OA
ATOM     12  H   UNL     1     -36.735  21.498   5.434  0.00  0.00    +0.211 HD
ENDBRANCH   1  11
BRANCH   1  13
ATOM     13  CA  UNL     1     -35.940  22.091   3.081  0.00  0.00    +0.132 C 
BRANCH  13  15
ATOM     14  O   UNL     1     -37.406  24.112   1.640  0.00  0.00    -0.274 OA
ATOM     15  N   UNL     1     -37.375  22.307   3.102  0.00  0.00    -0.300 N 
ATOM     16  C   UNL     1     -37.984  23.309   2.372  0.00  0.00    +0.234 C 
ATOM     17  H   UNL     1     -37.935  21.718   3.656  0.00  0.00    +0.150 HD
BRANCH  16  19
ATOM     18 BR   UNL     1     -39.925  25.175   3.030  0.00  0.00    -0.070 Br
ATOM     19  C   UNL     1     -39.475  23.346   2.570  0.00  0.00    +0.152 C 
ENDBRANCH  16  19
ENDBRANCH  13  15
BRANCH  13  20
ATOM     20  C   UNL     1     -35.650  20.645   2.665  0.00  0.00    +0.159 C 
BRANCH  20  21
ATOM     21  O   UNL     1     -36.821  19.839   2.717  0.00  0.00    -0.380 OA
ATOM     22  H   UNL     1     -37.117  19.641   1.814  0.00  0.00    +0.211 HD
ENDBRANCH  20  21
ENDBRANCH  13  20
ENDBRANCH   1  13
TORSDOF 8
ENDMDL
MODEL 2
REMARK VINA RESULT:      -5.8      3.741      5.666
REMARK  Name = 191005
REMARK  8 active torsions:
REMARK  status: ('A' for Active; 'I' for Inactive)
REMARK    1  A    between atoms: C_1  and  C_2
REMARK    2  A    between atoms: C_1  and  O_11
REMARK    3  A    between atoms: C_1  and  CA_13
REMARK    4  A    between atoms: C_7  and  N_10
REMARK    5  A    between atoms: CA_13  and  N_15
REMARK    6  A    between atoms: CA_13  and  C_20
REMARK    7  A    between atoms: C_16  and  C_19
REMARK    8  A    between atoms: C_20  and  O_21
REMARK                            x       y       z     vdW  Elec       q    Type
REMARK                         _______ _______ _______ _____ _____    ______ ____
ROOT
ATOM      1  C   UNL     1     -36.629  20.729   1.813  0.00  0.00    +0.153 C 
ENDROOT
BRANCH   1   2
ATOM      2  C   UNL     1     -35.223  20.751   1.260  0.00  0.00    +0.006 C 
ATOM      3  C   UNL     1     -34.760  21.895   0.632  0.00  0.00    -0.000 C 
ATOM      4  C   UNL     1     -34.426  19.626   1.393  0.00  0.00    -0.000 C 
ATOM      5  C   UNL     1     -33.461  21.915   0.122  0.00  0.00    +0.024 C 
ATOM      6  C   UNL     1     -33.127  19.646   0.883  0.00  0.00    +0.024 C 
ATOM      7  C   UNL     1     -32.645  20.791   0.247  0.00  0.00    +0.143 C 
BRANCH   7  10
ATOM      8  O   UNL     1     -30.631  19.770  -0.200  0.00  0.00    -0.126 OA
ATOM      9  O   UNL     1     -30.896  21.873  -0.788  0.00  0.00    -0.126 OA
ATOM     10  N   UNL     1     -31.324  20.812  -0.272  0.00  0.00    +0.058 N 
ENDBRANCH   7  10
ENDBRANCH   1   2
BRANCH   1  11
ATOM     11  O   UNL     1     -36.627  19.838   2.932  0.00  0.00    -0.378 OA
ATOM     12  H   UNL     1     -36.718  18.925   2.620  0.00  0.00    +0.211 HD
ENDBRANCH   1  11
BRANCH   1  13
ATOM     13  CA  UNL     1     -37.148  22.113   2.259  0.00  0.00    +0.132 C 
BRANCH  13  15
ATOM     14  O   UNL     1     -35.578  24.353   3.172  0.00  0.00    -0.274 OA
ATOM     15  N   UNL     1     -36.717  22.378   3.619  0.00  0.00    -0.300 N 
ATOM     16  C   UNL     1     -35.963  23.486   3.955  0.00  0.00    +0.234 C 
ATOM     17  H   UNL     1     -36.971  21.746   4.328  0.00  0.00    +0.150 HD
BRANCH  16  19
ATOM     18 BR   UNL     1     -35.152  21.726   5.936  0.00  0.00    -0.070 Br
ATOM     19  C   UNL     1     -35.624  23.533   5.421  0.00  0.00    +0.152 C 
ENDBRANCH  16  19
ENDBRANCH  13  15
BRANCH  13  20
ATOM     20  C   UNL     1     -38.670  22.273   2.168  0.00  0.00    +0.159 C 
BRANCH  20  21
ATOM     21  O   UNL     1     -39.335  21.020   2.265  0.00  0.00    -0.380 OA
ATOM     22  H   UNL     1     -39.579  20.714   1.378  0.00  0.00    +0.211 HD
ENDBRANCH  20  21
ENDBRANCH  13  20
ENDBRANCH   1  13
TORSDOF 8
ENDMDL
MODEL 3
REMARK VINA RESULT:      -5.7      1.786      2.330
REMARK  Name = 191005
REMARK  8 active torsions:
REMARK  status: ('A' for Active; 'I' for Inactive)
REMARK    1  A    between atoms: C_1  and  C_2
REMARK    2  A    between atoms: C_1  and  O_11
REMARK    3  A    between atoms: C_1  and  CA_13
REMARK    4  A    between atoms: C_7  and  N_10
REMARK    5  A    between atoms: CA_13  and  N_15
REMARK    6  A    between atoms: CA_13  and  C_20
REMARK    7  A    between atoms: C_16  and  C_19
REMARK    8  A    between atoms: C_20  and  O_21
REMARK                            x       y       z     vdW  Elec       q    Type
REMARK                         _______ _______ _______ _____ _____    ______ ____
ROOT
ATOM      1  C   UNL     1     -35.872  24.418   5.422  0.00  0.00    +0.153 C 
ENDROOT
BRANCH   1   2
ATOM      2  C   UNL     1     -34.793  25.380   4.983  0.00  0.00    +0.006 C 
ATOM      3  C   UNL     1     -34.145  26.151   5.934  0.00  0.00    -0.000 C 
ATOM      4  C   UNL     1     -34.473  25.472   3.639  0.00  0.00    -0.000 C 
ATOM      5  C   UNL     1     -33.148  27.039   5.530  0.00  0.00    +0.024 C 
ATOM      6  C   UNL     1     -33.476  26.360   3.234  0.00  0.00    +0.024 C 
ATOM      7  C   UNL     1     -32.813  27.143   4.180  0.00  0.00    +0.143 C 
BRANCH   7  10
ATOM      8  O   UNL     1     -32.134  29.105   3.185  0.00  0.00    -0.126 OA
ATOM      9  O   UNL     1     -30.601  27.757   4.005  0.00  0.00    -0.126 OA
ATOM     10  N   UNL     1     -31.799  28.048   3.768  0.00  0.00    +0.058 N 
ENDBRANCH   7  10
ENDBRANCH   1   2
BRANCH   1  11
ATOM     11  O   UNL     1     -37.095  24.857   4.822  0.00  0.00    -0.378 OA
ATOM     12  H   UNL     1     -37.829  24.715   5.440  0.00  0.00    +0.211 HD
ENDBRANCH   1  11
BRANCH   1  13
ATOM     13  CA  UNL     1     -35.603  22.951   5.023  0.00  0.00    +0.132 C 
BRANCH  13  15
ATOM     14  O   UNL     1     -35.228  22.084   2.300  0.00  0.00    -0.274 OA
ATOM     15  N   UNL     1     -36.631  22.500   4.104  0.00  0.00    -0.300 N 
ATOM     16  C   UNL     1     -36.347  22.104   2.811  0.00  0.00    +0.234 C 
ATOM     17  H   UNL     1     -37.565  22.477   4.411  0.00  0.00    +0.150 HD
BRANCH  16  19
ATOM     18 BR   UNL     1     -38.837  23.161   2.212  0.00  0.00    -0.070 Br
ATOM     19  C   UNL     1     -37.577  21.698   2.045  0.00  0.00    +0.152 C 
ENDBRANCH  16  19
ENDBRANCH  13  15
BRANCH  13  20
ATOM     20  C   UNL     1     -35.522  21.983   6.209  0.00  0.00    +0.159 C 
BRANCH  20  21
ATOM     21  O   UNL     1     -35.211  20.661   5.786  0.00  0.00    -0.380 OA
ATOM     22  H   UNL     1     -34.658  20.229   6.456  0.00  0.00    +0.211 HD
ENDBRANCH  20  21
ENDBRANCH  13  20
ENDBRANCH   1  13
TORSDOF 8
ENDMDL
MODEL 4
REMARK VINA RESULT:      -5.2      2.135      2.954
REMARK  Name = 191005
REMARK  8 active torsions:
REMARK  status: ('A' for Active; 'I' for Inactive)
REMARK    1  A    between atoms: C_1  and  C_2
REMARK    2  A    between atoms: C_1  and  O_11
REMARK    3  A    between atoms: C_1  and  CA_13
REMARK    4  A    between atoms: C_7  and  N_10
REMARK    5  A    between atoms: CA_13  and  N_15
REMARK    6  A    between atoms: CA_13  and  C_20
REMARK    7  A    between atoms: C_16  and  C_19
REMARK    8  A    between atoms: C_20  and  O_21
REMARK                            x       y       z     vdW  Elec       q    Type
REMARK                         _______ _______ _______ _____ _____    ______ ____
ROOT
ATOM      1  C   UNL     1     -35.557  25.469   5.693  0.00  0.00    +0.153 C 
ENDROOT
BRANCH   1   2
ATOM      2  C   UNL     1     -34.344  26.340   5.460  0.00  0.00    +0.006 C 
ATOM      3  C   UNL     1     -34.097  26.832   4.190  0.00  0.00    -0.000 C 
ATOM      4  C   UNL     1     -33.504  26.627   6.523  0.00  0.00    -0.000 C 
ATOM      5  C   UNL     1     -32.978  27.636   3.975  0.00  0.00    +0.024 C 
ATOM      6  C   UNL     1     -32.384  27.432   6.308  0.00  0.00    +0.024 C 
ATOM      7  C   UNL     1     -32.121  27.936   5.035  0.00  0.00    +0.143 C 
BRANCH   7  10
ATOM      8  O   UNL     1     -29.914  28.472   5.409  0.00  0.00    -0.126 OA
ATOM      9  O   UNL     1     -31.082  29.730   4.034  0.00  0.00    -0.126 OA
ATOM     10  N   UNL     1     -30.981  28.754   4.816  0.00  0.00    +0.058 N 
ENDBRANCH   7  10
ENDBRANCH   1   2
BRANCH   1  11
ATOM     11  O   UNL     1     -36.704  26.234   5.306  0.00  0.00    -0.378 OA
ATOM     12  H   UNL     1     -36.850  26.945   5.949  0.00  0.00    +0.211 HD
ENDBRANCH   1  11
BRANCH   1  13
ATOM     13  CA  UNL     1     -35.536  24.142   4.903  0.00  0.00    +0.132 C 
BRANCH  13  15
ATOM     14  O   UNL     1     -36.216  23.811   2.121  0.00  0.00    -0.274 OA
ATOM     15  N   UNL     1     -36.854  23.882   4.354  0.00  0.00    -0.300 N 
ATOM     16  C   UNL     1     -37.076  23.738   2.998  0.00  0.00    +0.234 C 
ATOM     17  H   UNL     1     -37.617  23.805   4.970  0.00  0.00    +0.150 HD
BRANCH  16  19
ATOM     18 BR   UNL     1     -38.620  21.730   1.874  0.00  0.00    -0.070 Br
ATOM     19  C   UNL     1     -38.525  23.494   2.671  0.00  0.00    +0.152 C 
ENDBRANCH  16  19
ENDBRANCH  13  15
BRANCH  13  20
ATOM     20  C   UNL     1     -35.079  22.930   5.724  0.00  0.00    +0.159 C 
BRANCH  20  21
ATOM     21  O   UNL     1     -36.160  22.048   6.001  0.00  0.00    -0.380 OA
ATOM     22  H   UNL     1     -36.072  21.249   5.457  0.00  0.00    +0.211 HD
ENDBRANCH  20  21
ENDBRANCH  13  20
ENDBRANCH   1  13
TORSDOF 8
ENDMDL
MODEL 5
REMARK VINA RESULT:      -5.2      2.030      3.177
REMARK  Name = 191005
REMARK  8 active torsions:
REMARK  status: ('A' for Active; 'I' for Inactive)
REMARK    1  A    between atoms: C_1  and  C_2
REMARK    2  A    between atoms: C_1  and  O_11
REMARK    3  A    between atoms: C_1  and  CA_13
REMARK    4  A    between atoms: C_7  and  N_10
REMARK    5  A    between atoms: CA_13  and  N_15
REMARK    6  A    between atoms: CA_13  and  C_20
REMARK    7  A    between atoms: C_16  and  C_19
REMARK    8  A    between atoms: C_20  and  O_21
REMARK                            x       y       z     vdW  Elec       q    Type
REMARK                         _______ _______ _______ _____ _____    ______ ____
ROOT
ATOM      1  C   UNL     1     -35.728  22.826   4.304  0.00  0.00    +0.153 C 
ENDROOT
BRANCH   1   2
ATOM      2  C   UNL     1     -34.959  24.124   4.394  0.00  0.00    +0.006 C 
ATOM      3  C   UNL     1     -34.225  24.553   3.301  0.00  0.00    -0.000 C 
ATOM      4  C   UNL     1     -35.003  24.857   5.568  0.00  0.00    -0.000 C 
ATOM      5  C   UNL     1     -33.515  25.751   3.384  0.00  0.00    +0.024 C 
ATOM      6  C   UNL     1     -34.294  26.055   5.651  0.00  0.00    +0.024 C 
ATOM      7  C   UNL     1     -33.550  26.502   4.559  0.00  0.00    +0.143 C 
BRANCH   7  10
ATOM      8  O   UNL     1     -33.365  28.772   4.221  0.00  0.00    -0.126 OA
ATOM      9  O   UNL     1     -31.674  27.705   5.140  0.00  0.00    -0.126 OA
ATOM     10  N   UNL     1     -32.827  27.722   4.644  0.00  0.00    +0.058 N 
ENDBRANCH   7  10
ENDBRANCH   1   2
BRANCH   1  11
ATOM     11  O   UNL     1     -36.290  22.580   5.597  0.00  0.00    -0.378 OA
ATOM     12  H   UNL     1     -36.617  23.412   5.971  0.00  0.00    +0.211 HD
ENDBRANCH   1  11
BRANCH   1  13
ATOM     13  CA  UNL     1     -36.854  22.838   3.248  0.00  0.00    +0.132 C 
BRANCH  13  15
ATOM     14  O   UNL     1     -36.259  20.103   2.558  0.00  0.00    -0.274 OA
ATOM     15  N   UNL     1     -36.339  22.351   1.981  0.00  0.00    -0.300 N 
ATOM     16  C   UNL     1     -36.085  21.014   1.750  0.00  0.00    +0.234 C 
ATOM     17  H   UNL     1     -36.163  22.998   1.261  0.00  0.00    +0.150 HD
BRANCH  16  19
ATOM     18 BR   UNL     1     -33.864  21.727   0.253  0.00  0.00    -0.070 Br
ATOM     19  C   UNL     1     -35.538  20.758   0.371  0.00  0.00    +0.152 C 
ENDBRANCH  16  19
ENDBRANCH  13  15
BRANCH  13  20
ATOM     20  C   UNL     1     -37.504  24.210   3.038  0.00  0.00    +0.159 C 
BRANCH  20  21
ATOM     21  O   UNL     1     -38.279  24.601   4.166  0.00  0.00    -0.380 OA
ATOM     22  H   UNL     1     -38.142  23.966   4.887  0.00  0.00    +0.211 HD
ENDBRANCH  20  21
ENDBRANCH  13  20
ENDBRANCH   1  13
TORSDOF 8
ENDMDL
MODEL 6
REMARK VINA RESULT:      -5.1      1.807      2.628
REMARK  Name = 191005
REMARK  8 active torsions:
REMARK  status: ('A' for Active; 'I' for Inactive)
REMARK    1  A    between atoms: C_1  and  C_2
REMARK    2  A    between atoms: C_1  and  O_11
REMARK    3  A    between atoms: C_1  and  CA_13
REMARK    4  A    between atoms: C_7  and  N_10
REMARK    5  A    between atoms: CA_13  and  N_15
REMARK    6  A    between atoms: CA_13  and  C_20
REMARK    7  A    between atoms: C_16  and  C_19
REMARK    8  A    between atoms: C_20  and  O_21
REMARK                            x       y       z     vdW  Elec       q    Type
REMARK                         _______ _______ _______ _____ _____    ______ ____
ROOT
ATOM      1  C   UNL     1     -35.906  20.851   2.065  0.00  0.00    +0.153 C 
ENDROOT
BRANCH   1   2
ATOM      2  C   UNL     1     -35.502  22.106   2.804  0.00  0.00    +0.006 C 
ATOM      3  C   UNL     1     -35.048  23.198   2.085  0.00  0.00    -0.000 C 
ATOM      4  C   UNL     1     -35.596  22.138   4.186  0.00  0.00    -0.000 C 
ATOM      5  C   UNL     1     -34.676  24.357   2.767  0.00  0.00    +0.024 C 
ATOM      6  C   UNL     1     -35.223  23.297   4.868  0.00  0.00    +0.024 C 
ATOM      7  C   UNL     1     -34.763  24.406   4.158  0.00  0.00    +0.143 C 
BRANCH   7  10
ATOM      8  O   UNL     1     -33.164  25.831   5.001  0.00  0.00    -0.126 OA
ATOM      9  O   UNL     1     -35.284  26.343   5.290  0.00  0.00    -0.126 OA
ATOM     10  N   UNL     1     -34.384  25.586   4.852  0.00  0.00    +0.058 N 
ENDBRANCH   7  10
ENDBRANCH   1   2
BRANCH   1  11
ATOM     11  O   UNL     1     -36.495  19.969   3.026  0.00  0.00    -0.378 OA
ATOM     12  H   UNL     1     -35.889  19.855   3.775  0.00  0.00    +0.211 HD
ENDBRANCH   1  11
BRANCH   1  13
ATOM     13  CA  UNL     1     -36.905  21.096   0.914  0.00  0.00    +0.132 C 
BRANCH  13  15
ATOM     14  O   UNL     1     -38.170  23.600   0.249  0.00  0.00    -0.274 OA
ATOM     15  N   UNL     1     -38.150  21.613   1.452  0.00  0.00    -0.300 N 
ATOM     16  C   UNL     1     -38.674  22.831   1.066  0.00  0.00    +0.234 C 
ATOM     17  H   UNL     1     -38.638  21.076   2.116  0.00  0.00    +0.150 HD
BRANCH  16  19
ATOM     18 BR   UNL     1     -39.557  24.591   3.017  0.00  0.00    -0.070 Br
ATOM     19  C   UNL     1     -39.961  23.159   1.775  0.00  0.00    +0.152 C 
ENDBRANCH  16  19
ENDBRANCH  13  15
BRANCH  13  20
ATOM     20  C   UNL     1     -37.196  19.856   0.060  0.00  0.00    +0.159 C 
BRANCH  20  21
ATOM     21  O   UNL     1     -36.911  18.655   0.767  0.00  0.00    -0.380 OA
ATOM     22  H   UNL     1     -37.726  18.315   1.168  0.00  0.00    +0.211 HD
ENDBRANCH  20  21
ENDBRANCH  13  20
ENDBRANCH   1  13
TORSDOF 8
ENDMDL
MODEL 7
REMARK VINA RESULT:      -5.0      2.165      2.843
REMARK  Name = 191005
REMARK  8 active torsions:
REMARK  status: ('A' for Active; 'I' for Inactive)
REMARK    1  A    between atoms: C_1  and  C_2
REMARK    2  A    between atoms: C_1  and  O_11
REMARK    3  A    between atoms: C_1  and  CA_13
REMARK    4  A    between atoms: C_7  and  N_10
REMARK    5  A    between atoms: CA_13  and  N_15
REMARK    6  A    between atoms: CA_13  and  C_20
REMARK    7  A    between atoms: C_16  and  C_19
REMARK    8  A    between atoms: C_20  and  O_21
REMARK                            x       y       z     vdW  Elec       q    Type
REMARK                         _______ _______ _______ _____ _____    ______ ____
ROOT
ATOM      1  C   UNL     1     -36.025  22.278   3.071  0.00  0.00    +0.153 C 
ENDROOT
BRANCH   1   2
ATOM      2  C   UNL     1     -35.335  23.468   3.698  0.00  0.00    +0.006 C 
ATOM      3  C   UNL     1     -34.575  24.307   2.900  0.00  0.00    -0.000 C 
ATOM      4  C   UNL     1     -35.475  23.694   5.057  0.00  0.00    -0.000 C 
ATOM      5  C   UNL     1     -33.938  25.406   3.478  0.00  0.00    +0.024 C 
ATOM      6  C   UNL     1     -34.838  24.793   5.635  0.00  0.00    +0.024 C 
ATOM      7  C   UNL     1     -34.070  25.649   4.845  0.00  0.00    +0.143 C 
BRANCH   7  10
ATOM      8  O   UNL     1     -32.960  26.654   6.593  0.00  0.00    -0.126 OA
ATOM      9  O   UNL     1     -33.330  27.828   4.769  0.00  0.00    -0.126 OA
ATOM     10  N   UNL     1     -33.421  26.767   5.433  0.00  0.00    +0.058 N 
ENDBRANCH   7  10
ENDBRANCH   1   2
BRANCH   1  11
ATOM     11  O   UNL     1     -35.858  21.176   3.969  0.00  0.00    -0.378 OA
ATOM     12  H   UNL     1     -35.514  21.497   4.816  0.00  0.00    +0.211 HD
ENDBRANCH   1  11
BRANCH   1  13
ATOM     13  CA  UNL     1     -37.529  22.498   2.802  0.00  0.00    +0.132 C 
BRANCH  13  15
ATOM     14  O   UNL     1     -40.150  21.515   2.112  0.00  0.00    -0.274 OA
ATOM     15  N   UNL     1     -37.909  21.815   1.579  0.00  0.00    -0.300 N 
ATOM     16  C   UNL     1     -39.199  21.380   1.343  0.00  0.00    +0.234 C 
ATOM     17  H   UNL     1     -37.223  21.654   0.893  0.00  0.00    +0.150 HD
BRANCH  16  19
ATOM     18 BR   UNL     1     -41.096  21.151  -0.664  0.00  0.00    -0.070 Br
ATOM     19  C   UNL     1     -39.342  20.684   0.017  0.00  0.00    +0.152 C 
ENDBRANCH  16  19
ENDBRANCH  13  15
BRANCH  13  20
ATOM     20  C   UNL     1     -37.943  23.971   2.710  0.00  0.00    +0.159 C 
BRANCH  20  21
ATOM     21  O   UNL     1     -39.143  24.224   3.430  0.00  0.00    -0.380 OA
ATOM     22  H   UNL     1     -39.103  25.110   3.823  0.00  0.00    +0.211 HD
ENDBRANCH  20  21
ENDBRANCH  13  20
ENDBRANCH   1  13
TORSDOF 8
ENDMDL
MODEL 8
REMARK VINA RESULT:      -4.9      3.142      4.805
REMARK  Name = 191005
REMARK  8 active torsions:
REMARK  status: ('A' for Active; 'I' for Inactive)
REMARK    1  A    between atoms: C_1  and  C_2
REMARK    2  A    between atoms: C_1  and  O_11
REMARK    3  A    between atoms: C_1  and  CA_13
REMARK    4  A    between atoms: C_7  and  N_10
REMARK    5  A    between atoms: CA_13  and  N_15
REMARK    6  A    between atoms: CA_13  and  C_20
REMARK    7  A    between atoms: C_16  and  C_19
REMARK    8  A    between atoms: C_20  and  O_21
REMARK                            x       y       z     vdW  Elec       q    Type
REMARK                         _______ _______ _______ _____ _____    ______ ____
ROOT
ATOM      1  C   UNL     1     -36.219  22.942   3.940  0.00  0.00    +0.153 C 
ENDROOT
BRANCH   1   2
ATOM      2  C   UNL     1     -36.860  24.071   3.168  0.00  0.00    +0.006 C 
ATOM      3  C   UNL     1     -38.005  24.668   3.667  0.00  0.00    -0.000 C 
ATOM      4  C   UNL     1     -36.289  24.486   1.976  0.00  0.00    -0.000 C 
ATOM      5  C   UNL     1     -38.597  25.711   2.954  0.00  0.00    +0.024 C 
ATOM      6  C   UNL     1     -36.881  25.529   1.263  0.00  0.00    +0.024 C 
ATOM      7  C   UNL     1     -38.035  26.142   1.752  0.00  0.00    +0.143 C 
BRANCH   7  10
ATOM      8  O   UNL     1     -37.908  28.117   0.576  0.00  0.00    -0.126 OA
ATOM      9  O   UNL     1     -39.882  27.188   0.860  0.00  0.00    -0.126 OA
ATOM     10  N   UNL     1     -38.638  27.203   1.027  0.00  0.00    +0.058 N 
ENDBRANCH   7  10
ENDBRANCH   1   2
BRANCH   1  11
ATOM     11  O   UNL     1     -35.137  22.449   3.143  0.00  0.00    -0.378 OA
ATOM     12  H   UNL     1     -35.386  21.597   2.751  0.00  0.00    +0.211 HD
ENDBRANCH   1  11
BRANCH   1  13
ATOM     13  CA  UNL     1     -35.685  23.357   5.329  0.00  0.00    +0.132 C 
BRANCH  13  15
ATOM     14  O   UNL     1     -35.875  26.172   5.919  0.00  0.00    -0.274 OA
ATOM     15  N   UNL     1     -34.641  24.351   5.171  0.00  0.00    -0.300 N 
ATOM     16  C   UNL     1     -34.833  25.683   5.484  0.00  0.00    +0.234 C 
ATOM     17  H   UNL     1     -33.764  24.067   4.829  0.00  0.00    +0.150 HD
BRANCH  16  19
ATOM     18 BR   UNL     1     -33.264  26.403   3.315  0.00  0.00    -0.070 Br
ATOM     19  C   UNL     1     -33.612  26.523   5.218  0.00  0.00    +0.152 C 
ENDBRANCH  16  19
ENDBRANCH  13  15
BRANCH  13  20
ATOM     20  C   UNL     1     -35.154  22.191   6.171  0.00  0.00    +0.159 C 
BRANCH  20  21
ATOM     21  O   UNL     1     -35.413  20.937   5.553  0.00  0.00    -0.380 OA
ATOM     22  H   UNL     1     -36.337  20.907   5.257  0.00  0.00    +0.211 HD
ENDBRANCH  20  21
ENDBRANCH  13  20
ENDBRANCH   1  13
TORSDOF 8
ENDMDL
MODEL 9
REMARK VINA RESULT:      -4.9      3.380      6.870
REMARK  Name = 191005
REMARK  8 active torsions:
REMARK  status: ('A' for Active; 'I' for Inactive)
REMARK    1  A    between atoms: C_1  and  C_2
REMARK    2  A    between atoms: C_1  and  O_11
REMARK    3  A    between atoms: C_1  and  CA_13
REMARK    4  A    between atoms: C_7  and  N_10
REMARK    5  A    between atoms: CA_13  and  N_15
REMARK    6  A    between atoms: CA_13  and  C_20
REMARK    7  A    between atoms: C_16  and  C_19
REMARK    8  A    between atoms: C_20  and  O_21
REMARK                            x       y       z     vdW  Elec       q    Type
REMARK                         _______ _______ _______ _____ _____    ______ ____
ROOT
ATOM      1  C   UNL     1     -34.458  27.184   3.127  0.00  0.00    +0.153 C 
ENDROOT
BRANCH   1   2
ATOM      2  C   UNL     1     -34.728  25.824   3.730  0.00  0.00    +0.006 C 
ATOM      3  C   UNL     1     -34.720  24.707   2.913  0.00  0.00    -0.000 C 
ATOM      4  C   UNL     1     -34.979  25.724   5.089  0.00  0.00    -0.000 C 
ATOM      5  C   UNL     1     -34.969  23.452   3.469  0.00  0.00    +0.024 C 
ATOM      6  C   UNL     1     -35.228  24.469   5.645  0.00  0.00    +0.024 C 
ATOM      7  C   UNL     1     -35.223  23.333   4.836  0.00  0.00    +0.143 C 
BRANCH   7  10
ATOM      8  O   UNL     1     -35.973  21.994   6.550  0.00  0.00    -0.126 OA
ATOM      9  O   UNL     1     -35.196  21.034   4.730  0.00  0.00    -0.126 OA
ATOM     10  N   UNL     1     -35.476  22.056   5.401  0.00  0.00    +0.058 N 
ENDBRANCH   7  10
ENDBRANCH   1   2
BRANCH   1  11
ATOM     11  O   UNL     1     -35.250  28.130   3.853  0.00  0.00    -0.378 OA
ATOM     12  H   UNL     1     -36.017  27.681   4.240  0.00  0.00    +0.211 HD
ENDBRANCH   1  11
BRANCH   1  13
ATOM     13  CA  UNL     1     -32.975  27.608   3.180  0.00  0.00    +0.132 C 
BRANCH  13  15
ATOM     14  O   UNL     1     -31.066  27.745   5.336  0.00  0.00    -0.274 OA
ATOM     15  N   UNL     1     -32.812  28.692   4.132  0.00  0.00    -0.300 N 
ATOM     16  C   UNL     1     -31.863  28.661   5.134  0.00  0.00    +0.234 C 
ATOM     17  H   UNL     1     -33.401  29.477   4.061  0.00  0.00    +0.150 HD
BRANCH  16  19
ATOM     18 BR   UNL     1     -31.123  31.327   4.965  0.00  0.00    -0.070 Br
ATOM     19  C   UNL     1     -31.900  29.887   6.006  0.00  0.00    +0.152 C 
ENDBRANCH  16  19
ENDBRANCH  13  15
BRANCH  13  20
ATOM     20  C   UNL     1     -32.394  28.031   1.825  0.00  0.00    +0.159 C 
BRANCH  20  21
ATOM     21  O   UNL     1     -31.019  27.683   1.714  0.00  0.00    -0.380 OA
ATOM     22  H   UNL     1     -30.765  27.668   0.778  0.00  0.00    +0.211 HD
ENDBRANCH  20  21
ENDBRANCH  13  20
ENDBRANCH   1  13
TORSDOF 8
ENDMDL
