MODEL 1
REMARK VINA RESULT:      -6.4      0.000      0.000
REMARK  Name = 196334
REMARK  8 active torsions:
REMARK  status: ('A' for Active; 'I' for Inactive)
REMARK    1  A    between atoms: C_1  and  C_24
REMARK    2  A    between atoms: C_2  and  N_13
REMARK    3  A    between atoms: C_4  and  O_7
REMARK    4  A    between atoms: C_5  and  O_9
REMARK    5  A    between atoms: C_6  and  O_11
REMARK    6  A    between atoms: N_13  and  C_15
REMARK    7  A    between atoms: C_20  and  N_23
REMARK    8  A    between atoms: C_24  and  O_25
REMARK                            x       y       z     vdW  Elec       q    Type
REMARK                         _______ _______ _______ _____ _____    ______ ____
ROOT
ATOM      1  C   UNL     1     -37.121  24.433   3.465  0.00  0.00    +0.060 C 
ATOM      2  C   UNL     1     -35.339  24.363   5.313  0.00  0.00    +0.099 C 
ATOM      3  C   UNL     1     -36.698  24.916   4.863  0.00  0.00    +0.027 C 
ATOM      4  C   UNL     1     -37.057  22.898   3.358  0.00  0.00    +0.142 C 
ATOM      5  C   UNL     1     -35.267  22.839   5.168  0.00  0.00    +0.157 C 
ATOM      6  C   UNL     1     -35.680  22.367   3.770  0.00  0.00    +0.166 C 
ENDROOT
BRANCH   4   7
ATOM      7  O   UNL     1     -37.279  22.500   2.004  0.00  0.00    -0.382 OA
ATOM      8  H   UNL     1     -36.930  23.179   1.405  0.00  0.00    +0.210 HD
ENDBRANCH   4   7
BRANCH   5   9
ATOM      9  O   UNL     1     -36.149  22.249   6.130  0.00  0.00    -0.380 OA
ATOM     10  H   UNL     1     -35.739  22.283   7.008  0.00  0.00    +0.211 HD
ENDBRANCH   5   9
BRANCH   6  11
ATOM     11  O   UNL     1     -35.692  20.940   3.760  0.00  0.00    -0.380 OA
ATOM     12  H   UNL     1     -35.731  20.609   4.671  0.00  0.00    +0.211 HD
ENDBRANCH   6  11
BRANCH   2  13
ATOM     13  N   UNL     1     -34.271  24.996   4.568  0.00  0.00    -0.332 N 
ATOM     14  H   UNL     1     -34.020  24.612   3.697  0.00  0.00    +0.147 HD
BRANCH  13  15
ATOM     15  C   UNL     1     -33.586  26.112   5.012  0.00  0.00    +0.045 C 
ATOM     16  C   UNL     1     -33.390  26.343   6.387  0.00  0.00    +0.016 C 
ATOM     17  C   UNL     1     -33.062  27.052   4.101  0.00  0.00    +0.016 C 
ATOM     18  C   UNL     1     -32.699  27.469   6.836  0.00  0.00    +0.025 C 
ATOM     19  C   UNL     1     -32.372  28.177   4.549  0.00  0.00    +0.025 C 
ATOM     20  C   UNL     1     -32.190  28.386   5.916  0.00  0.00    +0.143 C 
BRANCH  20  23
ATOM     21  O   UNL     1     -32.012  30.663   6.232  0.00  0.00    -0.126 OA
ATOM     22  O   UNL     1     -30.359  29.383   6.903  0.00  0.00    -0.126 OA
ATOM     23  N   UNL     1     -31.487  29.532   6.372  0.00  0.00    +0.058 N 
ENDBRANCH  20  23
ENDBRANCH  13  15
ENDBRANCH   2  13
BRANCH   1  24
ATOM     24  C   UNL     1     -38.517  24.968   3.132  0.00  0.00    +0.140 C 
BRANCH  24  25
ATOM     25  O   UNL     1     -38.531  26.359   3.382  0.00  0.00    -0.382 OA
ATOM     26  H   UNL     1     -38.756  26.831   2.565  0.00  0.00    +0.210 HD
ENDBRANCH  24  25
ENDBRANCH   1  24
TORSDOF 8
ENDMDL
MODEL 2
REMARK VINA RESULT:      -5.9      4.755      7.852
REMARK  Name = 196334
REMARK  8 active torsions:
REMARK  status: ('A' for Active; 'I' for Inactive)
REMARK    1  A    between atoms: C_1  and  C_24
REMARK    2  A    between atoms: C_2  and  N_13
REMARK    3  A    between atoms: C_4  and  O_7
REMARK    4  A    between atoms: C_5  and  O_9
REMARK    5  A    between atoms: C_6  and  O_11
REMARK    6  A    between atoms: N_13  and  C_15
REMARK    7  A    between atoms: C_20  and  N_23
REMARK    8  A    between atoms: C_24  and  O_25
REMARK                            x       y       z     vdW  Elec       q    Type
REMARK                         _______ _______ _______ _____ _____    ______ ____
ROOT
ATOM      1  C   UNL     1     -35.570  22.593   3.716  0.00  0.00    +0.060 C 
ATOM      2  C   UNL     1     -35.890  20.672   2.043  0.00  0.00    +0.099 C 
ATOM      3  C   UNL     1     -35.543  21.072   3.482  0.00  0.00    +0.027 C 
ATOM      4  C   UNL     1     -36.901  23.210   3.249  0.00  0.00    +0.142 C 
ATOM      5  C   UNL     1     -37.196  21.318   1.569  0.00  0.00    +0.157 C 
ATOM      6  C   UNL     1     -37.211  22.834   1.796  0.00  0.00    +0.166 C 
ENDROOT
BRANCH   4   7
ATOM      7  O   UNL     1     -36.821  24.635   3.312  0.00  0.00    -0.382 OA
ATOM      8  H   UNL     1     -37.172  25.016   2.491  0.00  0.00    +0.210 HD
ENDBRANCH   4   7
BRANCH   5   9
ATOM      9  O   UNL     1     -38.282  20.736   2.298  0.00  0.00    -0.380 OA
ATOM     10  H   UNL     1     -38.098  19.797   2.458  0.00  0.00    +0.211 HD
ENDBRANCH   5   9
BRANCH   6  11
ATOM     11  O   UNL     1     -38.498  23.333   1.433  0.00  0.00    -0.380 OA
ATOM     12  H   UNL     1     -38.879  23.820   2.181  0.00  0.00    +0.211 HD
ENDBRANCH   6  11
BRANCH   2  13
ATOM     13  N   UNL     1     -34.800  21.015   1.153  0.00  0.00    -0.332 N 
ATOM     14  H   UNL     1     -34.857  21.860   0.652  0.00  0.00    +0.147 HD
BRANCH  13  15
ATOM     15  C   UNL     1     -33.684  20.220   0.969  0.00  0.00    +0.045 C 
ATOM     16  C   UNL     1     -33.607  18.935   1.540  0.00  0.00    +0.016 C 
ATOM     17  C   UNL     1     -32.589  20.672   0.205  0.00  0.00    +0.016 C 
ATOM     18  C   UNL     1     -32.480  18.133   1.356  0.00  0.00    +0.025 C 
ATOM     19  C   UNL     1     -31.463  19.871   0.021  0.00  0.00    +0.025 C 
ATOM     20  C   UNL     1     -31.409  18.601   0.596  0.00  0.00    +0.143 C 
BRANCH  20  23
ATOM     21  O   UNL     1     -29.208  18.309  -0.029  0.00  0.00    -0.126 OA
ATOM     22  O   UNL     1     -30.332  16.563   0.684  0.00  0.00    -0.126 OA
ATOM     23  N   UNL     1     -30.261  17.786   0.408  0.00  0.00    +0.058 N 
ENDBRANCH  20  23
ENDBRANCH  13  15
ENDBRANCH   2  13
BRANCH   1  24
ATOM     24  C   UNL     1     -35.291  22.896   5.191  0.00  0.00    +0.140 C 
BRANCH  24  25
ATOM     25  O   UNL     1     -36.091  22.038   5.980  0.00  0.00    -0.382 OA
ATOM     26  H   UNL     1     -35.529  21.364   6.395  0.00  0.00    +0.210 HD
ENDBRANCH  24  25
ENDBRANCH   1  24
TORSDOF 8
ENDMDL
MODEL 3
REMARK VINA RESULT:      -5.9      2.488      4.203
REMARK  Name = 196334
REMARK  8 active torsions:
REMARK  status: ('A' for Active; 'I' for Inactive)
REMARK    1  A    between atoms: C_1  and  C_24
REMARK    2  A    between atoms: C_2  and  N_13
REMARK    3  A    between atoms: C_4  and  O_7
REMARK    4  A    between atoms: C_5  and  O_9
REMARK    5  A    between atoms: C_6  and  O_11
REMARK    6  A    between atoms: N_13  and  C_15
REMARK    7  A    between atoms: C_20  and  N_23
REMARK    8  A    between atoms: C_24  and  O_25
REMARK                            x       y       z     vdW  Elec       q    Type
REMARK                         _______ _______ _______ _____ _____    ______ ____
ROOT
ATOM      1  C   UNL     1     -37.845  21.852   2.016  0.00  0.00    +0.060 C 
ATOM      2  C   UNL     1     -37.535  24.399   1.930  0.00  0.00    +0.099 C 
ATOM      3  C   UNL     1     -36.956  23.025   1.569  0.00  0.00    +0.027 C 
ATOM      4  C   UNL     1     -39.291  22.020   1.513  0.00  0.00    +0.142 C 
ATOM      5  C   UNL     1     -38.986  24.548   1.462  0.00  0.00    +0.157 C 
ATOM      6  C   UNL     1     -39.867  23.381   1.918  0.00  0.00    +0.166 C 
ENDROOT
BRANCH   4   7
ATOM      7  O   UNL     1     -40.124  21.014   2.094  0.00  0.00    -0.382 OA
ATOM      8  H   UNL     1     -41.048  21.176   1.845  0.00  0.00    +0.210 HD
ENDBRANCH   4   7
BRANCH   5   9
ATOM      9  O   UNL     1     -38.999  24.598   0.031  0.00  0.00    -0.380 OA
ATOM     10  H   UNL     1     -38.537  23.822  -0.324  0.00  0.00    +0.211 HD
ENDBRANCH   5   9
BRANCH   6  11
ATOM     11  O   UNL     1     -41.165  23.543   1.347  0.00  0.00    -0.380 OA
ATOM     12  H   UNL     1     -41.105  24.111   0.563  0.00  0.00    +0.211 HD
ENDBRANCH   6  11
BRANCH   2  13
ATOM     13  N   UNL     1     -37.435  24.624   3.357  0.00  0.00    -0.332 N 
ATOM     14  H   UNL     1     -38.186  24.341   3.927  0.00  0.00    +0.147 HD
BRANCH  13  15
ATOM     15  C   UNL     1     -36.341  25.214   3.964  0.00  0.00    +0.045 C 
ATOM     16  C   UNL     1     -35.918  24.811   5.245  0.00  0.00    +0.016 C 
ATOM     17  C   UNL     1     -35.617  26.236   3.318  0.00  0.00    +0.016 C 
ATOM     18  C   UNL     1     -34.815  25.406   5.858  0.00  0.00    +0.025 C 
ATOM     19  C   UNL     1     -34.515  26.831   3.930  0.00  0.00    +0.025 C 
ATOM     20  C   UNL     1     -34.113  26.416   5.200  0.00  0.00    +0.143 C 
BRANCH  20  23
ATOM     21  O   UNL     1     -32.126  27.583   5.106  0.00  0.00    -0.126 OA
ATOM     22  O   UNL     1     -32.893  26.983   7.073  0.00  0.00    -0.126 OA
ATOM     23  N   UNL     1     -32.990  27.023   5.823  0.00  0.00    +0.058 N 
ENDBRANCH  20  23
ENDBRANCH  13  15
ENDBRANCH   2  13
BRANCH   1  24
ATOM     24  C   UNL     1     -37.232  20.529   1.547  0.00  0.00    +0.140 C 
BRANCH  24  25
ATOM     25  O   UNL     1     -36.774  19.824   2.684  0.00  0.00    -0.382 OA
ATOM     26  H   UNL     1     -36.284  19.036   2.400  0.00  0.00    +0.210 HD
ENDBRANCH  24  25
ENDBRANCH   1  24
TORSDOF 8
ENDMDL
MODEL 4
REMARK VINA RESULT:      -5.9      2.182      3.839
REMARK  Name = 196334
REMARK  8 active torsions:
REMARK  status: ('A' for Active; 'I' for Inactive)
REMARK    1  A    between atoms: C_1  and  C_24
REMARK    2  A    between atoms: C_2  and  N_13
REMARK    3  A    between atoms: C_4  and  O_7
REMARK    4  A    between atoms: C_5  and  O_9
REMARK    5  A    between atoms: C_6  and  O_11
REMARK    6  A    between atoms: N_13  and  C_15
REMARK    7  A    between atoms: C_20  and  N_23
REMARK    8  A    between atoms: C_24  and  O_25
REMARK                            x       y       z     vdW  Elec       q    Type
REMARK                         _______ _______ _______ _____ _____    ______ ____
ROOT
ATOM      1  C   UNL     1     -35.176  21.212   1.934  0.00  0.00    +0.060 C 
ATOM      2  C   UNL     1     -35.957  23.639   2.235  0.00  0.00    +0.099 C 
ATOM      3  C   UNL     1     -34.992  22.683   1.523  0.00  0.00    +0.027 C 
ATOM      4  C   UNL     1     -36.643  20.767   1.787  0.00  0.00    +0.142 C 
ATOM      5  C   UNL     1     -37.412  23.173   2.119  0.00  0.00    +0.157 C 
ATOM      6  C   UNL     1     -37.589  21.710   2.539  0.00  0.00    +0.166 C 
ENDROOT
BRANCH   4   7
ATOM      7  O   UNL     1     -36.810  19.462   2.344  0.00  0.00    -0.382 OA
ATOM      8  H   UNL     1     -37.097  18.848   1.650  0.00  0.00    +0.210 HD
ENDBRANCH   4   7
BRANCH   5   9
ATOM      9  O   UNL     1     -37.826  23.310   0.755  0.00  0.00    -0.380 OA
ATOM     10  H   UNL     1     -37.937  22.430   0.361  0.00  0.00    +0.211 HD
ENDBRANCH   5   9
BRANCH   6  11
ATOM     11  O   UNL     1     -38.943  21.329   2.294  0.00  0.00    -0.380 OA
ATOM     12  H   UNL     1     -39.048  21.091   1.359  0.00  0.00    +0.211 HD
ENDBRANCH   6  11
BRANCH   2  13
ATOM     13  N   UNL     1     -35.579  23.786   3.626  0.00  0.00    -0.332 N 
ATOM     14  H   UNL     1     -35.898  23.113   4.268  0.00  0.00    +0.147 HD
BRANCH  13  15
ATOM     15  C   UNL     1     -34.794  24.821   4.099  0.00  0.00    +0.045 C 
ATOM     16  C   UNL     1     -34.018  25.603   3.222  0.00  0.00    +0.016 C 
ATOM     17  C   UNL     1     -34.746  25.124   5.475  0.00  0.00    +0.016 C 
ATOM     18  C   UNL     1     -33.225  26.646   3.699  0.00  0.00    +0.025 C 
ATOM     19  C   UNL     1     -33.953  26.167   5.952  0.00  0.00    +0.025 C 
ATOM     20  C   UNL     1     -33.193  26.928   5.065  0.00  0.00    +0.143 C 
BRANCH  20  23
ATOM     21  O   UNL     1     -32.666  29.168   5.221  0.00  0.00    -0.126 OA
ATOM     22  O   UNL     1     -31.413  27.722   6.298  0.00  0.00    -0.126 OA
ATOM     23  N   UNL     1     -32.385  27.990   5.551  0.00  0.00    +0.058 N 
ENDBRANCH  20  23
ENDBRANCH  13  15
ENDBRANCH   2  13
BRANCH   1  24
ATOM     24  C   UNL     1     -34.230  20.324   1.120  0.00  0.00    +0.140 C 
BRANCH  24  25
ATOM     25  O   UNL     1     -34.026  19.120   1.833  0.00  0.00    -0.382 OA
ATOM     26  H   UNL     1     -33.145  18.769   1.629  0.00  0.00    +0.210 HD
ENDBRANCH  24  25
ENDBRANCH   1  24
TORSDOF 8
ENDMDL
MODEL 5
REMARK VINA RESULT:      -5.7      3.337      7.729
REMARK  Name = 196334
REMARK  8 active torsions:
REMARK  status: ('A' for Active; 'I' for Inactive)
REMARK    1  A    between atoms: C_1  and  C_24
REMARK    2  A    between atoms: C_2  and  N_13
REMARK    3  A    between atoms: C_4  and  O_7
REMARK    4  A    between atoms: C_5  and  O_9
REMARK    5  A    between atoms: C_6  and  O_11
REMARK    6  A    between atoms: N_13  and  C_15
REMARK    7  A    between atoms: C_20  and  N_23
REMARK    8  A    between atoms: C_24  and  O_25
REMARK                            x       y       z     vdW  Elec       q    Type
REMARK                         _______ _______ _______ _____ _____    ______ ____
ROOT
ATOM      1  C   UNL     1     -34.684  25.619   4.751  0.00  0.00    +0.060 C 
ATOM      2  C   UNL     1     -36.042  23.650   3.816  0.00  0.00    +0.099 C 
ATOM      3  C   UNL     1     -35.278  24.224   5.016  0.00  0.00    +0.027 C 
ATOM      4  C   UNL     1     -35.754  26.594   4.226  0.00  0.00    +0.142 C 
ATOM      5  C   UNL     1     -37.079  24.639   3.273  0.00  0.00    +0.157 C 
ATOM      6  C   UNL     1     -36.478  26.022   3.003  0.00  0.00    +0.166 C 
ENDROOT
BRANCH   4   7
ATOM      7  O   UNL     1     -35.135  27.817   3.822  0.00  0.00    -0.382 OA
ATOM      8  H   UNL     1     -34.868  28.320   4.608  0.00  0.00    +0.210 HD
ENDBRANCH   4   7
BRANCH   5   9
ATOM      9  O   UNL     1     -38.126  24.777   4.241  0.00  0.00    -0.380 OA
ATOM     10  H   UNL     1     -38.435  23.898   4.510  0.00  0.00    +0.211 HD
ENDBRANCH   5   9
BRANCH   6  11
ATOM     11  O   UNL     1     -37.530  26.904   2.611  0.00  0.00    -0.380 OA
ATOM     12  H   UNL     1     -37.805  27.439   3.372  0.00  0.00    +0.211 HD
ENDBRANCH   6  11
BRANCH   2  13
ATOM     13  N   UNL     1     -35.116  23.261   2.773  0.00  0.00    -0.332 N 
ATOM     14  H   UNL     1     -34.379  23.875   2.553  0.00  0.00    +0.147 HD
BRANCH  13  15
ATOM     15  C   UNL     1     -35.209  22.074   2.071  0.00  0.00    +0.045 C 
ATOM     16  C   UNL     1     -34.388  21.825   0.954  0.00  0.00    +0.016 C 
ATOM     17  C   UNL     1     -36.129  21.076   2.452  0.00  0.00    +0.016 C 
ATOM     18  C   UNL     1     -34.483  20.628   0.245  0.00  0.00    +0.025 C 
ATOM     19  C   UNL     1     -36.224  19.880   1.743  0.00  0.00    +0.025 C 
ATOM     20  C   UNL     1     -35.401  19.655   0.640  0.00  0.00    +0.143 C 
BRANCH  20  23
ATOM     21  O   UNL     1     -36.633  18.002  -0.392  0.00  0.00    -0.126 OA
ATOM     22  O   UNL     1     -34.445  17.825  -0.388  0.00  0.00    -0.126 OA
ATOM     23  N   UNL     1     -35.497  18.435  -0.082  0.00  0.00    +0.058 N 
ENDBRANCH  20  23
ENDBRANCH  13  15
ENDBRANCH   2  13
BRANCH   1  24
ATOM     24  C   UNL     1     -34.010  26.145   6.021  0.00  0.00    +0.140 C 
BRANCH  24  25
ATOM     25  O   UNL     1     -33.028  27.090   5.644  0.00  0.00    -0.382 OA
ATOM     26  H   UNL     1     -32.274  26.629   5.244  0.00  0.00    +0.210 HD
ENDBRANCH  24  25
ENDBRANCH   1  24
TORSDOF 8
ENDMDL
MODEL 6
REMARK VINA RESULT:      -5.6      3.695      7.224
REMARK  Name = 196334
REMARK  8 active torsions:
REMARK  status: ('A' for Active; 'I' for Inactive)
REMARK    1  A    between atoms: C_1  and  C_24
REMARK    2  A    between atoms: C_2  and  N_13
REMARK    3  A    between atoms: C_4  and  O_7
REMARK    4  A    between atoms: C_5  and  O_9
REMARK    5  A    between atoms: C_6  and  O_11
REMARK    6  A    between atoms: N_13  and  C_15
REMARK    7  A    between atoms: C_20  and  N_23
REMARK    8  A    between atoms: C_24  and  O_25
REMARK                            x       y       z     vdW  Elec       q    Type
REMARK                         _______ _______ _______ _____ _____    ______ ____
ROOT
ATOM      1  C   UNL     1     -35.443  26.003   2.519  0.00  0.00    +0.060 C 
ATOM      2  C   UNL     1     -35.196  23.537   3.190  0.00  0.00    +0.099 C 
ATOM      3  C   UNL     1     -34.539  24.923   3.138  0.00  0.00    +0.027 C 
ATOM      4  C   UNL     1     -36.822  26.042   3.202  0.00  0.00    +0.142 C 
ATOM      5  C   UNL     1     -36.584  23.587   3.836  0.00  0.00    +0.157 C 
ATOM      6  C   UNL     1     -37.481  24.658   3.207  0.00  0.00    +0.166 C 
ENDROOT
BRANCH   4   7
ATOM      7  O   UNL     1     -37.689  26.925   2.488  0.00  0.00    -0.382 OA
ATOM      8  H   UNL     1     -37.843  26.576   1.595  0.00  0.00    +0.210 HD
ENDBRANCH   4   7
BRANCH   5   9
ATOM      9  O   UNL     1     -36.427  23.882   5.229  0.00  0.00    -0.380 OA
ATOM     10  H   UNL     1     -35.998  23.133   5.671  0.00  0.00    +0.211 HD
ENDBRANCH   5   9
BRANCH   6  11
ATOM     11  O   UNL     1     -38.705  24.711   3.939  0.00  0.00    -0.380 OA
ATOM     12  H   UNL     1     -39.062  23.815   4.037  0.00  0.00    +0.211 HD
ENDBRANCH   6  11
BRANCH   2  13
ATOM     13  N   UNL     1     -35.274  22.972   1.859  0.00  0.00    -0.332 N 
ATOM     14  H   UNL     1     -35.828  23.433   1.189  0.00  0.00    +0.147 HD
BRANCH  13  15
ATOM     15  C   UNL     1     -34.611  21.820   1.477  0.00  0.00    +0.045 C 
ATOM     16  C   UNL     1     -34.871  20.590   2.111  0.00  0.00    +0.016 C 
ATOM     17  C   UNL     1     -33.655  21.842   0.441  0.00  0.00    +0.016 C 
ATOM     18  C   UNL     1     -34.202  19.427   1.727  0.00  0.00    +0.025 C 
ATOM     19  C   UNL     1     -32.987  20.681   0.057  0.00  0.00    +0.025 C 
ATOM     20  C   UNL     1     -33.260  19.473   0.699  0.00  0.00    +0.143 C 
BRANCH  20  23
ATOM     21  O   UNL     1     -32.061  17.566   1.191  0.00  0.00    -0.126 OA
ATOM     22  O   UNL     1     -32.513  18.002  -0.912  0.00  0.00    -0.126 OA
ATOM     23  N   UNL     1     -32.579  18.291   0.307  0.00  0.00    +0.058 N 
ENDBRANCH  20  23
ENDBRANCH  13  15
ENDBRANCH   2  13
BRANCH   1  24
ATOM     24  C   UNL     1     -34.741  27.363   2.580  0.00  0.00    +0.140 C 
BRANCH  24  25
ATOM     25  O   UNL     1     -35.247  28.075   3.692  0.00  0.00    -0.382 OA
ATOM     26  H   UNL     1     -35.096  29.025   3.563  0.00  0.00    +0.210 HD
ENDBRANCH  24  25
ENDBRANCH   1  24
TORSDOF 8
ENDMDL
MODEL 7
REMARK VINA RESULT:      -5.6      3.646      7.798
REMARK  Name = 196334
REMARK  8 active torsions:
REMARK  status: ('A' for Active; 'I' for Inactive)
REMARK    1  A    between atoms: C_1  and  C_24
REMARK    2  A    between atoms: C_2  and  N_13
REMARK    3  A    between atoms: C_4  and  O_7
REMARK    4  A    between atoms: C_5  and  O_9
REMARK    5  A    between atoms: C_6  and  O_11
REMARK    6  A    between atoms: N_13  and  C_15
REMARK    7  A    between atoms: C_20  and  N_23
REMARK    8  A    between atoms: C_24  and  O_25
REMARK                            x       y       z     vdW  Elec       q    Type
REMARK                         _______ _______ _______ _____ _____    ______ ____
ROOT
ATOM      1  C   UNL     1     -35.332  23.102   4.895  0.00  0.00    +0.060 C 
ATOM      2  C   UNL     1     -37.020  23.462   2.993  0.00  0.00    +0.099 C 
ATOM      3  C   UNL     1     -36.602  22.595   4.188  0.00  0.00    +0.027 C 
ATOM      4  C   UNL     1     -35.456  24.589   5.275  0.00  0.00    +0.142 C 
ATOM      5  C   UNL     1     -37.105  24.946   3.366  0.00  0.00    +0.157 C 
ATOM      6  C   UNL     1     -35.834  25.445   4.061  0.00  0.00    +0.166 C 
ENDROOT
BRANCH   4   7
ATOM      7  O   UNL     1     -34.202  25.069   5.762  0.00  0.00    -0.382 OA
ATOM      8  H   UNL     1     -33.653  24.318   6.037  0.00  0.00    +0.210 HD
ENDBRANCH   4   7
BRANCH   5   9
ATOM      9  O   UNL     1     -38.213  25.128   4.255  0.00  0.00    -0.380 OA
ATOM     10  H   UNL     1     -38.496  24.266   4.599  0.00  0.00    +0.211 HD
ENDBRANCH   5   9
BRANCH   6  11
ATOM     11  O   UNL     1     -36.043  26.796   4.471  0.00  0.00    -0.380 OA
ATOM     12  H   UNL     1     -35.510  26.981   5.260  0.00  0.00    +0.211 HD
ENDBRANCH   6  11
BRANCH   2  13
ATOM     13  N   UNL     1     -36.103  23.267   1.889  0.00  0.00    -0.332 N 
ATOM     14  H   UNL     1     -35.701  24.063   1.472  0.00  0.00    +0.147 HD
BRANCH  13  15
ATOM     15  C   UNL     1     -35.760  22.024   1.390  0.00  0.00    +0.045 C 
ATOM     16  C   UNL     1     -36.747  21.123   0.948  0.00  0.00    +0.016 C 
ATOM     17  C   UNL     1     -34.411  21.621   1.310  0.00  0.00    +0.016 C 
ATOM     18  C   UNL     1     -36.402  19.868   0.445  0.00  0.00    +0.025 C 
ATOM     19  C   UNL     1     -34.066  20.368   0.808  0.00  0.00    +0.025 C 
ATOM     20  C   UNL     1     -35.061  19.491   0.375  0.00  0.00    +0.143 C 
BRANCH  20  23
ATOM     21  O   UNL     1     -35.319  17.771  -1.139  0.00  0.00    -0.126 OA
ATOM     22  O   UNL     1     -33.796  17.563   0.428  0.00  0.00    -0.126 OA
ATOM     23  N   UNL     1     -34.709  18.214  -0.136  0.00  0.00    +0.058 N 
ENDBRANCH  20  23
ENDBRANCH  13  15
ENDBRANCH   2  13
BRANCH   1  24
ATOM     24  C   UNL     1     -35.035  22.227   6.116  0.00  0.00    +0.140 C 
BRANCH  24  25
ATOM     25  O   UNL     1     -35.294  20.880   5.772  0.00  0.00    -0.382 OA
ATOM     26  H   UNL     1     -36.092  20.577   6.233  0.00  0.00    +0.210 HD
ENDBRANCH  24  25
ENDBRANCH   1  24
TORSDOF 8
ENDMDL
MODEL 8
REMARK VINA RESULT:      -5.4      2.390      3.322
REMARK  Name = 196334
REMARK  8 active torsions:
REMARK  status: ('A' for Active; 'I' for Inactive)
REMARK    1  A    between atoms: C_1  and  C_24
REMARK    2  A    between atoms: C_2  and  N_13
REMARK    3  A    between atoms: C_4  and  O_7
REMARK    4  A    between atoms: C_5  and  O_9
REMARK    5  A    between atoms: C_6  and  O_11
REMARK    6  A    between atoms: N_13  and  C_15
REMARK    7  A    between atoms: C_20  and  N_23
REMARK    8  A    between atoms: C_24  and  O_25
REMARK                            x       y       z     vdW  Elec       q    Type
REMARK                         _______ _______ _______ _____ _____    ______ ____
ROOT
ATOM      1  C   UNL     1     -37.918  22.030   1.105  0.00  0.00    +0.060 C 
ATOM      2  C   UNL     1     -36.749  22.746   3.276  0.00  0.00    +0.099 C 
ATOM      3  C   UNL     1     -38.058  22.295   2.614  0.00  0.00    +0.027 C 
ATOM      4  C   UNL     1     -36.757  21.062   0.809  0.00  0.00    +0.142 C 
ATOM      5  C   UNL     1     -35.588  21.802   2.948  0.00  0.00    +0.157 C 
ATOM      6  C   UNL     1     -35.450  21.550   1.443  0.00  0.00    +0.166 C 
ENDROOT
BRANCH   4   7
ATOM      7  O   UNL     1     -36.543  20.982  -0.601  0.00  0.00    -0.382 OA
ATOM      8  H   UNL     1     -36.371  21.869  -0.954  0.00  0.00    +0.210 HD
ENDBRANCH   4   7
BRANCH   5   9
ATOM      9  O   UNL     1     -35.823  20.549   3.601  0.00  0.00    -0.380 OA
ATOM     10  H   UNL     1     -36.748  20.504   3.890  0.00  0.00    +0.211 HD
ENDBRANCH   5   9
BRANCH   6  11
ATOM     11  O   UNL     1     -34.424  20.579   1.239  0.00  0.00    -0.380 OA
ATOM     12  H   UNL     1     -33.556  21.008   1.294  0.00  0.00    +0.211 HD
ENDBRANCH   6  11
BRANCH   2  13
ATOM     13  N   UNL     1     -36.430  24.102   2.879  0.00  0.00    -0.332 N 
ATOM     14  H   UNL     1     -36.864  24.465   2.073  0.00  0.00    +0.147 HD
BRANCH  13  15
ATOM     15  C   UNL     1     -35.551  24.914   3.570  0.00  0.00    +0.045 C 
ATOM     16  C   UNL     1     -34.525  25.608   2.900  0.00  0.00    +0.016 C 
ATOM     17  C   UNL     1     -35.656  25.073   4.967  0.00  0.00    +0.016 C 
ATOM     18  C   UNL     1     -33.637  26.428   3.597  0.00  0.00    +0.025 C 
ATOM     19  C   UNL     1     -34.769  25.892   5.664  0.00  0.00    +0.025 C 
ATOM     20  C   UNL     1     -33.759  26.569   4.980  0.00  0.00    +0.143 C 
BRANCH  20  23
ATOM     21  O   UNL     1     -32.580  28.536   5.226  0.00  0.00    -0.126 OA
ATOM     22  O   UNL     1     -32.358  26.985   6.764  0.00  0.00    -0.126 OA
ATOM     23  N   UNL     1     -32.856  27.404   5.690  0.00  0.00    +0.058 N 
ENDBRANCH  20  23
ENDBRANCH  13  15
ENDBRANCH   2  13
BRANCH   1  24
ATOM     24  C   UNL     1     -39.246  21.510   0.545  0.00  0.00    +0.140 C 
BRANCH  24  25
ATOM     25  O   UNL     1     -40.021  21.020   1.621  0.00  0.00    -0.382 OA
ATOM     26  H   UNL     1     -39.438  20.802   2.365  0.00  0.00    +0.210 HD
ENDBRANCH  24  25
ENDBRANCH   1  24
TORSDOF 8
ENDMDL
MODEL 9
REMARK VINA RESULT:      -5.4      2.828      4.155
REMARK  Name = 196334
REMARK  8 active torsions:
REMARK  status: ('A' for Active; 'I' for Inactive)
REMARK    1  A    between atoms: C_1  and  C_24
REMARK    2  A    between atoms: C_2  and  N_13
REMARK    3  A    between atoms: C_4  and  O_7
REMARK    4  A    between atoms: C_5  and  O_9
REMARK    5  A    between atoms: C_6  and  O_11
REMARK    6  A    between atoms: N_13  and  C_15
REMARK    7  A    between atoms: C_20  and  N_23
REMARK    8  A    between atoms: C_24  and  O_25
REMARK                            x       y       z     vdW  Elec       q    Type
REMARK                         _______ _______ _______ _____ _____    ______ ____
ROOT
ATOM      1  C   UNL     1     -35.055  22.492   1.451  0.00  0.00    +0.060 C 
ATOM      2  C   UNL     1     -37.411  22.814   2.418  0.00  0.00    +0.099 C 
ATOM      3  C   UNL     1     -36.306  23.384   1.520  0.00  0.00    +0.027 C 
ATOM      4  C   UNL     1     -35.417  21.044   1.073  0.00  0.00    +0.142 C 
ATOM      5  C   UNL     1     -37.742  21.361   2.064  0.00  0.00    +0.157 C 
ATOM      6  C   UNL     1     -36.492  20.477   2.007  0.00  0.00    +0.166 C 
ENDROOT
BRANCH   4   7
ATOM      7  O   UNL     1     -34.264  20.210   1.195  0.00  0.00    -0.382 OA
ATOM      8  H   UNL     1     -34.423  19.534   1.872  0.00  0.00    +0.210 HD
ENDBRANCH   4   7
BRANCH   5   9
ATOM      9  O   UNL     1     -38.377  21.339   0.780  0.00  0.00    -0.380 OA
ATOM     10  H   UNL     1     -37.778  21.718   0.118  0.00  0.00    +0.211 HD
ENDBRANCH   5   9
BRANCH   6  11
ATOM     11  O   UNL     1     -36.878  19.176   1.563  0.00  0.00    -0.380 OA
ATOM     12  H   UNL     1     -37.846  19.112   1.550  0.00  0.00    +0.211 HD
ENDBRANCH   6  11
BRANCH   2  13
ATOM     13  N   UNL     1     -37.029  22.924   3.811  0.00  0.00    -0.332 N 
ATOM     14  H   UNL     1     -37.408  22.279   4.450  0.00  0.00    +0.147 HD
BRANCH  13  15
ATOM     15  C   UNL     1     -36.158  23.885   4.291  0.00  0.00    +0.045 C 
ATOM     16  C   UNL     1     -36.474  25.255   4.213  0.00  0.00    +0.016 C 
ATOM     17  C   UNL     1     -34.927  23.521   4.874  0.00  0.00    +0.016 C 
ATOM     18  C   UNL     1     -35.596  26.224   4.697  0.00  0.00    +0.025 C 
ATOM     19  C   UNL     1     -34.049  24.490   5.357  0.00  0.00    +0.025 C 
ATOM     20  C   UNL     1     -34.383  25.841   5.269  0.00  0.00    +0.143 C 
BRANCH  20  23
ATOM     21  O   UNL     1     -32.861  26.603   6.825  0.00  0.00    -0.126 OA
ATOM     22  O   UNL     1     -33.348  27.897   5.120  0.00  0.00    -0.126 OA
ATOM     23  N   UNL     1     -33.488  26.828   5.762  0.00  0.00    +0.058 N 
ENDBRANCH  20  23
ENDBRANCH  13  15
ENDBRANCH   2  13
BRANCH   1  24
ATOM     24  C   UNL     1     -34.040  23.096   0.475  0.00  0.00    +0.140 C 
BRANCH  24  25
ATOM     25  O   UNL     1     -34.115  22.381  -0.743  0.00  0.00    -0.382 OA
ATOM     26  H   UNL     1     -33.696  22.899  -1.448  0.00  0.00    +0.210 HD
ENDBRANCH  24  25
ENDBRANCH   1  24
TORSDOF 8
ENDMDL
