MODEL 1
REMARK VINA RESULT:      -7.3      0.000      0.000
REMARK  Name = 19096
REMARK  6 active torsions:
REMARK  status: ('A' for Active; 'I' for Inactive)
REMARK    1  A    between atoms: C_3  and  N_21
REMARK    2  A    between atoms: C_4  and  S_11
REMARK    3  A    between atoms: C_6  and  O_19
REMARK    4  A    between atoms: C_8  and  S_15
REMARK    5  A    between atoms: N_21  and  N_22
REMARK    6  A    between atoms: N_22  and  C_23
REMARK                            x       y       z     vdW  Elec       q    Type
REMARK                         _______ _______ _______ _____ _____    ______ ____
ROOT
ATOM      1  C   UNL     1     -35.261  19.832   0.920  0.00  0.00    +0.020 C 
ATOM      2  C   UNL     1     -36.003  18.918   0.135  0.00  0.00    +0.004 C 
ATOM      3  C   UNL     1     -35.872  21.021   1.351  0.00  0.00    +0.124 C 
ATOM      4  C   UNL     1     -37.924  20.407   0.238  0.00  0.00    +0.147 C 
ATOM      5  C   UNL     1     -37.333  19.221  -0.198  0.00  0.00    +0.022 C 
ATOM      6  C   UNL     1     -37.195  21.306   1.011  0.00  0.00    +0.168 C 
ATOM      7  C   UNL     1     -35.392  17.730  -0.296  0.00  0.00    +0.019 C 
ATOM      8  C   UNL     1     -34.069  17.446   0.045  0.00  0.00    +0.112 C 
ATOM      9  C   UNL     1     -33.931  19.530   1.253  0.00  0.00    +0.003 C 
ATOM     10  C   UNL     1     -33.340  18.343   0.817  0.00  0.00    +0.019 C 
ENDROOT
BRANCH   4  11
ATOM     11  S   UNL     1     -39.585  20.738  -0.200  0.00  0.00    +0.045 S 
ATOM     12  O   UNL     1     -40.351  21.022   1.215  0.00  0.00    -0.065 OA
ATOM     13  O   UNL     1     -39.608  21.982  -0.955  0.00  0.00    -0.065 OA
ATOM     14  O   UNL     1     -40.123  19.513  -0.770  0.00  0.00    -0.065 OA
ENDBRANCH   4  11
BRANCH   8  15
ATOM     15  S   UNL     1     -33.328  15.960  -0.497  0.00  0.00    +0.042 S 
ATOM     16  O   UNL     1     -32.712  16.300  -1.972  0.00  0.00    -0.065 OA
ATOM     17  O   UNL     1     -32.200  15.675   0.378  0.00  0.00    -0.065 OA
ATOM     18  O   UNL     1     -34.399  14.990  -0.667  0.00  0.00    -0.065 OA
ENDBRANCH   8  15
BRANCH   6  19
ATOM     19  O   UNL     1     -37.774  22.466   1.438  0.00  0.00    -0.503 OA
ATOM     20  H   UNL     1     -37.894  22.619   2.355  0.00  0.00    +0.292 HD
ENDBRANCH   6  19
BRANCH   3  21
ATOM     21  N   UNL     1     -35.167  21.952   2.133  0.00  0.00    -0.125 NA
BRANCH  21  22
ATOM     22  N   UNL     1     -35.690  22.032   3.267  0.00  0.00    -0.128 NA
BRANCH  22  23
ATOM     23  C   UNL     1     -35.186  23.156   3.943  0.00  0.00    +0.085 C 
ATOM     24  C   UNL     1     -35.092  23.164   5.333  0.00  0.00    -0.005 C 
ATOM     25  C   UNL     1     -34.274  25.387   3.859  0.00  0.00    -0.024 C 
ATOM     26  C   UNL     1     -34.179  25.400   5.251  0.00  0.00    -0.026 C 
ATOM     27  C   UNL     1     -34.777  24.264   3.204  0.00  0.00    +0.013 C 
ATOM     28  C   UNL     1     -34.589  24.289   5.987  0.00  0.00    -0.007 C 
ATOM     29  C   UNL     1     -35.524  21.986   6.142  0.00  0.00    +0.032 C 
ATOM     30  C   UNL     1     -33.842  26.566   3.050  0.00  0.00    +0.031 C 
ATOM     31  C   UNL     1     -33.643  26.592   5.973  0.00  0.00    +0.031 C 
ENDBRANCH  22  23
ENDBRANCH  21  22
ENDBRANCH   3  21
TORSDOF 6
ENDMDL
MODEL 2
REMARK VINA RESULT:      -7.2      4.415      7.521
REMARK  Name = 19096
REMARK  6 active torsions:
REMARK  status: ('A' for Active; 'I' for Inactive)
REMARK    1  A    between atoms: C_3  and  N_21
REMARK    2  A    between atoms: C_4  and  S_11
REMARK    3  A    between atoms: C_6  and  O_19
REMARK    4  A    between atoms: C_8  and  S_15
REMARK    5  A    between atoms: N_21  and  N_22
REMARK    6  A    between atoms: N_22  and  C_23
REMARK                            x       y       z     vdW  Elec       q    Type
REMARK                         _______ _______ _______ _____ _____    ______ ____
ROOT
ATOM      1  C   UNL     1     -35.958  24.317   3.270  0.00  0.00    +0.020 C 
ATOM      2  C   UNL     1     -36.372  25.666   3.373  0.00  0.00    +0.004 C 
ATOM      3  C   UNL     1     -36.893  23.338   2.895  0.00  0.00    +0.124 C 
ATOM      4  C   UNL     1     -38.625  25.013   2.728  0.00  0.00    +0.147 C 
ATOM      5  C   UNL     1     -37.709  25.997   3.099  0.00  0.00    +0.022 C 
ATOM      6  C   UNL     1     -38.218  23.685   2.626  0.00  0.00    +0.168 C 
ATOM      7  C   UNL     1     -35.436  26.644   3.748  0.00  0.00    +0.019 C 
ATOM      8  C   UNL     1     -34.112  26.297   4.016  0.00  0.00    +0.112 C 
ATOM      9  C   UNL     1     -34.622  23.985   3.544  0.00  0.00    +0.003 C 
ATOM     10  C   UNL     1     -33.705  24.970   3.915  0.00  0.00    +0.019 C 
ENDROOT
BRANCH   4  11
ATOM     11  S   UNL     1     -40.279  25.475   2.394  0.00  0.00    +0.045 S 
ATOM     12  O   UNL     1     -40.183  26.986   1.779  0.00  0.00    -0.065 OA
ATOM     13  O   UNL     1     -40.777  24.613   1.333  0.00  0.00    -0.065 OA
ATOM     14  O   UNL     1     -40.962  25.549   3.675  0.00  0.00    -0.065 OA
ENDBRANCH   4  11
BRANCH   8  15
ATOM     15  S   UNL     1     -32.963  27.528   4.478  0.00  0.00    +0.042 S 
ATOM     16  O   UNL     1     -33.606  28.935   3.950  0.00  0.00    -0.065 OA
ATOM     17  O   UNL     1     -32.934  27.594   5.932  0.00  0.00    -0.065 OA
ATOM     18  O   UNL     1     -31.746  27.276   3.722  0.00  0.00    -0.065 OA
ENDBRANCH   8  15
BRANCH   6  19
ATOM     19  O   UNL     1     -39.114  22.722   2.263  0.00  0.00    -0.503 OA
ATOM     20  H   UNL     1     -39.371  22.636   1.365  0.00  0.00    +0.292 HD
ENDBRANCH   6  19
BRANCH   3  21
ATOM     21  N   UNL     1     -36.519  21.988   2.782  0.00  0.00    -0.125 NA
BRANCH  21  22
ATOM     22  N   UNL     1     -36.572  21.635   1.584  0.00  0.00    -0.128 NA
BRANCH  22  23
ATOM     23  C   UNL     1     -35.291  21.267   1.140  0.00  0.00    +0.085 C 
ATOM     24  C   UNL     1     -34.559  22.110   0.308  0.00  0.00    -0.005 C 
ATOM     25  C   UNL     1     -33.489  19.664   1.117  0.00  0.00    -0.024 C 
ATOM     26  C   UNL     1     -32.752  20.505   0.283  0.00  0.00    -0.026 C 
ATOM     27  C   UNL     1     -34.759  20.045   1.547  0.00  0.00    +0.013 C 
ATOM     28  C   UNL     1     -33.288  21.728  -0.122  0.00  0.00    -0.007 C 
ATOM     29  C   UNL     1     -35.111  23.424  -0.138  0.00  0.00    +0.032 C 
ATOM     30  C   UNL     1     -32.936  18.350   1.562  0.00  0.00    +0.031 C 
ATOM     31  C   UNL     1     -31.390  20.118  -0.190  0.00  0.00    +0.031 C 
ENDBRANCH  22  23
ENDBRANCH  21  22
ENDBRANCH   3  21
TORSDOF 6
ENDMDL
MODEL 3
REMARK VINA RESULT:      -7.2      3.419      6.832
REMARK  Name = 19096
REMARK  6 active torsions:
REMARK  status: ('A' for Active; 'I' for Inactive)
REMARK    1  A    between atoms: C_3  and  N_21
REMARK    2  A    between atoms: C_4  and  S_11
REMARK    3  A    between atoms: C_6  and  O_19
REMARK    4  A    between atoms: C_8  and  S_15
REMARK    5  A    between atoms: N_21  and  N_22
REMARK    6  A    between atoms: N_22  and  C_23
REMARK                            x       y       z     vdW  Elec       q    Type
REMARK                         _______ _______ _______ _____ _____    ______ ____
ROOT
ATOM      1  C   UNL     1     -36.534  22.314   2.660  0.00  0.00    +0.020 C 
ATOM      2  C   UNL     1     -37.305  23.501   2.644  0.00  0.00    +0.004 C 
ATOM      3  C   UNL     1     -36.991  21.190   1.953  0.00  0.00    +0.124 C 
ATOM      4  C   UNL     1     -38.947  22.403   1.226  0.00  0.00    +0.147 C 
ATOM      5  C   UNL     1     -38.509  23.529   1.922  0.00  0.00    +0.022 C 
ATOM      6  C   UNL     1     -38.190  21.235   1.241  0.00  0.00    +0.168 C 
ATOM      7  C   UNL     1     -36.847  24.625   3.351  0.00  0.00    +0.019 C 
ATOM      8  C   UNL     1     -35.648  24.579   4.063  0.00  0.00    +0.112 C 
ATOM      9  C   UNL     1     -35.330  22.285   3.381  0.00  0.00    +0.003 C 
ATOM     10  C   UNL     1     -34.891  23.412   4.078  0.00  0.00    +0.019 C 
ENDROOT
BRANCH   4  11
ATOM     11  S   UNL     1     -40.453  22.487   0.339  0.00  0.00    +0.045 S 
ATOM     12  O   UNL     1     -41.180  21.046   0.596  0.00  0.00    -0.065 OA
ATOM     13  O   UNL     1     -41.285  23.503   0.967  0.00  0.00    -0.065 OA
ATOM     14  O   UNL     1     -40.108  22.576  -1.071  0.00  0.00    -0.065 OA
ENDBRANCH   4  11
BRANCH   8  15
ATOM     15  S   UNL     1     -35.095  25.989   4.933  0.00  0.00    +0.042 S 
ATOM     16  O   UNL     1     -35.141  27.210   3.847  0.00  0.00    -0.065 OA
ATOM     17  O   UNL     1     -36.079  26.297   5.961  0.00  0.00    -0.065 OA
ATOM     18  O   UNL     1     -33.704  25.749   5.286  0.00  0.00    -0.065 OA
ENDBRANCH   8  15
BRANCH   6  19
ATOM     19  O   UNL     1     -38.619  20.134   0.558  0.00  0.00    -0.503 OA
ATOM     20  H   UNL     1     -38.024  19.432   0.380  0.00  0.00    +0.292 HD
ENDBRANCH   6  19
BRANCH   3  21
ATOM     21  N   UNL     1     -36.253  19.994   1.945  0.00  0.00    -0.125 NA
BRANCH  21  22
ATOM     22  N   UNL     1     -36.011  19.655   0.765  0.00  0.00    -0.128 NA
BRANCH  22  23
ATOM     23  C   UNL     1     -34.635  19.781   0.508  0.00  0.00    +0.085 C 
ATOM     24  C   UNL     1     -34.150  20.848  -0.245  0.00  0.00    -0.005 C 
ATOM     25  C   UNL     1     -32.393  18.934   0.773  0.00  0.00    -0.024 C 
ATOM     26  C   UNL     1     -31.902  20.001   0.020  0.00  0.00    -0.026 C 
ATOM     27  C   UNL     1     -33.761  18.824   1.018  0.00  0.00    +0.013 C 
ATOM     28  C   UNL     1     -32.780  20.957  -0.490  0.00  0.00    -0.007 C 
ATOM     29  C   UNL     1     -35.071  21.884  -0.800  0.00  0.00    +0.032 C 
ATOM     30  C   UNL     1     -31.471  17.899   1.327  0.00  0.00    +0.031 C 
ATOM     31  C   UNL     1     -30.441  20.139  -0.256  0.00  0.00    +0.031 C 
ENDBRANCH  22  23
ENDBRANCH  21  22
ENDBRANCH   3  21
TORSDOF 6
ENDMDL
MODEL 4
REMARK VINA RESULT:      -7.1      1.732      2.925
REMARK  Name = 19096
REMARK  6 active torsions:
REMARK  status: ('A' for Active; 'I' for Inactive)
REMARK    1  A    between atoms: C_3  and  N_21
REMARK    2  A    between atoms: C_4  and  S_11
REMARK    3  A    between atoms: C_6  and  O_19
REMARK    4  A    between atoms: C_8  and  S_15
REMARK    5  A    between atoms: N_21  and  N_22
REMARK    6  A    between atoms: N_22  and  C_23
REMARK                            x       y       z     vdW  Elec       q    Type
REMARK                         _______ _______ _______ _____ _____    ______ ____
ROOT
ATOM      1  C   UNL     1     -34.802  18.828   0.708  0.00  0.00    +0.020 C 
ATOM      2  C   UNL     1     -34.746  17.868  -0.330  0.00  0.00    +0.004 C 
ATOM      3  C   UNL     1     -35.999  19.528   0.931  0.00  0.00    +0.124 C 
ATOM      4  C   UNL     1     -37.068  18.340  -0.879  0.00  0.00    +0.147 C 
ATOM      5  C   UNL     1     -35.887  17.636  -1.114  0.00  0.00    +0.022 C 
ATOM      6  C   UNL     1     -37.124  19.285   0.142  0.00  0.00    +0.168 C 
ATOM      7  C   UNL     1     -33.548  17.169  -0.552  0.00  0.00    +0.019 C 
ATOM      8  C   UNL     1     -32.424  17.412   0.237  0.00  0.00    +0.112 C 
ATOM      9  C   UNL     1     -33.661  19.061   1.492  0.00  0.00    +0.003 C 
ATOM     10  C   UNL     1     -32.480  18.356   1.257  0.00  0.00    +0.019 C 
ENDROOT
BRANCH   4  11
ATOM     11  S   UNL     1     -38.464  18.014  -1.881  0.00  0.00    +0.045 S 
ATOM     12  O   UNL     1     -38.863  19.456  -2.539  0.00  0.00    -0.065 OA
ATOM     13  O   UNL     1     -38.039  17.150  -2.972  0.00  0.00    -0.065 OA
ATOM     14  O   UNL     1     -39.538  17.610  -0.988  0.00  0.00    -0.065 OA
ENDBRANCH   4  11
BRANCH   8  15
ATOM     15  S   UNL     1     -30.945  16.529  -0.054  0.00  0.00    +0.042 S 
ATOM     16  O   UNL     1     -29.886  17.086   1.059  0.00  0.00    -0.065 OA
ATOM     17  O   UNL     1     -31.190  15.128   0.258  0.00  0.00    -0.065 OA
ATOM     18  O   UNL     1     -30.468  16.924  -1.370  0.00  0.00    -0.065 OA
ENDBRANCH   8  15
BRANCH   6  19
ATOM     19  O   UNL     1     -38.280  19.973   0.372  0.00  0.00    -0.503 OA
ATOM     20  H   UNL     1     -38.835  19.730   1.087  0.00  0.00    +0.292 HD
ENDBRANCH   6  19
BRANCH   3  21
ATOM     21  N   UNL     1     -36.093  20.489   1.952  0.00  0.00    -0.125 NA
BRANCH  21  22
ATOM     22  N   UNL     1     -35.890  21.629   1.478  0.00  0.00    -0.128 NA
BRANCH  22  23
ATOM     23  C   UNL     1     -35.526  22.513   2.508  0.00  0.00    +0.085 C 
ATOM     24  C   UNL     1     -35.096  23.805   2.216  0.00  0.00    -0.005 C 
ATOM     25  C   UNL     1     -35.247  22.944   4.865  0.00  0.00    -0.024 C 
ATOM     26  C   UNL     1     -34.816  24.239   4.576  0.00  0.00    -0.026 C 
ATOM     27  C   UNL     1     -35.604  22.080   3.830  0.00  0.00    +0.013 C 
ATOM     28  C   UNL     1     -34.739  24.669   3.251  0.00  0.00    -0.007 C 
ATOM     29  C   UNL     1     -35.006  24.287   0.805  0.00  0.00    +0.032 C 
ATOM     30  C   UNL     1     -35.336  22.462   6.276  0.00  0.00    +0.031 C 
ATOM     31  C   UNL     1     -34.429  25.181   5.668  0.00  0.00    +0.031 C 
ENDBRANCH  22  23
ENDBRANCH  21  22
ENDBRANCH   3  21
TORSDOF 6
ENDMDL
MODEL 5
REMARK VINA RESULT:      -7.1      4.951      6.993
REMARK  Name = 19096
REMARK  6 active torsions:
REMARK  status: ('A' for Active; 'I' for Inactive)
REMARK    1  A    between atoms: C_3  and  N_21
REMARK    2  A    between atoms: C_4  and  S_11
REMARK    3  A    between atoms: C_6  and  O_19
REMARK    4  A    between atoms: C_8  and  S_15
REMARK    5  A    between atoms: N_21  and  N_22
REMARK    6  A    between atoms: N_22  and  C_23
REMARK                            x       y       z     vdW  Elec       q    Type
REMARK                         _______ _______ _______ _____ _____    ______ ____
ROOT
ATOM      1  C   UNL     1     -37.088  23.221   2.793  0.00  0.00    +0.020 C 
ATOM      2  C   UNL     1     -35.691  23.030   2.673  0.00  0.00    +0.004 C 
ATOM      3  C   UNL     1     -37.571  24.347   3.480  0.00  0.00    +0.124 C 
ATOM      4  C   UNL     1     -35.315  25.082   3.925  0.00  0.00    +0.147 C 
ATOM      5  C   UNL     1     -34.818  23.970   3.245  0.00  0.00    +0.022 C 
ATOM      6  C   UNL     1     -36.689  25.270   4.043  0.00  0.00    +0.168 C 
ATOM      7  C   UNL     1     -35.209  21.904   1.986  0.00  0.00    +0.019 C 
ATOM      8  C   UNL     1     -36.091  20.981   1.424  0.00  0.00    +0.112 C 
ATOM      9  C   UNL     1     -37.961  22.282   2.222  0.00  0.00    +0.003 C 
ATOM     10  C   UNL     1     -37.464  21.169   1.541  0.00  0.00    +0.019 C 
ENDROOT
BRANCH   4  11
ATOM     11  S   UNL     1     -34.187  26.226   4.618  0.00  0.00    +0.045 S 
ATOM     12  O   UNL     1     -34.616  27.676   3.998  0.00  0.00    -0.065 OA
ATOM     13  O   UNL     1     -34.435  26.284   6.051  0.00  0.00    -0.065 OA
ATOM     14  O   UNL     1     -32.871  25.884   4.104  0.00  0.00    -0.065 OA
ENDBRANCH   4  11
BRANCH   8  15
ATOM     15  S   UNL     1     -35.471  19.590   0.570  0.00  0.00    +0.042 S 
ATOM     16  O   UNL     1     -34.984  20.159  -0.883  0.00  0.00    -0.065 OA
ATOM     17  O   UNL     1     -34.279  19.129   1.267  0.00  0.00    -0.065 OA
ATOM     18  O   UNL     1     -36.595  18.693   0.350  0.00  0.00    -0.065 OA
ENDBRANCH   8  15
BRANCH   6  19
ATOM     19  O   UNL     1     -37.175  26.359   4.707  0.00  0.00    -0.503 OA
ATOM     20  H   UNL     1     -37.029  26.450   5.628  0.00  0.00    +0.292 HD
ENDBRANCH   6  19
BRANCH   3  21
ATOM     21  N   UNL     1     -38.952  24.570   3.619  0.00  0.00    -0.125 NA
BRANCH  21  22
ATOM     22  N   UNL     1     -39.274  25.613   3.009  0.00  0.00    -0.128 NA
BRANCH  22  23
ATOM     23  C   UNL     1     -40.463  25.395   2.292  0.00  0.00    +0.085 C 
ATOM     24  C   UNL     1     -41.638  26.051   2.652  0.00  0.00    -0.005 C 
ATOM     25  C   UNL     1     -41.622  24.287   0.491  0.00  0.00    -0.024 C 
ATOM     26  C   UNL     1     -42.801  24.942   0.848  0.00  0.00    -0.026 C 
ATOM     27  C   UNL     1     -40.451  24.514   1.214  0.00  0.00    +0.013 C 
ATOM     28  C   UNL     1     -42.809  25.823   1.929  0.00  0.00    -0.007 C 
ATOM     29  C   UNL     1     -41.670  27.000   3.805  0.00  0.00    +0.032 C 
ATOM     30  C   UNL     1     -41.591  23.338  -0.662  0.00  0.00    +0.031 C 
ATOM     31  C   UNL     1     -44.067  24.714   0.088  0.00  0.00    +0.031 C 
ENDBRANCH  22  23
ENDBRANCH  21  22
ENDBRANCH   3  21
TORSDOF 6
ENDMDL
MODEL 6
REMARK VINA RESULT:      -7.0      5.338      7.075
REMARK  Name = 19096
REMARK  6 active torsions:
REMARK  status: ('A' for Active; 'I' for Inactive)
REMARK    1  A    between atoms: C_3  and  N_21
REMARK    2  A    between atoms: C_4  and  S_11
REMARK    3  A    between atoms: C_6  and  O_19
REMARK    4  A    between atoms: C_8  and  S_15
REMARK    5  A    between atoms: N_21  and  N_22
REMARK    6  A    between atoms: N_22  and  C_23
REMARK                            x       y       z     vdW  Elec       q    Type
REMARK                         _______ _______ _______ _____ _____    ______ ____
ROOT
ATOM      1  C   UNL     1     -37.284  23.235   2.709  0.00  0.00    +0.020 C 
ATOM      2  C   UNL     1     -35.901  22.950   2.621  0.00  0.00    +0.004 C 
ATOM      3  C   UNL     1     -37.707  24.381   3.404  0.00  0.00    +0.124 C 
ATOM      4  C   UNL     1     -35.417  24.952   3.915  0.00  0.00    +0.147 C 
ATOM      5  C   UNL     1     -34.981  23.819   3.229  0.00  0.00    +0.022 C 
ATOM      6  C   UNL     1     -36.778  25.233   4.003  0.00  0.00    +0.168 C 
ATOM      7  C   UNL     1     -35.480  21.805   1.926  0.00  0.00    +0.019 C 
ATOM      8  C   UNL     1     -36.408  20.953   1.327  0.00  0.00    +0.112 C 
ATOM      9  C   UNL     1     -38.205  22.367   2.101  0.00  0.00    +0.003 C 
ATOM     10  C   UNL     1     -37.768  21.233   1.414  0.00  0.00    +0.019 C 
ENDROOT
BRANCH   4  11
ATOM     11  S   UNL     1     -34.232  26.005   4.655  0.00  0.00    +0.045 S 
ATOM     12  O   UNL     1     -34.599  27.504   4.117  0.00  0.00    -0.065 OA
ATOM     13  O   UNL     1     -34.464  25.998   6.092  0.00  0.00    -0.065 OA
ATOM     14  O   UNL     1     -32.937  25.631   4.109  0.00  0.00    -0.065 OA
ENDBRANCH   4  11
BRANCH   8  15
ATOM     15  S   UNL     1     -35.864  19.535   0.465  0.00  0.00    +0.042 S 
ATOM     16  O   UNL     1     -35.537  20.053  -1.051  0.00  0.00    -0.065 OA
ATOM     17  O   UNL     1     -34.600  19.112   1.050  0.00  0.00    -0.065 OA
ATOM     18  O   UNL     1     -36.993  18.622   0.397  0.00  0.00    -0.065 OA
ENDBRANCH   8  15
BRANCH   6  19
ATOM     19  O   UNL     1     -37.205  26.342   4.673  0.00  0.00    -0.503 OA
ATOM     20  H   UNL     1     -36.649  26.748   5.310  0.00  0.00    +0.292 HD
ENDBRANCH   6  19
BRANCH   3  21
ATOM     21  N   UNL     1     -39.072  24.696   3.512  0.00  0.00    -0.125 NA
BRANCH  21  22
ATOM     22  N   UNL     1     -39.322  25.723   2.844  0.00  0.00    -0.128 NA
BRANCH  22  23
ATOM     23  C   UNL     1     -40.703  25.804   2.597  0.00  0.00    +0.085 C 
ATOM     24  C   UNL     1     -41.255  25.228   1.456  0.00  0.00    -0.005 C 
ATOM     25  C   UNL     1     -42.888  26.558   3.285  0.00  0.00    -0.024 C 
ATOM     26  C   UNL     1     -43.445  25.983   2.143  0.00  0.00    -0.026 C 
ATOM     27  C   UNL     1     -41.516  26.469   3.513  0.00  0.00    +0.013 C 
ATOM     28  C   UNL     1     -42.628  25.319   1.228  0.00  0.00    -0.007 C 
ATOM     29  C   UNL     1     -40.400  24.512   0.462  0.00  0.00    +0.032 C 
ATOM     30  C   UNL     1     -43.743  27.275   4.278  0.00  0.00    +0.031 C 
ATOM     31  C   UNL     1     -44.913  26.066   1.878  0.00  0.00    +0.031 C 
ENDBRANCH  22  23
ENDBRANCH  21  22
ENDBRANCH   3  21
TORSDOF 6
ENDMDL
MODEL 7
REMARK VINA RESULT:      -6.9      8.467     12.373
REMARK  Name = 19096
REMARK  6 active torsions:
REMARK  status: ('A' for Active; 'I' for Inactive)
REMARK    1  A    between atoms: C_3  and  N_21
REMARK    2  A    between atoms: C_4  and  S_11
REMARK    3  A    between atoms: C_6  and  O_19
REMARK    4  A    between atoms: C_8  and  S_15
REMARK    5  A    between atoms: N_21  and  N_22
REMARK    6  A    between atoms: N_22  and  C_23
REMARK                            x       y       z     vdW  Elec       q    Type
REMARK                         _______ _______ _______ _____ _____    ______ ____
ROOT
ATOM      1  C   UNL     1     -31.836  30.024   4.647  0.00  0.00    +0.020 C 
ATOM      2  C   UNL     1     -30.746  30.917   4.782  0.00  0.00    +0.004 C 
ATOM      3  C   UNL     1     -31.812  28.801   5.337  0.00  0.00    +0.124 C 
ATOM      4  C   UNL     1     -29.656  29.342   6.281  0.00  0.00    +0.147 C 
ATOM      5  C   UNL     1     -29.664  30.560   5.603  0.00  0.00    +0.022 C 
ATOM      6  C   UNL     1     -30.728  28.463   6.149  0.00  0.00    +0.168 C 
ATOM      7  C   UNL     1     -30.771  32.139   4.091  0.00  0.00    +0.019 C 
ATOM      8  C   UNL     1     -31.855  32.476   3.279  0.00  0.00    +0.112 C 
ATOM      9  C   UNL     1     -32.918  30.379   3.825  0.00  0.00    +0.003 C 
ATOM     10  C   UNL     1     -32.926  31.599   3.146  0.00  0.00    +0.019 C 
ENDROOT
BRANCH   4  11
ATOM     11  S   UNL     1     -28.287  28.944   7.295  0.00  0.00    +0.045 S 
ATOM     12  O   UNL     1     -27.020  29.734   6.629  0.00  0.00    -0.065 OA
ATOM     13  O   UNL     1     -28.516  29.532   8.606  0.00  0.00    -0.065 OA
ATOM     14  O   UNL     1     -28.057  27.515   7.150  0.00  0.00    -0.065 OA
ENDBRANCH   4  11
BRANCH   8  15
ATOM     15  S   UNL     1     -31.869  34.003   2.431  0.00  0.00    +0.042 S 
ATOM     16  O   UNL     1     -31.212  35.079   3.472  0.00  0.00    -0.065 OA
ATOM     17  O   UNL     1     -30.959  33.897   1.300  0.00  0.00    -0.065 OA
ATOM     18  O   UNL     1     -33.264  34.363   2.230  0.00  0.00    -0.065 OA
ENDBRANCH   8  15
BRANCH   6  19
ATOM     19  O   UNL     1     -30.720  27.271   6.814  0.00  0.00    -0.503 OA
ATOM     20  H   UNL     1     -30.334  27.213   7.666  0.00  0.00    +0.292 HD
ENDBRANCH   6  19
BRANCH   3  21
ATOM     21  N   UNL     1     -32.875  27.889   5.228  0.00  0.00    -0.125 NA
BRANCH  21  22
ATOM     22  N   UNL     1     -32.553  26.956   4.460  0.00  0.00    -0.128 NA
BRANCH  22  23
ATOM     23  C   UNL     1     -33.675  26.153   4.191  0.00  0.00    +0.085 C 
ATOM     24  C   UNL     1     -34.438  26.361   3.045  0.00  0.00    -0.005 C 
ATOM     25  C   UNL     1     -35.124  24.337   4.838  0.00  0.00    -0.024 C 
ATOM     26  C   UNL     1     -35.891  24.541   3.691  0.00  0.00    -0.026 C 
ATOM     27  C   UNL     1     -34.014  25.144   5.089  0.00  0.00    +0.013 C 
ATOM     28  C   UNL     1     -35.548  25.554   2.795  0.00  0.00    -0.007 C 
ATOM     29  C   UNL     1     -34.090  27.438   2.071  0.00  0.00    +0.032 C 
ATOM     30  C   UNL     1     -35.473  23.260   5.812  0.00  0.00    +0.031 C 
ATOM     31  C   UNL     1     -37.083  23.690   3.402  0.00  0.00    +0.031 C 
ENDBRANCH  22  23
ENDBRANCH  21  22
ENDBRANCH   3  21
TORSDOF 6
ENDMDL
MODEL 8
REMARK VINA RESULT:      -6.9      6.414      9.538
REMARK  Name = 19096
REMARK  6 active torsions:
REMARK  status: ('A' for Active; 'I' for Inactive)
REMARK    1  A    between atoms: C_3  and  N_21
REMARK    2  A    between atoms: C_4  and  S_11
REMARK    3  A    between atoms: C_6  and  O_19
REMARK    4  A    between atoms: C_8  and  S_15
REMARK    5  A    between atoms: N_21  and  N_22
REMARK    6  A    between atoms: N_22  and  C_23
REMARK                            x       y       z     vdW  Elec       q    Type
REMARK                         _______ _______ _______ _____ _____    ______ ____
ROOT
ATOM      1  C   UNL     1     -34.234  28.172   2.927  0.00  0.00    +0.020 C 
ATOM      2  C   UNL     1     -34.080  29.579   2.944  0.00  0.00    +0.004 C 
ATOM      3  C   UNL     1     -35.227  27.599   2.115  0.00  0.00    +0.124 C 
ATOM      4  C   UNL     1     -35.903  29.786   1.348  0.00  0.00    +0.147 C 
ATOM      5  C   UNL     1     -34.922  30.371   2.149  0.00  0.00    +0.022 C 
ATOM      6  C   UNL     1     -36.056  28.403   1.331  0.00  0.00    +0.168 C 
ATOM      7  C   UNL     1     -33.087  30.150   3.757  0.00  0.00    +0.019 C 
ATOM      8  C   UNL     1     -32.259  29.346   4.540  0.00  0.00    +0.112 C 
ATOM      9  C   UNL     1     -33.392  27.378   3.723  0.00  0.00    +0.003 C 
ATOM     10  C   UNL     1     -32.410  27.963   4.524  0.00  0.00    +0.019 C 
ENDROOT
BRANCH   4  11
ATOM     11  S   UNL     1     -36.927  30.816   0.373  0.00  0.00    +0.045 S 
ATOM     12  O   UNL     1     -36.670  30.337  -1.168  0.00  0.00    -0.065 OA
ATOM     13  O   UNL     1     -38.312  30.501   0.693  0.00  0.00    -0.065 OA
ATOM     14  O   UNL     1     -36.421  32.172   0.517  0.00  0.00    -0.065 OA
ENDBRANCH   4  11
BRANCH   8  15
ATOM     15  S   UNL     1     -31.027  30.076   5.542  0.00  0.00    +0.042 S 
ATOM     16  O   UNL     1     -31.604  29.983   7.068  0.00  0.00    -0.065 OA
ATOM     17  O   UNL     1     -29.842  29.232   5.483  0.00  0.00    -0.065 OA
ATOM     18  O   UNL     1     -30.957  31.480   5.169  0.00  0.00    -0.065 OA
ENDBRANCH   8  15
BRANCH   6  19
ATOM     19  O   UNL     1     -37.015  27.831   0.547  0.00  0.00    -0.503 OA
ATOM     20  H   UNL     1     -37.812  28.292   0.370  0.00  0.00    +0.292 HD
ENDBRANCH   6  19
BRANCH   3  21
ATOM     21  N   UNL     1     -35.410  26.207   2.072  0.00  0.00    -0.125 NA
BRANCH  21  22
ATOM     22  N   UNL     1     -36.373  25.885   2.803  0.00  0.00    -0.128 NA
BRANCH  22  23
ATOM     23  C   UNL     1     -36.043  24.739   3.545  0.00  0.00    +0.085 C 
ATOM     24  C   UNL     1     -35.846  24.817   4.921  0.00  0.00    -0.005 C 
ATOM     25  C   UNL     1     -35.593  22.370   3.605  0.00  0.00    -0.024 C 
ATOM     26  C   UNL     1     -35.394  22.444   4.984  0.00  0.00    -0.026 C 
ATOM     27  C   UNL     1     -35.918  23.518   2.885  0.00  0.00    +0.013 C 
ATOM     28  C   UNL     1     -35.520  23.667   5.642  0.00  0.00    -0.007 C 
ATOM     29  C   UNL     1     -35.976  26.116   5.647  0.00  0.00    +0.032 C 
ATOM     30  C   UNL     1     -35.463  21.071   2.881  0.00  0.00    +0.031 C 
ATOM     31  C   UNL     1     -35.045  21.227   5.777  0.00  0.00    +0.031 C 
ENDBRANCH  22  23
ENDBRANCH  21  22
ENDBRANCH   3  21
TORSDOF 6
ENDMDL
MODEL 9
REMARK VINA RESULT:      -6.8      4.626      8.022
REMARK  Name = 19096
REMARK  6 active torsions:
REMARK  status: ('A' for Active; 'I' for Inactive)
REMARK    1  A    between atoms: C_3  and  N_21
REMARK    2  A    between atoms: C_4  and  S_11
REMARK    3  A    between atoms: C_6  and  O_19
REMARK    4  A    between atoms: C_8  and  S_15
REMARK    5  A    between atoms: N_21  and  N_22
REMARK    6  A    between atoms: N_22  and  C_23
REMARK                            x       y       z     vdW  Elec       q    Type
REMARK                         _______ _______ _______ _____ _____    ______ ____
ROOT
ATOM      1  C   UNL     1     -40.450  24.321   1.984  0.00  0.00    +0.020 C 
ATOM      2  C   UNL     1     -41.503  24.815   1.178  0.00  0.00    +0.004 C 
ATOM      3  C   UNL     1     -39.789  23.142   1.605  0.00  0.00    +0.124 C 
ATOM      4  C   UNL     1     -41.197  22.945  -0.347  0.00  0.00    +0.147 C 
ATOM      5  C   UNL     1     -41.864  24.115   0.016  0.00  0.00    +0.022 C 
ATOM      6  C   UNL     1     -40.161  22.459   0.446  0.00  0.00    +0.168 C 
ATOM      7  C   UNL     1     -42.164  25.994   1.559  0.00  0.00    +0.019 C 
ATOM      8  C   UNL     1     -41.792  26.677   2.717  0.00  0.00    +0.112 C 
ATOM      9  C   UNL     1     -40.089  25.021   3.147  0.00  0.00    +0.003 C 
ATOM     10  C   UNL     1     -40.757  26.192   3.510  0.00  0.00    +0.019 C 
ENDROOT
BRANCH   4  11
ATOM     11  S   UNL     1     -41.681  22.109  -1.805  0.00  0.00    +0.045 S 
ATOM     12  O   UNL     1     -42.055  20.593  -1.324  0.00  0.00    -0.065 OA
ATOM     13  O   UNL     1     -42.912  22.721  -2.283  0.00  0.00    -0.065 OA
ATOM     14  O   UNL     1     -40.506  22.036  -2.659  0.00  0.00    -0.065 OA
ENDBRANCH   4  11
BRANCH   8  15
ATOM     15  S   UNL     1     -42.624  28.144   3.171  0.00  0.00    +0.042 S 
ATOM     16  O   UNL     1     -41.937  28.609   4.579  0.00  0.00    -0.065 OA
ATOM     17  O   UNL     1     -42.304  29.166   2.185  0.00  0.00    -0.065 OA
ATOM     18  O   UNL     1     -44.007  27.780   3.440  0.00  0.00    -0.065 OA
ENDBRANCH   8  15
BRANCH   6  19
ATOM     19  O   UNL     1     -39.507  21.315   0.091  0.00  0.00    -0.503 OA
ATOM     20  H   UNL     1     -38.946  21.310  -0.660  0.00  0.00    +0.292 HD
ENDBRANCH   6  19
BRANCH   3  21
ATOM     21  N   UNL     1     -38.739  22.622   2.380  0.00  0.00    -0.125 NA
BRANCH  21  22
ATOM     22  N   UNL     1     -37.642  22.912   1.854  0.00  0.00    -0.128 NA
BRANCH  22  23
ATOM     23  C   UNL     1     -36.823  23.564   2.791  0.00  0.00    +0.085 C 
ATOM     24  C   UNL     1     -36.439  24.889   2.597  0.00  0.00    -0.005 C 
ATOM     25  C   UNL     1     -35.588  23.499   4.861  0.00  0.00    -0.024 C 
ATOM     26  C   UNL     1     -35.201  24.826   4.672  0.00  0.00    -0.026 C 
ATOM     27  C   UNL     1     -36.400  22.867   3.921  0.00  0.00    +0.013 C 
ATOM     28  C   UNL     1     -35.626  25.520   3.539  0.00  0.00    -0.007 C 
ATOM     29  C   UNL     1     -36.883  25.653   1.393  0.00  0.00    +0.032 C 
ATOM     30  C   UNL     1     -35.144  22.736   6.066  0.00  0.00    +0.031 C 
ATOM     31  C   UNL     1     -34.332  25.523   5.666  0.00  0.00    +0.031 C 
ENDBRANCH  22  23
ENDBRANCH  21  22
ENDBRANCH   3  21
TORSDOF 6
ENDMDL
