MODEL 1
REMARK VINA RESULT:      -6.1      0.000      0.000
REMARK  Name = 195972
REMARK  11 active torsions:
REMARK  status: ('A' for Active; 'I' for Inactive)
REMARK    1  A    between atoms: CA_1  and  C_4
REMARK    2  A    between atoms: CA_1  and  N_20
REMARK    3  A    between atoms: N_3  and  CA_6
REMARK    4  A    between atoms: CA_6  and  C_9
REMARK    5  A    between atoms: CA_6  and  CB_16
REMARK    6  A    between atoms: CA_10  and  C_15
REMARK    7  A    between atoms: C_21  and  CA_23
REMARK    8  A    between atoms: CA_23  and  N_25
REMARK    9  A    between atoms: CA_23  and  CB_33
REMARK   10  A    between atoms: C_26  and  CA_28
REMARK   11  A    between atoms: CA_28  and  N_29
REMARK                            x       y       z     vdW  Elec       q    Type
REMARK                         _______ _______ _______ _____ _____    ______ ____
ROOT
ATOM      1  CA  GLY A   3     -34.277  26.281   5.346  0.00  0.00    +0.176 C 
ENDROOT
BRANCH   1   4
ATOM      2  O   GLY A   3     -32.506  26.642   3.744  0.00  0.00    -0.273 OA
ATOM      3  N   VAL A   4     -32.905  28.250   5.374  0.00  0.00    -0.297 N 
ATOM      4  C   GLY A   3     -33.146  27.058   4.707  0.00  0.00    +0.243 C 
ATOM      5  H   VAL A   4     -33.483  28.484   6.135  0.00  0.00    +0.150 HD
BRANCH   3   6
ATOM      6  CA  VAL A   4     -31.848  29.165   5.008  0.00  0.00    +0.149 C 
BRANCH   6   9
ATOM      7  O   VAL A   4     -31.355  29.528   7.309  0.00  0.00    -0.273 OA
ATOM      8  N   PRO A   5     -29.673  28.629   5.997  0.00  0.00    -0.265 N 
ATOM      9  C   VAL A   4     -30.948  29.128   6.217  0.00  0.00    +0.244 C 
ATOM     10  CA  PRO A   5     -28.733  28.395   7.087  0.00  0.00    +0.163 C 
ATOM     11  CD  PRO A   5     -29.152  28.145   4.718  0.00  0.00    +0.120 C 
ATOM     12  CB  PRO A   5     -27.647  27.617   6.425  0.00  0.00    -0.002 C 
ATOM     13  CG  PRO A   5     -27.875  27.487   5.114  0.00  0.00    -0.007 C 
BRANCH  10  15
ATOM     14  O   PRO A   5     -27.907  29.970   8.700  0.00  0.00    -0.286 OA
ATOM     15  C   PRO A   5     -28.164  29.705   7.531  0.00  0.00    +0.231 C 
ENDBRANCH  10  15
ENDBRANCH   6   9
BRANCH   6  16
ATOM     16  CB  VAL A   4     -32.363  30.582   4.708  0.00  0.00    +0.027 C 
ATOM     17  CG1 VAL A   4     -33.369  30.576   3.552  0.00  0.00    +0.002 C 
ATOM     18  CG2 VAL A   4     -31.207  31.527   4.365  0.00  0.00    +0.002 C 
ENDBRANCH   6  16
ENDBRANCH   3   6
ENDBRANCH   1   4
BRANCH   1  20
ATOM     19  O   VAL A   2     -36.003  23.982   5.586  0.00  0.00    -0.273 OA
ATOM     20  N   GLY A   3     -35.115  25.711   4.317  0.00  0.00    -0.295 N 
ATOM     21  C   VAL A   2     -35.917  24.597   4.526  0.00  0.00    +0.241 C 
ATOM     22  H   GLY A   3     -35.117  26.131   3.427  0.00  0.00    +0.150 HD
BRANCH  21  23
ATOM     23  CA  VAL A   2     -36.663  24.179   3.261  0.00  0.00    +0.148 C 
BRANCH  23  25
ATOM     24  O   GLY A   1     -34.690  22.730   1.712  0.00  0.00    -0.277 OA
ATOM     25  N   VAL A   2     -36.539  22.750   3.121  0.00  0.00    -0.300 N 
ATOM     26  C   GLY A   1     -35.556  22.138   2.353  0.00  0.00    +0.201 C 
ATOM     27  H   VAL A   2     -37.184  22.178   3.596  0.00  0.00    +0.150 HD
BRANCH  26  28
ATOM     28  CA  GLY A   1     -35.637  20.629   2.440  0.00  0.00    +0.001 C 
BRANCH  28  29
ATOM     29  N   GLY A   1     -36.999  20.211   2.274  0.00  0.00    +0.386 N 
ATOM     30  H1  GLY A   1     -37.287  20.370   1.309  0.00  0.00    -0.089 HD
ATOM     31  H2  GLY A   1     -37.598  20.749   2.902  0.00  0.00    -0.089 HD
ATOM     32  H3  GLY A   1     -37.079  19.219   2.496  0.00  0.00    -0.089 HD
ENDBRANCH  28  29
ENDBRANCH  26  28
ENDBRANCH  23  25
BRANCH  23  33
ATOM     33  CB  VAL A   2     -38.129  24.662   3.261  0.00  0.00    +0.027 C 
ATOM     34  CG1 VAL A   2     -39.038  23.661   2.541  0.00  0.00    +0.002 C 
ATOM     35  CG2 VAL A   2     -38.303  26.056   2.650  0.00  0.00    +0.002 C 
ENDBRANCH  23  33
ENDBRANCH  21  23
ENDBRANCH   1  20
TORSDOF 11
ENDMDL
MODEL 2
REMARK VINA RESULT:      -6.0      1.311      2.575
REMARK  Name = 195972
REMARK  11 active torsions:
REMARK  status: ('A' for Active; 'I' for Inactive)
REMARK    1  A    between atoms: CA_1  and  C_4
REMARK    2  A    between atoms: CA_1  and  N_20
REMARK    3  A    between atoms: N_3  and  CA_6
REMARK    4  A    between atoms: CA_6  and  C_9
REMARK    5  A    between atoms: CA_6  and  CB_16
REMARK    6  A    between atoms: CA_10  and  C_15
REMARK    7  A    between atoms: C_21  and  CA_23
REMARK    8  A    between atoms: CA_23  and  N_25
REMARK    9  A    between atoms: CA_23  and  CB_33
REMARK   10  A    between atoms: C_26  and  CA_28
REMARK   11  A    between atoms: CA_28  and  N_29
REMARK                            x       y       z     vdW  Elec       q    Type
REMARK                         _______ _______ _______ _____ _____    ______ ____
ROOT
ATOM      1  CA  GLY A   3     -34.303  26.213   5.611  0.00  0.00    +0.176 C 
ENDROOT
BRANCH   1   4
ATOM      2  O   GLY A   3     -32.598  26.516   3.928  0.00  0.00    -0.273 OA
ATOM      3  N   VAL A   4     -32.884  28.147   5.558  0.00  0.00    -0.297 N 
ATOM      4  C   GLY A   3     -33.184  26.955   4.914  0.00  0.00    +0.243 C 
ATOM      5  H   VAL A   4     -33.422  28.403   6.342  0.00  0.00    +0.150 HD
BRANCH   3   6
ATOM      6  CA  VAL A   4     -31.824  29.034   5.136  0.00  0.00    +0.149 C 
BRANCH   6   9
ATOM      7  O   VAL A   4     -31.306  29.434   7.425  0.00  0.00    -0.273 OA
ATOM      8  N   PRO A   5     -29.617  28.577   6.094  0.00  0.00    -0.265 N 
ATOM      9  C   VAL A   4     -30.903  29.037   6.330  0.00  0.00    +0.244 C 
ATOM     10  CA  PRO A   5     -28.653  28.384   7.171  0.00  0.00    +0.163 C 
ATOM     11  CD  PRO A   5     -29.101  28.097   4.811  0.00  0.00    +0.120 C 
ATOM     12  CB  PRO A   5     -27.553  27.635   6.499  0.00  0.00    -0.002 C 
ATOM     13  CG  PRO A   5     -27.797  27.485   5.192  0.00  0.00    -0.007 C 
BRANCH  10  15
ATOM     14  O   PRO A   5     -27.914  30.023   8.762  0.00  0.00    -0.286 OA
ATOM     15  C   PRO A   5     -28.119  29.716   7.593  0.00  0.00    +0.231 C 
ENDBRANCH  10  15
ENDBRANCH   6   9
BRANCH   6  16
ATOM     16  CB  VAL A   4     -32.327  30.442   4.784  0.00  0.00    +0.027 C 
ATOM     17  CG1 VAL A   4     -33.249  30.415   3.559  0.00  0.00    +0.002 C 
ATOM     18  CG2 VAL A   4     -31.157  31.394   4.513  0.00  0.00    +0.002 C 
ENDBRANCH   6  16
ENDBRANCH   3   6
ENDBRANCH   1   4
BRANCH   1  20
ATOM     19  O   VAL A   2     -35.399  23.574   6.008  0.00  0.00    -0.273 OA
ATOM     20  N   GLY A   3     -35.030  25.419   4.649  0.00  0.00    -0.295 N 
ATOM     21  C   VAL A   2     -35.523  24.152   4.931  0.00  0.00    +0.241 C 
ATOM     22  H   GLY A   3     -35.183  25.792   3.751  0.00  0.00    +0.150 HD
BRANCH  21  23
ATOM     23  CA  VAL A   2     -36.211  23.518   3.723  0.00  0.00    +0.148 C 
BRANCH  23  25
ATOM     24  O   GLY A   1     -38.936  24.502   3.745  0.00  0.00    -0.277 OA
ATOM     25  N   VAL A   2     -36.764  24.578   2.918  0.00  0.00    -0.300 N 
ATOM     26  C   GLY A   1     -38.090  24.986   2.995  0.00  0.00    +0.201 C 
ATOM     27  H   VAL A   2     -36.171  25.037   2.281  0.00  0.00    +0.150 HD
BRANCH  26  28
ATOM     28  CA  GLY A   1     -38.370  26.154   2.075  0.00  0.00    +0.001 C 
BRANCH  28  29
ATOM     29  N   GLY A   1     -37.253  27.053   2.086  0.00  0.00    +0.386 N 
ATOM     30  H1  GLY A   1     -36.449  26.600   1.654  0.00  0.00    -0.089 HD
ATOM     31  H2  GLY A   1     -37.027  27.301   3.050  0.00  0.00    -0.089 HD
ATOM     32  H3  GLY A   1     -37.491  27.897   1.565  0.00  0.00    -0.089 HD
ENDBRANCH  28  29
ENDBRANCH  26  28
ENDBRANCH  23  25
BRANCH  23  33
ATOM     33  CB  VAL A   2     -35.266  22.589   2.933  0.00  0.00    +0.027 C 
ATOM     34  CG1 VAL A   2     -34.878  23.213   1.588  0.00  0.00    +0.002 C 
ATOM     35  CG2 VAL A   2     -35.847  21.189   2.709  0.00  0.00    +0.002 C 
ENDBRANCH  23  33
ENDBRANCH  21  23
ENDBRANCH   1  20
TORSDOF 11
ENDMDL
MODEL 3
REMARK VINA RESULT:      -5.9      2.626      8.651
REMARK  Name = 195972
REMARK  11 active torsions:
REMARK  status: ('A' for Active; 'I' for Inactive)
REMARK    1  A    between atoms: CA_1  and  C_4
REMARK    2  A    between atoms: CA_1  and  N_20
REMARK    3  A    between atoms: N_3  and  CA_6
REMARK    4  A    between atoms: CA_6  and  C_9
REMARK    5  A    between atoms: CA_6  and  CB_16
REMARK    6  A    between atoms: CA_10  and  C_15
REMARK    7  A    between atoms: C_21  and  CA_23
REMARK    8  A    between atoms: CA_23  and  N_25
REMARK    9  A    between atoms: CA_23  and  CB_33
REMARK   10  A    between atoms: C_26  and  CA_28
REMARK   11  A    between atoms: CA_28  and  N_29
REMARK                            x       y       z     vdW  Elec       q    Type
REMARK                         _______ _______ _______ _____ _____    ______ ____
ROOT
ATOM      1  CA  GLY A   3     -35.926  25.813   5.659  0.00  0.00    +0.176 C 
ENDROOT
BRANCH   1   4
ATOM      2  O   GLY A   3     -35.951  23.409   5.419  0.00  0.00    -0.273 OA
ATOM      3  N   VAL A   4     -37.031  24.718   3.831  0.00  0.00    -0.297 N 
ATOM      4  C   GLY A   3     -36.300  24.507   4.991  0.00  0.00    +0.243 C 
ATOM      5  H   VAL A   4     -37.257  25.644   3.584  0.00  0.00    +0.150 HD
BRANCH   3   6
ATOM      6  CA  VAL A   4     -37.477  23.649   2.968  0.00  0.00    +0.149 C 
BRANCH   6   9
ATOM      7  O   VAL A   4     -36.078  24.611   1.298  0.00  0.00    -0.273 OA
ATOM      8  N   PRO A   5     -35.805  22.353   1.732  0.00  0.00    -0.265 N 
ATOM      9  C   VAL A   4     -36.392  23.596   1.922  0.00  0.00    +0.244 C 
ATOM     10  CA  PRO A   5     -34.649  22.166   0.864  0.00  0.00    +0.163 C 
ATOM     11  CD  PRO A   5     -36.148  21.126   2.453  0.00  0.00    +0.120 C 
ATOM     12  CB  PRO A   5     -34.214  20.778   1.188  0.00  0.00    -0.002 C 
ATOM     13  CG  PRO A   5     -35.049  20.200   2.059  0.00  0.00    -0.007 C 
BRANCH  10  15
ATOM     14  O   PRO A   5     -36.103  21.616  -0.965  0.00  0.00    -0.286 OA
ATOM     15  C   PRO A   5     -35.099  22.193  -0.562  0.00  0.00    +0.231 C 
ENDBRANCH  10  15
ENDBRANCH   6   9
BRANCH   6  16
ATOM     16  CB  VAL A   4     -38.862  23.913   2.357  0.00  0.00    +0.027 C 
ATOM     17  CG1 VAL A   4     -39.721  24.785   3.279  0.00  0.00    +0.002 C 
ATOM     18  CG2 VAL A   4     -39.600  22.600   2.074  0.00  0.00    +0.002 C 
ENDBRANCH   6  16
ENDBRANCH   3   6
ENDBRANCH   1   4
BRANCH   1  20
ATOM     19  O   VAL A   2     -33.156  26.466   6.132  0.00  0.00    -0.273 OA
ATOM     20  N   GLY A   3     -35.049  26.565   4.792  0.00  0.00    -0.295 N 
ATOM     21  C   VAL A   2     -33.723  26.832   5.105  0.00  0.00    +0.241 C 
ATOM     22  H   GLY A   3     -35.408  26.905   3.941  0.00  0.00    +0.150 HD
BRANCH  21  23
ATOM     23  CA  VAL A   2     -33.039  27.683   4.037  0.00  0.00    +0.148 C 
BRANCH  23  25
ATOM     24  O   GLY A   1     -33.719  28.577   1.367  0.00  0.00    -0.277 OA
ATOM     25  N   VAL A   2     -33.935  28.751   3.675  0.00  0.00    -0.300 N 
ATOM     26  C   GLY A   1     -34.205  29.114   2.361  0.00  0.00    +0.201 C 
ATOM     27  H   VAL A   2     -34.381  29.250   4.397  0.00  0.00    +0.150 HD
BRANCH  26  28
ATOM     28  CA  GLY A   1     -35.225  30.229   2.286  0.00  0.00    +0.001 C 
BRANCH  28  29
ATOM     29  N   GLY A   1     -35.506  30.712   3.606  0.00  0.00    +0.386 N 
ATOM     30  H1  GLY A   1     -35.508  31.731   3.601  0.00  0.00    -0.089 HD
ATOM     31  H2  GLY A   1     -34.789  30.375   4.250  0.00  0.00    -0.089 HD
ATOM     32  H3  GLY A   1     -36.419  30.370   3.906  0.00  0.00    -0.089 HD
ENDBRANCH  28  29
ENDBRANCH  26  28
ENDBRANCH  23  25
BRANCH  23  33
ATOM     33  CB  VAL A   2     -31.652  28.185   4.491  0.00  0.00    +0.027 C 
ATOM     34  CG1 VAL A   2     -31.755  29.563   5.153  0.00  0.00    +0.002 C 
ATOM     35  CG2 VAL A   2     -30.626  28.229   3.354  0.00  0.00    +0.002 C 
ENDBRANCH  23  33
ENDBRANCH  21  23
ENDBRANCH   1  20
TORSDOF 11
ENDMDL
MODEL 4
REMARK VINA RESULT:      -5.8      5.769     11.245
REMARK  Name = 195972
REMARK  11 active torsions:
REMARK  status: ('A' for Active; 'I' for Inactive)
REMARK    1  A    between atoms: CA_1  and  C_4
REMARK    2  A    between atoms: CA_1  and  N_20
REMARK    3  A    between atoms: N_3  and  CA_6
REMARK    4  A    between atoms: CA_6  and  C_9
REMARK    5  A    between atoms: CA_6  and  CB_16
REMARK    6  A    between atoms: CA_10  and  C_15
REMARK    7  A    between atoms: C_21  and  CA_23
REMARK    8  A    between atoms: CA_23  and  N_25
REMARK    9  A    between atoms: CA_23  and  CB_33
REMARK   10  A    between atoms: C_26  and  CA_28
REMARK   11  A    between atoms: CA_28  and  N_29
REMARK                            x       y       z     vdW  Elec       q    Type
REMARK                         _______ _______ _______ _____ _____    ______ ____
ROOT
ATOM      1  CA  GLY A   3     -39.269  22.007   2.043  0.00  0.00    +0.176 C 
ENDROOT
BRANCH   1   4
ATOM      2  O   GLY A   3     -40.448  20.613   0.460  0.00  0.00    -0.273 OA
ATOM      3  N   VAL A   4     -38.155  20.903   0.226  0.00  0.00    -0.297 N 
ATOM      4  C   GLY A   3     -39.388  21.114   0.826  0.00  0.00    +0.243 C 
ATOM      5  H   VAL A   4     -37.368  21.358   0.605  0.00  0.00    +0.150 HD
BRANCH   3   6
ATOM      6  CA  VAL A   4     -37.967  20.050  -0.925  0.00  0.00    +0.149 C 
BRANCH   6   9
ATOM      7  O   VAL A   4     -36.452  18.812   0.431  0.00  0.00    -0.273 OA
ATOM      8  N   PRO A   5     -38.120  17.622  -0.645  0.00  0.00    -0.265 N 
ATOM      9  C   VAL A   4     -37.435  18.780  -0.311  0.00  0.00    +0.244 C 
ATOM     10  CA  PRO A   5     -37.822  16.337  -0.024  0.00  0.00    +0.163 C 
ATOM     11  CD  PRO A   5     -39.291  17.543  -1.520  0.00  0.00    +0.120 C 
ATOM     12  CB  PRO A   5     -38.958  15.483  -0.469  0.00  0.00    -0.002 C 
ATOM     13  CG  PRO A   5     -39.765  16.147  -1.304  0.00  0.00    -0.007 C 
BRANCH  10  15
ATOM     14  O   PRO A   5     -35.770  15.091   0.001  0.00  0.00    -0.286 OA
ATOM     15  C   PRO A   5     -36.564  15.788  -0.620  0.00  0.00    +0.231 C 
ENDBRANCH  10  15
ENDBRANCH   6   9
BRANCH   6  16
ATOM     16  CB  VAL A   4     -36.999  20.648  -1.959  0.00  0.00    +0.027 C 
ATOM     17  CG1 VAL A   4     -36.954  22.176  -1.862  0.00  0.00    +0.002 C 
ATOM     18  CG2 VAL A   4     -37.396  20.244  -3.383  0.00  0.00    +0.002 C 
ENDBRANCH   6  16
ENDBRANCH   3   6
ENDBRANCH   1   4
BRANCH   1  20
ATOM     19  O   VAL A   2     -37.922  24.042   3.581  0.00  0.00    -0.273 OA
ATOM     20  N   GLY A   3     -37.915  21.966   2.543  0.00  0.00    -0.295 N 
ATOM     21  C   VAL A   2     -37.348  22.998   3.278  0.00  0.00    +0.241 C 
ATOM     22  H   GLY A   3     -37.368  21.170   2.353  0.00  0.00    +0.150 HD
BRANCH  21  23
ATOM     23  CA  VAL A   2     -35.892  22.715   3.642  0.00  0.00    +0.148 C 
BRANCH  23  25
ATOM     24  O   GLY A   1     -35.129  21.679   1.047  0.00  0.00    -0.277 OA
ATOM     25  N   VAL A   2     -35.054  23.353   2.659  0.00  0.00    -0.300 N 
ATOM     26  C   GLY A   1     -34.739  22.779   1.433  0.00  0.00    +0.201 C 
ATOM     27  H   VAL A   2     -34.687  24.242   2.866  0.00  0.00    +0.150 HD
BRANCH  26  28
ATOM     28  CA  GLY A   1     -33.890  23.701   0.585  0.00  0.00    +0.001 C 
BRANCH  28  29
ATOM     29  N   GLY A   1     -34.494  25.001   0.537  0.00  0.00    +0.386 N 
ATOM     30  H1  GLY A   1     -34.087  25.536  -0.229  0.00  0.00    -0.089 HD
ATOM     31  H2  GLY A   1     -34.327  25.485   1.419  0.00  0.00    -0.089 HD
ATOM     32  H3  GLY A   1     -35.499  24.903   0.389  0.00  0.00    -0.089 HD
ENDBRANCH  28  29
ENDBRANCH  26  28
ENDBRANCH  23  25
BRANCH  23  33
ATOM     33  CB  VAL A   2     -35.559  23.140   5.087  0.00  0.00    +0.027 C 
ATOM     34  CG1 VAL A   2     -34.527  24.272   5.105  0.00  0.00    +0.002 C 
ATOM     35  CG2 VAL A   2     -35.070  21.978   5.959  0.00  0.00    +0.002 C 
ENDBRANCH  23  33
ENDBRANCH  21  23
ENDBRANCH   1  20
TORSDOF 11
ENDMDL
MODEL 5
REMARK VINA RESULT:      -5.8      2.576      9.096
REMARK  Name = 195972
REMARK  11 active torsions:
REMARK  status: ('A' for Active; 'I' for Inactive)
REMARK    1  A    between atoms: CA_1  and  C_4
REMARK    2  A    between atoms: CA_1  and  N_20
REMARK    3  A    between atoms: N_3  and  CA_6
REMARK    4  A    between atoms: CA_6  and  C_9
REMARK    5  A    between atoms: CA_6  and  CB_16
REMARK    6  A    between atoms: CA_10  and  C_15
REMARK    7  A    between atoms: C_21  and  CA_23
REMARK    8  A    between atoms: CA_23  and  N_25
REMARK    9  A    between atoms: CA_23  and  CB_33
REMARK   10  A    between atoms: C_26  and  CA_28
REMARK   11  A    between atoms: CA_28  and  N_29
REMARK                            x       y       z     vdW  Elec       q    Type
REMARK                         _______ _______ _______ _____ _____    ______ ____
ROOT
ATOM      1  CA  GLY A   3     -33.668  26.270   5.453  0.00  0.00    +0.176 C 
ENDROOT
BRANCH   1   4
ATOM      2  O   GLY A   3     -33.557  25.416   3.196  0.00  0.00    -0.273 OA
ATOM      3  N   VAL A   4     -35.094  24.501   4.680  0.00  0.00    -0.297 N 
ATOM      4  C   GLY A   3     -34.066  25.357   4.312  0.00  0.00    +0.243 C 
ATOM      5  H   VAL A   4     -35.425  24.539   5.606  0.00  0.00    +0.150 HD
BRANCH   3   6
ATOM      6  CA  VAL A   4     -35.703  23.556   3.772  0.00  0.00    +0.149 C 
BRANCH   6   9
ATOM      7  O   VAL A   4     -37.661  24.759   4.393  0.00  0.00    -0.273 OA
ATOM      8  N   PRO A   5     -37.506  24.058   2.193  0.00  0.00    -0.265 N 
ATOM      9  C   VAL A   4     -37.045  24.184   3.494  0.00  0.00    +0.244 C 
ATOM     10  CA  PRO A   5     -38.714  24.730   1.729  0.00  0.00    +0.163 C 
ATOM     11  CD  PRO A   5     -36.806  23.385   1.098  0.00  0.00    +0.120 C 
ATOM     12  CB  PRO A   5     -38.653  24.540   0.253  0.00  0.00    -0.002 C 
ATOM     13  CG  PRO A   5     -37.602  23.788  -0.095  0.00  0.00    -0.007 C 
BRANCH  10  15
ATOM     14  O   PRO A   5     -40.010  22.772   2.231  0.00  0.00    -0.286 OA
ATOM     15  C   PRO A   5     -39.911  23.994   2.245  0.00  0.00    +0.231 C 
ENDBRANCH  10  15
ENDBRANCH   6   9
BRANCH   6  16
ATOM     16  CB  VAL A   4     -35.831  22.148   4.373  0.00  0.00    +0.027 C 
ATOM     17  CG1 VAL A   4     -35.084  22.041   5.707  0.00  0.00    +0.002 C 
ATOM     18  CG2 VAL A   4     -35.295  21.085   3.409  0.00  0.00    +0.002 C 
ENDBRANCH   6  16
ENDBRANCH   3   6
ENDBRANCH   1   4
BRANCH   1  20
ATOM     19  O   VAL A   2     -31.171  27.607   4.906  0.00  0.00    -0.273 OA
ATOM     20  N   GLY A   3     -33.492  27.615   4.957  0.00  0.00    -0.295 N 
ATOM     21  C   VAL A   2     -32.244  28.177   4.722  0.00  0.00    +0.241 C 
ATOM     22  H   GLY A   3     -34.292  28.158   4.778  0.00  0.00    +0.150 HD
BRANCH  21  23
ATOM     23  CA  VAL A   2     -32.344  29.624   4.244  0.00  0.00    +0.148 C 
BRANCH  23  25
ATOM     24  O   GLY A   1     -33.282  31.580   2.324  0.00  0.00    -0.277 OA
ATOM     25  N   VAL A   2     -33.705  29.866   3.837  0.00  0.00    -0.300 N 
ATOM     26  C   GLY A   1     -34.066  30.831   2.904  0.00  0.00    +0.201 C 
ATOM     27  H   VAL A   2     -34.417  29.320   4.242  0.00  0.00    +0.150 HD
BRANCH  26  28
ATOM     28  CA  GLY A   1     -35.555  30.820   2.635  0.00  0.00    +0.001 C 
BRANCH  28  29
ATOM     29  N   GLY A   1     -35.943  29.533   2.137  0.00  0.00    +0.386 N 
ATOM     30  H1  GLY A   1     -35.202  29.160   1.544  0.00  0.00    -0.089 HD
ATOM     31  H2  GLY A   1     -36.802  29.624   1.593  0.00  0.00    -0.089 HD
ATOM     32  H3  GLY A   1     -36.104  28.899   2.921  0.00  0.00    -0.089 HD
ENDBRANCH  28  29
ENDBRANCH  26  28
ENDBRANCH  23  25
BRANCH  23  33
ATOM     33  CB  VAL A   2     -31.842  30.625   5.304  0.00  0.00    +0.027 C 
ATOM     34  CG1 VAL A   2     -30.469  31.189   4.923  0.00  0.00    +0.002 C 
ATOM     35  CG2 VAL A   2     -31.786  30.030   6.716  0.00  0.00    +0.002 C 
ENDBRANCH  23  33
ENDBRANCH  21  23
ENDBRANCH   1  20
TORSDOF 11
ENDMDL
MODEL 6
REMARK VINA RESULT:      -5.8      3.282      5.827
REMARK  Name = 195972
REMARK  11 active torsions:
REMARK  status: ('A' for Active; 'I' for Inactive)
REMARK    1  A    between atoms: CA_1  and  C_4
REMARK    2  A    between atoms: CA_1  and  N_20
REMARK    3  A    between atoms: N_3  and  CA_6
REMARK    4  A    between atoms: CA_6  and  C_9
REMARK    5  A    between atoms: CA_6  and  CB_16
REMARK    6  A    between atoms: CA_10  and  C_15
REMARK    7  A    between atoms: C_21  and  CA_23
REMARK    8  A    between atoms: CA_23  and  N_25
REMARK    9  A    between atoms: CA_23  and  CB_33
REMARK   10  A    between atoms: C_26  and  CA_28
REMARK   11  A    between atoms: CA_28  and  N_29
REMARK                            x       y       z     vdW  Elec       q    Type
REMARK                         _______ _______ _______ _____ _____    ______ ____
ROOT
ATOM      1  CA  GLY A   3     -33.370  26.448   6.065  0.00  0.00    +0.176 C 
ENDROOT
BRANCH   1   4
ATOM      2  O   GLY A   3     -32.717  28.617   5.225  0.00  0.00    -0.273 OA
ATOM      3  N   VAL A   4     -33.323  26.954   3.719  0.00  0.00    -0.297 N 
ATOM      4  C   GLY A   3     -33.080  27.469   4.985  0.00  0.00    +0.243 C 
ATOM      5  H   VAL A   4     -33.610  26.016   3.644  0.00  0.00    +0.150 HD
BRANCH   3   6
ATOM      6  CA  VAL A   4     -33.176  27.726   2.506  0.00  0.00    +0.149 C 
BRANCH   6   9
ATOM      7  O   VAL A   4     -35.516  27.402   2.208  0.00  0.00    -0.273 OA
ATOM      8  N   PRO A   5     -34.725  29.573   2.068  0.00  0.00    -0.265 N 
ATOM      9  C   VAL A   4     -34.583  28.205   2.249  0.00  0.00    +0.244 C 
ATOM     10  CA  PRO A   5     -36.032  30.208   1.953  0.00  0.00    +0.163 C 
ATOM     11  CD  PRO A   5     -33.644  30.558   2.111  0.00  0.00    +0.120 C 
ATOM     12  CB  PRO A   5     -35.705  31.658   2.056  0.00  0.00    -0.002 C 
ATOM     13  CG  PRO A   5     -34.383  31.852   2.134  0.00  0.00    -0.007 C 
BRANCH  10  15
ATOM     14  O   PRO A   5     -37.596  29.295   0.376  0.00  0.00    -0.286 OA
ATOM     15  C   PRO A   5     -36.581  29.951   0.585  0.00  0.00    +0.231 C 
ENDBRANCH  10  15
ENDBRANCH   6   9
BRANCH   6  16
ATOM     16  CB  VAL A   4     -32.619  26.901   1.337  0.00  0.00    +0.027 C 
ATOM     17  CG1 VAL A   4     -31.176  26.460   1.603  0.00  0.00    +0.002 C 
ATOM     18  CG2 VAL A   4     -32.669  27.695   0.027  0.00  0.00    +0.002 C 
ENDBRANCH   6  16
ENDBRANCH   3   6
ENDBRANCH   1   4
BRANCH   1  20
ATOM     19  O   VAL A   2     -36.245  26.415   5.831  0.00  0.00    -0.273 OA
ATOM     20  N   GLY A   3     -34.186  25.388   5.522  0.00  0.00    -0.295 N 
ATOM     21  C   VAL A   2     -35.570  25.461   5.449  0.00  0.00    +0.241 C 
ATOM     22  H   GLY A   3     -33.741  24.576   5.188  0.00  0.00    +0.150 HD
BRANCH  21  23
ATOM     23  CA  VAL A   2     -36.186  24.187   4.874  0.00  0.00    +0.148 C 
BRANCH  23  25
ATOM     24  O   GLY A   1     -38.849  24.678   3.846  0.00  0.00    -0.277 OA
ATOM     25  N   VAL A   2     -36.560  24.449   3.508  0.00  0.00    -0.300 N 
ATOM     26  C   GLY A   1     -37.870  24.675   3.102  0.00  0.00    +0.201 C 
ATOM     27  H   VAL A   2     -35.851  24.471   2.826  0.00  0.00    +0.150 HD
BRANCH  26  28
ATOM     28  CA  GLY A   1     -37.953  24.979   1.622  0.00  0.00    +0.001 C 
BRANCH  28  29
ATOM     29  N   GLY A   1     -38.161  26.385   1.431  0.00  0.00    +0.386 N 
ATOM     30  H1  GLY A   1     -39.161  26.576   1.380  0.00  0.00    -0.089 HD
ATOM     31  H2  GLY A   1     -37.712  26.679   0.563  0.00  0.00    -0.089 HD
ATOM     32  H3  GLY A   1     -37.754  26.897   2.214  0.00  0.00    -0.089 HD
ENDBRANCH  28  29
ENDBRANCH  26  28
ENDBRANCH  23  25
BRANCH  23  33
ATOM     33  CB  VAL A   2     -35.250  22.969   5.021  0.00  0.00    +0.027 C 
ATOM     34  CG1 VAL A   2     -35.413  22.004   3.843  0.00  0.00    +0.002 C 
ATOM     35  CG2 VAL A   2     -35.446  22.215   6.341  0.00  0.00    +0.002 C 
ENDBRANCH  23  33
ENDBRANCH  21  23
ENDBRANCH   1  20
TORSDOF 11
ENDMDL
MODEL 7
REMARK VINA RESULT:      -5.8      2.180      8.753
REMARK  Name = 195972
REMARK  11 active torsions:
REMARK  status: ('A' for Active; 'I' for Inactive)
REMARK    1  A    between atoms: CA_1  and  C_4
REMARK    2  A    between atoms: CA_1  and  N_20
REMARK    3  A    between atoms: N_3  and  CA_6
REMARK    4  A    between atoms: CA_6  and  C_9
REMARK    5  A    between atoms: CA_6  and  CB_16
REMARK    6  A    between atoms: CA_10  and  C_15
REMARK    7  A    between atoms: C_21  and  CA_23
REMARK    8  A    between atoms: CA_23  and  N_25
REMARK    9  A    between atoms: CA_23  and  CB_33
REMARK   10  A    between atoms: C_26  and  CA_28
REMARK   11  A    between atoms: CA_28  and  N_29
REMARK                            x       y       z     vdW  Elec       q    Type
REMARK                         _______ _______ _______ _____ _____    ______ ____
ROOT
ATOM      1  CA  GLY A   3     -35.997  25.881   5.594  0.00  0.00    +0.176 C 
ENDROOT
BRANCH   1   4
ATOM      2  O   GLY A   3     -35.992  23.470   5.438  0.00  0.00    -0.273 OA
ATOM      3  N   VAL A   4     -37.039  24.710   3.776  0.00  0.00    -0.297 N 
ATOM      4  C   GLY A   3     -36.340  24.548   4.963  0.00  0.00    +0.243 C 
ATOM      5  H   VAL A   4     -37.267  25.624   3.489  0.00  0.00    +0.150 HD
BRANCH   3   6
ATOM      6  CA  VAL A   4     -37.451  23.607   2.939  0.00  0.00    +0.149 C 
BRANCH   6   9
ATOM      7  O   VAL A   4     -36.060  24.584   1.271  0.00  0.00    -0.273 OA
ATOM      8  N   PRO A   5     -35.770  22.328   1.699  0.00  0.00    -0.265 N 
ATOM      9  C   VAL A   4     -36.365  23.565   1.893  0.00  0.00    +0.244 C 
ATOM     10  CA  PRO A   5     -34.612  22.152   0.830  0.00  0.00    +0.163 C 
ATOM     11  CD  PRO A   5     -36.103  21.096   2.416  0.00  0.00    +0.120 C 
ATOM     12  CB  PRO A   5     -34.167  20.766   1.150  0.00  0.00    -0.002 C 
ATOM     13  CG  PRO A   5     -34.997  20.179   2.019  0.00  0.00    -0.007 C 
BRANCH  10  15
ATOM     14  O   PRO A   5     -35.765  21.309  -1.100  0.00  0.00    -0.286 OA
ATOM     15  C   PRO A   5     -35.063  22.179  -0.596  0.00  0.00    +0.231 C 
ENDBRANCH  10  15
ENDBRANCH   6   9
BRANCH   6  16
ATOM     16  CB  VAL A   4     -38.844  23.810   2.324  0.00  0.00    +0.027 C 
ATOM     17  CG1 VAL A   4     -39.720  24.702   3.211  0.00  0.00    +0.002 C 
ATOM     18  CG2 VAL A   4     -39.551  22.469   2.104  0.00  0.00    +0.002 C 
ENDBRANCH   6  16
ENDBRANCH   3   6
ENDBRANCH   1   4
BRANCH   1  20
ATOM     19  O   VAL A   2     -33.181  26.294   6.060  0.00  0.00    -0.273 OA
ATOM     20  N   GLY A   3     -35.071  26.593   4.746  0.00  0.00    -0.295 N 
ATOM     21  C   VAL A   2     -33.725  26.742   5.053  0.00  0.00    +0.241 C 
ATOM     22  H   GLY A   3     -35.408  26.992   3.912  0.00  0.00    +0.150 HD
BRANCH  21  23
ATOM     23  CA  VAL A   2     -32.984  27.576   4.010  0.00  0.00    +0.148 C 
BRANCH  23  25
ATOM     24  O   GLY A   1     -32.773  30.203   5.211  0.00  0.00    -0.277 OA
ATOM     25  N   VAL A   2     -31.827  28.157   4.643  0.00  0.00    -0.300 N 
ATOM     26  C   GLY A   1     -31.816  29.432   5.196  0.00  0.00    +0.201 C 
ATOM     27  H   VAL A   2     -31.002  27.622   4.687  0.00  0.00    +0.150 HD
BRANCH  26  28
ATOM     28  CA  GLY A   1     -30.484  29.751   5.840  0.00  0.00    +0.001 C 
BRANCH  28  29
ATOM     29  N   GLY A   1     -30.167  28.745   6.810  0.00  0.00    +0.386 N 
ATOM     30  H1  GLY A   1     -31.025  28.290   7.121  0.00  0.00    -0.089 HD
ATOM     31  H2  GLY A   1     -29.702  29.178   7.609  0.00  0.00    -0.089 HD
ATOM     32  H3  GLY A   1     -29.546  28.052   6.391  0.00  0.00    -0.089 HD
ENDBRANCH  28  29
ENDBRANCH  26  28
ENDBRANCH  23  25
BRANCH  23  33
ATOM     33  CB  VAL A   2     -32.636  26.757   2.749  0.00  0.00    +0.027 C 
ATOM     34  CG1 VAL A   2     -31.143  26.863   2.419  0.00  0.00    +0.002 C 
ATOM     35  CG2 VAL A   2     -33.468  27.154   1.525  0.00  0.00    +0.002 C 
ENDBRANCH  23  33
ENDBRANCH  21  23
ENDBRANCH   1  20
TORSDOF 11
ENDMDL
MODEL 8
REMARK VINA RESULT:      -5.8      3.341      8.092
REMARK  Name = 195972
REMARK  11 active torsions:
REMARK  status: ('A' for Active; 'I' for Inactive)
REMARK    1  A    between atoms: CA_1  and  C_4
REMARK    2  A    between atoms: CA_1  and  N_20
REMARK    3  A    between atoms: N_3  and  CA_6
REMARK    4  A    between atoms: CA_6  and  C_9
REMARK    5  A    between atoms: CA_6  and  CB_16
REMARK    6  A    between atoms: CA_10  and  C_15
REMARK    7  A    between atoms: C_21  and  CA_23
REMARK    8  A    between atoms: CA_23  and  N_25
REMARK    9  A    between atoms: CA_23  and  CB_33
REMARK   10  A    between atoms: C_26  and  CA_28
REMARK   11  A    between atoms: CA_28  and  N_29
REMARK                            x       y       z     vdW  Elec       q    Type
REMARK                         _______ _______ _______ _____ _____    ______ ____
ROOT
ATOM      1  CA  GLY A   3     -35.920  26.023   5.435  0.00  0.00    +0.176 C 
ENDROOT
BRANCH   1   4
ATOM      2  O   GLY A   3     -36.118  23.616   5.462  0.00  0.00    -0.273 OA
ATOM      3  N   VAL A   4     -36.970  24.803   3.655  0.00  0.00    -0.297 N 
ATOM      4  C   GLY A   3     -36.346  24.678   4.888  0.00  0.00    +0.243 C 
ATOM      5  H   VAL A   4     -37.103  25.707   3.289  0.00  0.00    +0.150 HD
BRANCH   3   6
ATOM      6  CA  VAL A   4     -37.435  23.674   2.882  0.00  0.00    +0.149 C 
BRANCH   6   9
ATOM      7  O   VAL A   4     -36.134  24.547   1.090  0.00  0.00    -0.273 OA
ATOM      8  N   PRO A   5     -35.793  22.330   1.660  0.00  0.00    -0.265 N 
ATOM      9  C   VAL A   4     -36.397  23.571   1.794  0.00  0.00    +0.244 C 
ATOM     10  CA  PRO A   5     -34.672  22.106   0.755  0.00  0.00    +0.163 C 
ATOM     11  CD  PRO A   5     -36.076  21.148   2.476  0.00  0.00    +0.120 C 
ATOM     12  CB  PRO A   5     -34.194  20.751   1.150  0.00  0.00    -0.002 C 
ATOM     13  CG  PRO A   5     -34.976  20.218   2.095  0.00  0.00    -0.007 C 
BRANCH  10  15
ATOM     14  O   PRO A   5     -34.624  22.547  -1.605  0.00  0.00    -0.286 OA
ATOM     15  C   PRO A   5     -35.187  22.027  -0.648  0.00  0.00    +0.231 C 
ENDBRANCH  10  15
ENDBRANCH   6   9
BRANCH   6  16
ATOM     16  CB  VAL A   4     -38.851  23.878   2.320  0.00  0.00    +0.027 C 
ATOM     17  CG1 VAL A   4     -39.710  24.723   3.266  0.00  0.00    +0.002 C 
ATOM     18  CG2 VAL A   4     -39.545  22.534   2.073  0.00  0.00    +0.002 C 
ENDBRANCH   6  16
ENDBRANCH   3   6
ENDBRANCH   1   4
BRANCH   1  20
ATOM     19  O   VAL A   2     -33.049  26.307   5.403  0.00  0.00    -0.273 OA
ATOM     20  N   GLY A   3     -35.125  26.716   4.448  0.00  0.00    -0.295 N 
ATOM     21  C   VAL A   2     -33.741  26.801   4.516  0.00  0.00    +0.241 C 
ATOM     22  H   GLY A   3     -35.585  27.149   3.694  0.00  0.00    +0.150 HD
BRANCH  21  23
ATOM     23  CA  VAL A   2     -33.157  27.627   3.371  0.00  0.00    +0.148 C 
BRANCH  23  25
ATOM     24  O   GLY A   1     -30.981  25.948   2.456  0.00  0.00    -0.277 OA
ATOM     25  N   VAL A   2     -33.129  26.799   2.192  0.00  0.00    -0.300 N 
ATOM     26  C   GLY A   1     -32.036  26.022   1.828  0.00  0.00    +0.201 C 
ATOM     27  H   VAL A   2     -33.926  26.783   1.615  0.00  0.00    +0.150 HD
BRANCH  26  28
ATOM     28  CA  GLY A   1     -32.314  25.216   0.577  0.00  0.00    +0.001 C 
BRANCH  28  29
ATOM     29  N   GLY A   1     -33.594  25.582   0.046  0.00  0.00    +0.386 N 
ATOM     30  H1  GLY A   1     -34.190  24.756  -0.005  0.00  0.00    -0.089 HD
ATOM     31  H2  GLY A   1     -33.474  25.974  -0.889  0.00  0.00    -0.089 HD
ATOM     32  H3  GLY A   1     -34.028  26.279   0.652  0.00  0.00    -0.089 HD
ENDBRANCH  28  29
ENDBRANCH  26  28
ENDBRANCH  23  25
BRANCH  23  33
ATOM     33  CB  VAL A   2     -33.919  28.953   3.161  0.00  0.00    +0.027 C 
ATOM     34  CG1 VAL A   2     -34.395  29.090   1.711  0.00  0.00    +0.002 C 
ATOM     35  CG2 VAL A   2     -33.101  30.186   3.558  0.00  0.00    +0.002 C 
ENDBRANCH  23  33
ENDBRANCH  21  23
ENDBRANCH   1  20
TORSDOF 11
ENDMDL
MODEL 9
REMARK VINA RESULT:      -5.6     10.687     13.330
REMARK  Name = 195972
REMARK  11 active torsions:
REMARK  status: ('A' for Active; 'I' for Inactive)
REMARK    1  A    between atoms: CA_1  and  C_4
REMARK    2  A    between atoms: CA_1  and  N_20
REMARK    3  A    between atoms: N_3  and  CA_6
REMARK    4  A    between atoms: CA_6  and  C_9
REMARK    5  A    between atoms: CA_6  and  CB_16
REMARK    6  A    between atoms: CA_10  and  C_15
REMARK    7  A    between atoms: C_21  and  CA_23
REMARK    8  A    between atoms: CA_23  and  N_25
REMARK    9  A    between atoms: CA_23  and  CB_33
REMARK   10  A    between atoms: C_26  and  CA_28
REMARK   11  A    between atoms: CA_28  and  N_29
REMARK                            x       y       z     vdW  Elec       q    Type
REMARK                         _______ _______ _______ _____ _____    ______ ____
ROOT
ATOM      1  CA  GLY A   3     -41.965  29.912   0.661  0.00  0.00    +0.176 C 
ENDROOT
BRANCH   1   4
ATOM      2  O   GLY A   3     -44.159  30.508   1.479  0.00  0.00    -0.273 OA
ATOM      3  N   VAL A   4     -43.020  28.743   2.473  0.00  0.00    -0.297 N 
ATOM      4  C   GLY A   3     -43.181  29.768   1.552  0.00  0.00    +0.243 C 
ATOM      5  H   VAL A   4     -42.193  28.211   2.439  0.00  0.00    +0.150 HD
BRANCH   3   6
ATOM      6  CA  VAL A   4     -44.005  28.417   3.478  0.00  0.00    +0.149 C 
BRANCH   6   9
ATOM      7  O   VAL A   4     -42.341  29.032   5.066  0.00  0.00    -0.273 OA
ATOM      8  N   PRO A   5     -44.433  29.993   5.304  0.00  0.00    -0.265 N 
ATOM      9  C   VAL A   4     -43.504  29.170   4.685  0.00  0.00    +0.244 C 
ATOM     10  CA  PRO A   5     -44.069  30.893   6.391  0.00  0.00    +0.163 C 
ATOM     11  CD  PRO A   5     -45.822  30.184   4.882  0.00  0.00    +0.120 C 
ATOM     12  CB  PRO A   5     -45.283  31.747   6.534  0.00  0.00    -0.002 C 
ATOM     13  CG  PRO A   5     -46.255  31.348   5.706  0.00  0.00    -0.007 C 
BRANCH  10  15
ATOM     14  O   PRO A   5     -43.271  30.492   8.620  0.00  0.00    -0.286 OA
ATOM     15  C   PRO A   5     -43.908  30.099   7.649  0.00  0.00    +0.231 C 
ENDBRANCH  10  15
ENDBRANCH   6   9
BRANCH   6  16
ATOM     16  CB  VAL A   4     -44.116  26.907   3.738  0.00  0.00    +0.027 C 
ATOM     17  CG1 VAL A   4     -44.291  26.127   2.431  0.00  0.00    +0.002 C 
ATOM     18  CG2 VAL A   4     -45.288  26.592   4.674  0.00  0.00    +0.002 C 
ENDBRANCH   6  16
ENDBRANCH   3   6
ENDBRANCH   1   4
BRANCH   1  20
ATOM     19  O   VAL A   2     -39.734  31.721   0.921  0.00  0.00    -0.273 OA
ATOM     20  N   GLY A   3     -41.883  31.267   0.170  0.00  0.00    -0.295 N 
ATOM     21  C   VAL A   2     -40.762  32.067   0.342  0.00  0.00    +0.241 C 
ATOM     22  H   GLY A   3     -42.657  31.641  -0.310  0.00  0.00    +0.150 HD
BRANCH  21  23
ATOM     23  CA  VAL A   2     -40.958  33.468  -0.235  0.00  0.00    +0.148 C 
BRANCH  23  25
ATOM     24  O   GLY A   1     -42.536  34.066   2.120  0.00  0.00    -0.277 OA
ATOM     25  N   VAL A   2     -40.655  34.423   0.801  0.00  0.00    -0.300 N 
ATOM     26  C   GLY A   1     -41.474  34.646   1.901  0.00  0.00    +0.201 C 
ATOM     27  H   VAL A   2     -39.824  34.945   0.725  0.00  0.00    +0.150 HD
BRANCH  26  28
ATOM     28  CA  GLY A   1     -40.875  35.663   2.848  0.00  0.00    +0.001 C 
BRANCH  28  29
ATOM     29  N   GLY A   1     -41.726  35.814   3.992  0.00  0.00    +0.386 N 
ATOM     30  H1  GLY A   1     -42.050  36.779   4.049  0.00  0.00    -0.089 HD
ATOM     31  H2  GLY A   1     -41.204  35.579   4.837  0.00  0.00    -0.089 HD
ATOM     32  H3  GLY A   1     -42.528  35.190   3.903  0.00  0.00    -0.089 HD
ENDBRANCH  28  29
ENDBRANCH  26  28
ENDBRANCH  23  25
BRANCH  23  33
ATOM     33  CB  VAL A   2     -40.136  33.689  -1.521  0.00  0.00    +0.027 C 
ATOM     34  CG1 VAL A   2     -39.810  35.174  -1.718  0.00  0.00    +0.002 C 
ATOM     35  CG2 VAL A   2     -40.821  33.137  -2.776  0.00  0.00    +0.002 C 
ENDBRANCH  23  33
ENDBRANCH  21  23
ENDBRANCH   1  20
TORSDOF 11
ENDMDL
