MODEL 1
REMARK VINA RESULT:      -7.3      0.000      0.000
REMARK  Name = 195141
REMARK  7 active torsions:
REMARK  status: ('A' for Active; 'I' for Inactive)
REMARK    1  A    between atoms: C_1  and  C_4
REMARK    2  A    between atoms: C_1  and  N_16
REMARK    3  A    between atoms: C_1  and  C_20
REMARK    4  A    between atoms: N_3  and  C_6
REMARK    5  A    between atoms: C_20  and  C_21
REMARK    6  A    between atoms: C_26  and  N_27
REMARK    7  A    between atoms: N_27  and  C_30
REMARK                            x       y       z     vdW  Elec       q    Type
REMARK                         _______ _______ _______ _____ _____    ______ ____
ROOT
ATOM      1  C   UNL     1     -36.803  21.832   2.232  0.00  0.00    +0.018 C 
ENDROOT
BRANCH   1   4
ATOM      2  O   UNL     1     -35.250  20.516   3.525  0.00  0.00    -0.277 OA
ATOM      3  N   UNL     1     -34.843  20.794   1.226  0.00  0.00    -0.286 N 
ATOM      4  C   UNL     1     -35.546  20.981   2.428  0.00  0.00    +0.206 C 
ATOM      5  H   UNL     1     -35.235  21.219   0.429  0.00  0.00    +0.155 HD
BRANCH   3   6
ATOM      6  C   UNL     1     -33.662  20.081   1.018  0.00  0.00    +0.050 C 
ATOM      7  C   UNL     1     -31.433  19.943   0.055  0.00  0.00    +0.001 C 
ATOM      8  C   UNL     1     -31.284  18.646   0.600  0.00  0.00    +0.000 C 
ATOM      9  C   UNL     1     -32.628  20.648   0.273  0.00  0.00    +0.015 C 
ATOM     10  C   UNL     1     -33.516  18.805   1.555  0.00  0.00    +0.015 C 
ATOM     11  C   UNL     1     -32.336  18.091   1.349  0.00  0.00    +0.001 C 
ATOM     12  C   UNL     1     -30.381  20.499  -0.693  0.00  0.00    +0.000 C 
ATOM     13  C   UNL     1     -30.090  17.942   0.382  0.00  0.00    +0.000 C 
ATOM     14  C   UNL     1     -29.200  19.785  -0.899  0.00  0.00    +0.000 C 
ATOM     15  C   UNL     1     -29.055  18.508  -0.363  0.00  0.00    +0.000 C 
ENDBRANCH   3   6
ENDBRANCH   1   4
BRANCH   1  16
ATOM     16  N   UNL     1     -37.936  20.908   2.152  0.00  0.00    +0.388 N 
ATOM     17  H   UNL     1     -38.627  21.271   1.496  0.00  0.00    -0.089 HD
ATOM     18  H   UNL     1     -38.361  20.810   3.075  0.00  0.00    -0.089 HD
ATOM     19  H   UNL     1     -37.609  19.996   1.832  0.00  0.00    -0.089 HD
ENDBRANCH   1  16
BRANCH   1  20
ATOM     20  C   UNL     1     -36.990  22.814   3.399  0.00  0.00    +0.013 C 
BRANCH  20  21
ATOM     21  C   UNL     1     -35.848  23.795   3.533  0.00  0.00    -0.024 C 
ATOM     22  C   UNL     1     -35.404  24.476   2.412  0.00  0.00    -0.003 C 
ATOM     23  C   UNL     1     -35.268  23.994   4.775  0.00  0.00    -0.003 C 
ATOM     24  C   UNL     1     -34.351  25.381   2.536  0.00  0.00    +0.019 C 
ATOM     25  C   UNL     1     -34.215  24.899   4.899  0.00  0.00    +0.019 C 
ATOM     26  C   UNL     1     -33.756  25.593   3.780  0.00  0.00    +0.084 C 
BRANCH  26  27
ATOM     27  N   UNL     1     -32.700  26.500   3.904  0.00  0.00    -0.214 NA
BRANCH  27  30
ATOM     28  N   UNL     1     -32.503  27.991   5.693  0.00  0.00    -0.370 N 
ATOM     29  N   UNL     1     -33.605  28.734   3.838  0.00  0.00    -0.370 N 
ATOM     30  C   UNL     1     -32.935  27.682   4.425  0.00  0.00    +0.193 C 
ATOM     31  H   UNL     1     -32.010  27.322   6.221  0.00  0.00    +0.159 HD
ATOM     32  H   UNL     1     -32.686  28.880   6.073  0.00  0.00    +0.159 HD
ATOM     33  H   UNL     1     -33.966  28.641   2.927  0.00  0.00    +0.159 HD
ATOM     34  H   UNL     1     -33.722  29.579   4.331  0.00  0.00    +0.159 HD
ENDBRANCH  27  30
ENDBRANCH  26  27
ENDBRANCH  20  21
ENDBRANCH   1  20
TORSDOF 7
ENDMDL
MODEL 2
REMARK VINA RESULT:      -7.1      6.227     11.432
REMARK  Name = 195141
REMARK  7 active torsions:
REMARK  status: ('A' for Active; 'I' for Inactive)
REMARK    1  A    between atoms: C_1  and  C_4
REMARK    2  A    between atoms: C_1  and  N_16
REMARK    3  A    between atoms: C_1  and  C_20
REMARK    4  A    between atoms: N_3  and  C_6
REMARK    5  A    between atoms: C_20  and  C_21
REMARK    6  A    between atoms: C_26  and  N_27
REMARK    7  A    between atoms: N_27  and  C_30
REMARK                            x       y       z     vdW  Elec       q    Type
REMARK                         _______ _______ _______ _____ _____    ______ ____
ROOT
ATOM      1  C   UNL     1     -35.078  28.736   2.285  0.00  0.00    +0.018 C 
ENDROOT
BRANCH   1   4
ATOM      2  O   UNL     1     -35.080  30.713   3.666  0.00  0.00    -0.277 OA
ATOM      3  N   UNL     1     -36.061  30.834   1.533  0.00  0.00    -0.286 N 
ATOM      4  C   UNL     1     -35.405  30.198   2.600  0.00  0.00    +0.206 C 
ATOM      5  H   UNL     1     -36.224  30.279   0.737  0.00  0.00    +0.155 HD
BRANCH   3   6
ATOM      6  C   UNL     1     -36.510  32.153   1.458  0.00  0.00    +0.050 C 
ATOM      7  C   UNL     1     -36.079  34.493   0.950  0.00  0.00    +0.001 C 
ATOM      8  C   UNL     1     -37.411  34.809   1.308  0.00  0.00    +0.000 C 
ATOM      9  C   UNL     1     -35.643  33.160   1.031  0.00  0.00    +0.015 C 
ATOM     10  C   UNL     1     -37.820  32.464   1.810  0.00  0.00    +0.015 C 
ATOM     11  C   UNL     1     -38.269  33.782   1.736  0.00  0.00    +0.001 C 
ATOM     12  C   UNL     1     -35.221  35.519   0.521  0.00  0.00    +0.000 C 
ATOM     13  C   UNL     1     -37.847  36.141   1.227  0.00  0.00    +0.000 C 
ATOM     14  C   UNL     1     -35.671  36.838   0.447  0.00  0.00    +0.000 C 
ATOM     15  C   UNL     1     -36.982  37.149   0.799  0.00  0.00    +0.000 C 
ENDBRANCH   3   6
ENDBRANCH   1   4
BRANCH   1  16
ATOM     16  N   UNL     1     -34.468  28.713   0.954  0.00  0.00    +0.388 N 
ATOM     17  H   UNL     1     -35.011  29.297   0.319  0.00  0.00    -0.089 HD
ATOM     18  H   UNL     1     -34.451  27.753   0.605  0.00  0.00    -0.089 HD
ATOM     19  H   UNL     1     -33.514  29.069   1.011  0.00  0.00    -0.089 HD
ENDBRANCH   1  16
BRANCH   1  20
ATOM     20  C   UNL     1     -34.117  28.149   3.330  0.00  0.00    +0.013 C 
BRANCH  20  21
ATOM     21  C   UNL     1     -34.632  26.873   3.953  0.00  0.00    -0.024 C 
ATOM     22  C   UNL     1     -33.889  26.255   4.944  0.00  0.00    -0.003 C 
ATOM     23  C   UNL     1     -35.839  26.347   3.521  0.00  0.00    -0.003 C 
ATOM     24  C   UNL     1     -34.365  25.077   5.520  0.00  0.00    +0.019 C 
ATOM     25  C   UNL     1     -36.315  25.169   4.097  0.00  0.00    +0.019 C 
ATOM     26  C   UNL     1     -35.578  24.534   5.097  0.00  0.00    +0.084 C 
BRANCH  26  27
ATOM     27  N   UNL     1     -36.055  23.353   5.673  0.00  0.00    -0.214 NA
BRANCH  27  30
ATOM     28  N   UNL     1     -34.711  21.494   6.117  0.00  0.00    -0.370 N 
ATOM     29  N   UNL     1     -35.740  21.570   4.081  0.00  0.00    -0.370 N 
ATOM     30  C   UNL     1     -35.545  22.207   5.288  0.00  0.00    +0.193 C 
ATOM     31  H   UNL     1     -34.491  21.842   7.011  0.00  0.00    +0.159 HD
ATOM     32  H   UNL     1     -34.335  20.636   5.816  0.00  0.00    +0.159 HD
ATOM     33  H   UNL     1     -36.319  21.978   3.397  0.00  0.00    +0.159 HD
ATOM     34  H   UNL     1     -35.301  20.707   3.904  0.00  0.00    +0.159 HD
ENDBRANCH  27  30
ENDBRANCH  26  27
ENDBRANCH  20  21
ENDBRANCH   1  20
TORSDOF 7
ENDMDL
MODEL 3
REMARK VINA RESULT:      -7.0      6.134     11.443
REMARK  Name = 195141
REMARK  7 active torsions:
REMARK  status: ('A' for Active; 'I' for Inactive)
REMARK    1  A    between atoms: C_1  and  C_4
REMARK    2  A    between atoms: C_1  and  N_16
REMARK    3  A    between atoms: C_1  and  C_20
REMARK    4  A    between atoms: N_3  and  C_6
REMARK    5  A    between atoms: C_20  and  C_21
REMARK    6  A    between atoms: C_26  and  N_27
REMARK    7  A    between atoms: N_27  and  C_30
REMARK                            x       y       z     vdW  Elec       q    Type
REMARK                         _______ _______ _______ _____ _____    ______ ____
ROOT
ATOM      1  C   UNL     1     -34.898  28.575   2.313  0.00  0.00    +0.018 C 
ENDROOT
BRANCH   1   4
ATOM      2  O   UNL     1     -34.973  30.536   3.715  0.00  0.00    -0.277 OA
ATOM      3  N   UNL     1     -35.775  30.701   1.511  0.00  0.00    -0.286 N 
ATOM      4  C   UNL     1     -35.220  30.040   2.620  0.00  0.00    +0.206 C 
ATOM      5  H   UNL     1     -35.883  30.158   0.697  0.00  0.00    +0.155 HD
BRANCH   3   6
ATOM      6  C   UNL     1     -36.189  32.030   1.417  0.00  0.00    +0.050 C 
ATOM      7  C   UNL     1     -37.950  33.699   1.595  0.00  0.00    +0.001 C 
ATOM      8  C   UNL     1     -37.025  34.705   1.227  0.00  0.00    +0.000 C 
ATOM      9  C   UNL     1     -37.517  32.366   1.686  0.00  0.00    +0.015 C 
ATOM     10  C   UNL     1     -35.279  33.019   1.055  0.00  0.00    +0.015 C 
ATOM     11  C   UNL     1     -35.693  34.347   0.960  0.00  0.00    +0.001 C 
ATOM     12  C   UNL     1     -39.282  34.056   1.863  0.00  0.00    +0.000 C 
ATOM     13  C   UNL     1     -37.458  36.037   1.137  0.00  0.00    +0.000 C 
ATOM     14  C   UNL     1     -39.696  35.385   1.768  0.00  0.00    +0.000 C 
ATOM     15  C   UNL     1     -38.785  36.374   1.406  0.00  0.00    +0.000 C 
ENDBRANCH   3   6
ENDBRANCH   1   4
BRANCH   1  16
ATOM     16  N   UNL     1     -34.197  28.552   1.027  0.00  0.00    +0.388 N 
ATOM     17  H   UNL     1     -33.266  28.157   1.154  0.00  0.00    -0.089 HD
ATOM     18  H   UNL     1     -34.118  29.504   0.666  0.00  0.00    -0.089 HD
ATOM     19  H   UNL     1     -34.722  27.981   0.365  0.00  0.00    -0.089 HD
ENDBRANCH   1  16
BRANCH   1  20
ATOM     20  C   UNL     1     -34.021  27.963   3.416  0.00  0.00    +0.013 C 
BRANCH  20  21
ATOM     21  C   UNL     1     -34.588  26.679   3.975  0.00  0.00    -0.024 C 
ATOM     22  C   UNL     1     -35.739  26.148   3.420  0.00  0.00    -0.003 C 
ATOM     23  C   UNL     1     -33.943  26.057   5.032  0.00  0.00    -0.003 C 
ATOM     24  C   UNL     1     -36.262  24.962   3.935  0.00  0.00    +0.019 C 
ATOM     25  C   UNL     1     -34.466  24.871   5.547  0.00  0.00    +0.019 C 
ATOM     26  C   UNL     1     -35.625  24.323   4.999  0.00  0.00    +0.084 C 
BRANCH  26  27
ATOM     27  N   UNL     1     -36.149  23.135   5.516  0.00  0.00    -0.214 NA
BRANCH  27  30
ATOM     28  N   UNL     1     -35.608  21.386   4.064  0.00  0.00    -0.370 N 
ATOM     29  N   UNL     1     -34.710  21.310   6.161  0.00  0.00    -0.370 N 
ATOM     30  C   UNL     1     -35.515  22.009   5.286  0.00  0.00    +0.193 C 
ATOM     31  H   UNL     1     -36.156  21.784   3.350  0.00  0.00    +0.159 HD
ATOM     32  H   UNL     1     -35.129  20.542   3.904  0.00  0.00    +0.159 HD
ATOM     33  H   UNL     1     -34.561  21.652   7.072  0.00  0.00    +0.159 HD
ATOM     34  H   UNL     1     -34.285  20.470   5.874  0.00  0.00    +0.159 HD
ENDBRANCH  27  30
ENDBRANCH  26  27
ENDBRANCH  20  21
ENDBRANCH   1  20
TORSDOF 7
ENDMDL
MODEL 4
REMARK VINA RESULT:      -7.0      2.044      2.756
REMARK  Name = 195141
REMARK  7 active torsions:
REMARK  status: ('A' for Active; 'I' for Inactive)
REMARK    1  A    between atoms: C_1  and  C_4
REMARK    2  A    between atoms: C_1  and  N_16
REMARK    3  A    between atoms: C_1  and  C_20
REMARK    4  A    between atoms: N_3  and  C_6
REMARK    5  A    between atoms: C_20  and  C_21
REMARK    6  A    between atoms: C_26  and  N_27
REMARK    7  A    between atoms: N_27  and  C_30
REMARK                            x       y       z     vdW  Elec       q    Type
REMARK                         _______ _______ _______ _____ _____    ______ ____
ROOT
ATOM      1  C   UNL     1     -36.185  20.419   1.104  0.00  0.00    +0.018 C 
ENDROOT
BRANCH   1   4
ATOM      2  O   UNL     1     -34.909  19.896  -0.875  0.00  0.00    -0.277 OA
ATOM      3  N   UNL     1     -34.379  18.785   1.129  0.00  0.00    -0.286 N 
ATOM      4  C   UNL     1     -35.102  19.676   0.318  0.00  0.00    +0.206 C 
ATOM      5  H   UNL     1     -34.649  18.750   2.075  0.00  0.00    +0.155 HD
BRANCH   3   6
ATOM      6  C   UNL     1     -33.327  17.945   0.763  0.00  0.00    +0.050 C 
ATOM      7  C   UNL     1     -30.942  17.468   0.705  0.00  0.00    +0.001 C 
ATOM      8  C   UNL     1     -31.208  16.255   0.028  0.00  0.00    +0.000 C 
ATOM      9  C   UNL     1     -32.013  18.303   1.066  0.00  0.00    +0.015 C 
ATOM     10  C   UNL     1     -33.588  16.751   0.097  0.00  0.00    +0.015 C 
ATOM     11  C   UNL     1     -32.537  15.910  -0.268  0.00  0.00    +0.001 C 
ATOM     12  C   UNL     1     -29.613  17.812   1.002  0.00  0.00    +0.000 C 
ATOM     13  C   UNL     1     -30.138  15.420  -0.333  0.00  0.00    +0.000 C 
ATOM     14  C   UNL     1     -28.561  16.971   0.637  0.00  0.00    +0.000 C 
ATOM     15  C   UNL     1     -28.823  15.777  -0.030  0.00  0.00    +0.000 C 
ENDBRANCH   3   6
ENDBRANCH   1   4
BRANCH   1  16
ATOM     16  N   UNL     1     -37.458  19.761   0.805  0.00  0.00    +0.388 N 
ATOM     17  H   UNL     1     -38.224  20.417   0.956  0.00  0.00    -0.089 HD
ATOM     18  H   UNL     1     -37.575  18.953   1.416  0.00  0.00    -0.089 HD
ATOM     19  H   UNL     1     -37.461  19.454  -0.168  0.00  0.00    -0.089 HD
ENDBRANCH   1  16
BRANCH   1  20
ATOM     20  C   UNL     1     -35.897  20.376   2.612  0.00  0.00    +0.013 C 
BRANCH  20  21
ATOM     21  C   UNL     1     -35.519  21.725   3.179  0.00  0.00    -0.024 C 
ATOM     22  C   UNL     1     -35.452  21.888   4.553  0.00  0.00    -0.003 C 
ATOM     23  C   UNL     1     -35.246  22.771   2.314  0.00  0.00    -0.003 C 
ATOM     24  C   UNL     1     -35.102  23.133   5.076  0.00  0.00    +0.019 C 
ATOM     25  C   UNL     1     -34.896  24.016   2.837  0.00  0.00    +0.019 C 
ATOM     26  C   UNL     1     -34.824  24.197   4.218  0.00  0.00    +0.084 C 
BRANCH  26  27
ATOM     27  N   UNL     1     -34.474  25.444   4.742  0.00  0.00    -0.214 NA
BRANCH  27  30
ATOM     28  N   UNL     1     -36.471  26.478   5.378  0.00  0.00    -0.370 N 
ATOM     29  N   UNL     1     -35.210  27.538   3.799  0.00  0.00    -0.370 N 
ATOM     30  C   UNL     1     -35.320  26.441   4.627  0.00  0.00    +0.193 C 
ATOM     31  H   UNL     1     -36.669  25.750   6.011  0.00  0.00    +0.159 HD
ATOM     32  H   UNL     1     -37.098  27.231   5.282  0.00  0.00    +0.159 HD
ATOM     33  H   UNL     1     -34.428  27.632   3.208  0.00  0.00    +0.159 HD
ATOM     34  H   UNL     1     -35.913  28.227   3.799  0.00  0.00    +0.159 HD
ENDBRANCH  27  30
ENDBRANCH  26  27
ENDBRANCH  20  21
ENDBRANCH   1  20
TORSDOF 7
ENDMDL
MODEL 5
REMARK VINA RESULT:      -6.9      1.736      2.319
REMARK  Name = 195141
REMARK  7 active torsions:
REMARK  status: ('A' for Active; 'I' for Inactive)
REMARK    1  A    between atoms: C_1  and  C_4
REMARK    2  A    between atoms: C_1  and  N_16
REMARK    3  A    between atoms: C_1  and  C_20
REMARK    4  A    between atoms: N_3  and  C_6
REMARK    5  A    between atoms: C_20  and  C_21
REMARK    6  A    between atoms: C_26  and  N_27
REMARK    7  A    between atoms: N_27  and  C_30
REMARK                            x       y       z     vdW  Elec       q    Type
REMARK                         _______ _______ _______ _____ _____    ______ ____
ROOT
ATOM      1  C   UNL     1     -36.166  20.449   1.113  0.00  0.00    +0.018 C 
ENDROOT
BRANCH   1   4
ATOM      2  O   UNL     1     -35.052  19.497  -0.803  0.00  0.00    -0.277 OA
ATOM      3  N   UNL     1     -33.805  19.852   1.159  0.00  0.00    -0.286 N 
ATOM      4  C   UNL     1     -34.964  19.866   0.365  0.00  0.00    +0.206 C 
ATOM      5  H   UNL     1     -33.905  20.209   2.071  0.00  0.00    +0.155 HD
BRANCH   3   6
ATOM      6  C   UNL     1     -32.531  19.397   0.819  0.00  0.00    +0.050 C 
ATOM      7  C   UNL     1     -30.393  19.766  -0.280  0.00  0.00    +0.001 C 
ATOM      8  C   UNL     1     -29.966  18.482   0.133  0.00  0.00    +0.000 C 
ATOM      9  C   UNL     1     -31.679  20.209   0.071  0.00  0.00    +0.015 C 
ATOM     10  C   UNL     1     -32.111  18.134   1.226  0.00  0.00    +0.015 C 
ATOM     11  C   UNL     1     -30.838  17.678   0.887  0.00  0.00    +0.001 C 
ATOM     12  C   UNL     1     -29.520  20.571  -1.032  0.00  0.00    +0.000 C 
ATOM     13  C   UNL     1     -28.681  18.039  -0.217  0.00  0.00    +0.000 C 
ATOM     14  C   UNL     1     -28.246  20.115  -1.372  0.00  0.00    +0.000 C 
ATOM     15  C   UNL     1     -27.827  18.851  -0.965  0.00  0.00    +0.000 C 
ENDBRANCH   3   6
ENDBRANCH   1   4
BRANCH   1  16
ATOM     16  N   UNL     1     -37.333  19.650   0.736  0.00  0.00    +0.388 N 
ATOM     17  H   UNL     1     -37.040  18.696   0.526  0.00  0.00    -0.089 HD
ATOM     18  H   UNL     1     -37.774  20.060  -0.089  0.00  0.00    -0.089 HD
ATOM     19  H   UNL     1     -38.001  19.639   1.507  0.00  0.00    -0.089 HD
ENDBRANCH   1  16
BRANCH   1  20
ATOM     20  C   UNL     1     -35.946  20.399   2.632  0.00  0.00    +0.013 C 
BRANCH  20  21
ATOM     21  C   UNL     1     -35.564  21.739   3.217  0.00  0.00    -0.024 C 
ATOM     22  C   UNL     1     -35.420  21.864   4.589  0.00  0.00    -0.003 C 
ATOM     23  C   UNL     1     -35.364  22.816   2.369  0.00  0.00    -0.003 C 
ATOM     24  C   UNL     1     -35.066  23.100   5.129  0.00  0.00    +0.019 C 
ATOM     25  C   UNL     1     -35.011  24.053   2.909  0.00  0.00    +0.019 C 
ATOM     26  C   UNL     1     -34.862  24.195   4.289  0.00  0.00    +0.084 C 
BRANCH  26  27
ATOM     27  N   UNL     1     -34.508  25.435   4.829  0.00  0.00    -0.214 NA
BRANCH  27  30
ATOM     28  N   UNL     1     -36.529  26.465   5.389  0.00  0.00    -0.370 N 
ATOM     29  N   UNL     1     -35.174  27.566   3.920  0.00  0.00    -0.370 N 
ATOM     30  C   UNL     1     -35.339  26.443   4.702  0.00  0.00    +0.193 C 
ATOM     31  H   UNL     1     -36.767  25.718   5.984  0.00  0.00    +0.159 HD
ATOM     32  H   UNL     1     -37.144  27.226   5.285  0.00  0.00    +0.159 HD
ATOM     33  H   UNL     1     -34.360  27.673   3.377  0.00  0.00    +0.159 HD
ATOM     34  H   UNL     1     -35.871  28.262   3.905  0.00  0.00    +0.159 HD
ENDBRANCH  27  30
ENDBRANCH  26  27
ENDBRANCH  20  21
ENDBRANCH   1  20
TORSDOF 7
ENDMDL
MODEL 6
REMARK VINA RESULT:      -6.9      1.753      2.734
REMARK  Name = 195141
REMARK  7 active torsions:
REMARK  status: ('A' for Active; 'I' for Inactive)
REMARK    1  A    between atoms: C_1  and  C_4
REMARK    2  A    between atoms: C_1  and  N_16
REMARK    3  A    between atoms: C_1  and  C_20
REMARK    4  A    between atoms: N_3  and  C_6
REMARK    5  A    between atoms: C_20  and  C_21
REMARK    6  A    between atoms: C_26  and  N_27
REMARK    7  A    between atoms: N_27  and  C_30
REMARK                            x       y       z     vdW  Elec       q    Type
REMARK                         _______ _______ _______ _____ _____    ______ ____
ROOT
ATOM      1  C   UNL     1     -35.853  20.300   1.400  0.00  0.00    +0.018 C 
ENDROOT
BRANCH   1   4
ATOM      2  O   UNL     1     -34.919  19.525  -0.684  0.00  0.00    -0.277 OA
ATOM      3  N   UNL     1     -33.452  20.052   1.077  0.00  0.00    -0.286 N 
ATOM      4  C   UNL     1     -34.709  19.900   0.467  0.00  0.00    +0.206 C 
ATOM      5  H   UNL     1     -33.462  20.389   2.002  0.00  0.00    +0.155 HD
BRANCH   3   6
ATOM      6  C   UNL     1     -32.193  19.789   0.538  0.00  0.00    +0.050 C 
ATOM      7  C   UNL     1     -30.264  18.322   0.325  0.00  0.00    +0.001 C 
ATOM      8  C   UNL     1     -29.657  19.257  -0.547  0.00  0.00    +0.000 C 
ATOM      9  C   UNL     1     -31.532  18.602   0.859  0.00  0.00    +0.015 C 
ATOM     10  C   UNL     1     -31.596  20.708  -0.320  0.00  0.00    +0.015 C 
ATOM     11  C   UNL     1     -30.338  20.446  -0.860  0.00  0.00    +0.001 C 
ATOM     12  C   UNL     1     -29.584  17.132   0.636  0.00  0.00    +0.000 C 
ATOM     13  C   UNL     1     -28.390  18.977  -1.081  0.00  0.00    +0.000 C 
ATOM     14  C   UNL     1     -28.325  16.870   0.097  0.00  0.00    +0.000 C 
ATOM     15  C   UNL     1     -27.728  17.791  -0.761  0.00  0.00    +0.000 C 
ENDBRANCH   3   6
ENDBRANCH   1   4
BRANCH   1  16
ATOM     16  N   UNL     1     -36.912  19.302   1.232  0.00  0.00    +0.388 N 
ATOM     17  H   UNL     1     -36.797  18.563   1.925  0.00  0.00    -0.089 HD
ATOM     18  H   UNL     1     -36.855  18.902   0.294  0.00  0.00    -0.089 HD
ATOM     19  H   UNL     1     -37.821  19.747   1.356  0.00  0.00    -0.089 HD
ENDBRANCH   1  16
BRANCH   1  20
ATOM     20  C   UNL     1     -35.382  20.344   2.862  0.00  0.00    +0.013 C 
BRANCH  20  21
ATOM     21  C   UNL     1     -35.594  21.693   3.509  0.00  0.00    -0.024 C 
ATOM     22  C   UNL     1     -36.054  22.749   2.741  0.00  0.00    -0.003 C 
ATOM     23  C   UNL     1     -35.325  21.846   4.860  0.00  0.00    -0.003 C 
ATOM     24  C   UNL     1     -36.251  23.993   3.339  0.00  0.00    +0.019 C 
ATOM     25  C   UNL     1     -35.522  23.090   5.458  0.00  0.00    +0.019 C 
ATOM     26  C   UNL     1     -35.985  24.164   4.698  0.00  0.00    +0.084 C 
BRANCH  26  27
ATOM     27  N   UNL     1     -36.182  25.411   5.298  0.00  0.00    -0.214 NA
BRANCH  27  30
ATOM     28  N   UNL     1     -35.374  27.334   4.244  0.00  0.00    -0.370 N 
ATOM     29  N   UNL     1     -34.083  26.436   5.898  0.00  0.00    -0.370 N 
ATOM     30  C   UNL     1     -35.252  26.329   5.174  0.00  0.00    +0.193 C 
ATOM     31  H   UNL     1     -36.166  27.371   3.661  0.00  0.00    +0.159 HD
ATOM     32  H   UNL     1     -34.670  28.016   4.160  0.00  0.00    +0.159 HD
ATOM     33  H   UNL     1     -33.875  25.776   6.598  0.00  0.00    +0.159 HD
ATOM     34  H   UNL     1     -33.456  27.173   5.714  0.00  0.00    +0.159 HD
ENDBRANCH  27  30
ENDBRANCH  26  27
ENDBRANCH  20  21
ENDBRANCH   1  20
TORSDOF 7
ENDMDL
MODEL 7
REMARK VINA RESULT:      -6.8      3.992      9.857
REMARK  Name = 195141
REMARK  7 active torsions:
REMARK  status: ('A' for Active; 'I' for Inactive)
REMARK    1  A    between atoms: C_1  and  C_4
REMARK    2  A    between atoms: C_1  and  N_16
REMARK    3  A    between atoms: C_1  and  C_20
REMARK    4  A    between atoms: N_3  and  C_6
REMARK    5  A    between atoms: C_20  and  C_21
REMARK    6  A    between atoms: C_26  and  N_27
REMARK    7  A    between atoms: N_27  and  C_30
REMARK                            x       y       z     vdW  Elec       q    Type
REMARK                         _______ _______ _______ _____ _____    ______ ____
ROOT
ATOM      1  C   UNL     1     -33.419  26.404   5.281  0.00  0.00    +0.018 C 
ENDROOT
BRANCH   1   4
ATOM      2  O   UNL     1     -32.831  27.353   3.143  0.00  0.00    -0.277 OA
ATOM      3  N   UNL     1     -32.805  28.748   5.035  0.00  0.00    -0.286 N 
ATOM      4  C   UNL     1     -32.975  27.534   4.348  0.00  0.00    +0.206 C 
ATOM      5  H   UNL     1     -32.987  28.723   6.002  0.00  0.00    +0.155 HD
BRANCH   3   6
ATOM      6  C   UNL     1     -32.411  29.983   4.520  0.00  0.00    +0.050 C 
ATOM      7  C   UNL     1     -32.887  31.936   3.149  0.00  0.00    +0.001 C 
ATOM      8  C   UNL     1     -31.619  32.470   3.483  0.00  0.00    +0.000 C 
ATOM      9  C   UNL     1     -33.268  30.691   3.676  0.00  0.00    +0.015 C 
ATOM     10  C   UNL     1     -31.165  30.509   4.848  0.00  0.00    +0.015 C 
ATOM     11  C   UNL     1     -30.770  31.744   4.334  0.00  0.00    +0.001 C 
ATOM     12  C   UNL     1     -33.737  32.662   2.299  0.00  0.00    +0.000 C 
ATOM     13  C   UNL     1     -31.239  33.714   2.956  0.00  0.00    +0.000 C 
ATOM     14  C   UNL     1     -33.342  33.898   1.785  0.00  0.00    +0.000 C 
ATOM     15  C   UNL     1     -32.095  34.423   2.113  0.00  0.00    +0.000 C 
ENDBRANCH   3   6
ENDBRANCH   1   4
BRANCH   1  16
ATOM     16  N   UNL     1     -33.246  26.888   6.652  0.00  0.00    +0.388 N 
ATOM     17  H   UNL     1     -33.634  27.827   6.733  0.00  0.00    -0.089 HD
ATOM     18  H   UNL     1     -32.252  26.908   6.882  0.00  0.00    -0.089 HD
ATOM     19  H   UNL     1     -33.731  26.263   7.296  0.00  0.00    -0.089 HD
ENDBRANCH   1  16
BRANCH   1  20
ATOM     20  C   UNL     1     -34.885  26.023   5.024  0.00  0.00    +0.013 C 
BRANCH  20  21
ATOM     21  C   UNL     1     -35.052  24.587   4.584  0.00  0.00    -0.024 C 
ATOM     22  C   UNL     1     -35.260  23.605   5.538  0.00  0.00    -0.003 C 
ATOM     23  C   UNL     1     -34.997  24.281   3.234  0.00  0.00    -0.003 C 
ATOM     24  C   UNL     1     -35.415  22.280   5.132  0.00  0.00    +0.019 C 
ATOM     25  C   UNL     1     -35.153  22.956   2.827  0.00  0.00    +0.019 C 
ATOM     26  C   UNL     1     -35.362  21.955   3.776  0.00  0.00    +0.084 C 
BRANCH  26  27
ATOM     27  N   UNL     1     -35.517  20.627   3.368  0.00  0.00    -0.214 NA
BRANCH  27  30
ATOM     28  N   UNL     1     -35.888  19.634   1.285  0.00  0.00    -0.370 N 
ATOM     29  N   UNL     1     -37.646  20.733   2.240  0.00  0.00    -0.370 N 
ATOM     30  C   UNL     1     -36.324  20.360   2.368  0.00  0.00    +0.193 C 
ATOM     31  H   UNL     1     -34.960  19.308   1.255  0.00  0.00    +0.159 HD
ATOM     32  H   UNL     1     -36.502  19.441   0.542  0.00  0.00    +0.159 HD
ATOM     33  H   UNL     1     -38.081  21.258   2.950  0.00  0.00    +0.159 HD
ATOM     34  H   UNL     1     -38.154  20.473   1.437  0.00  0.00    +0.159 HD
ENDBRANCH  27  30
ENDBRANCH  26  27
ENDBRANCH  20  21
ENDBRANCH   1  20
TORSDOF 7
ENDMDL
MODEL 8
REMARK VINA RESULT:      -6.7      5.715      8.877
REMARK  Name = 195141
REMARK  7 active torsions:
REMARK  status: ('A' for Active; 'I' for Inactive)
REMARK    1  A    between atoms: C_1  and  C_4
REMARK    2  A    between atoms: C_1  and  N_16
REMARK    3  A    between atoms: C_1  and  C_20
REMARK    4  A    between atoms: N_3  and  C_6
REMARK    5  A    between atoms: C_20  and  C_21
REMARK    6  A    between atoms: C_26  and  N_27
REMARK    7  A    between atoms: N_27  and  C_30
REMARK                            x       y       z     vdW  Elec       q    Type
REMARK                         _______ _______ _______ _____ _____    ______ ____
ROOT
ATOM      1  C   UNL     1     -34.933  30.361   2.978  0.00  0.00    +0.018 C 
ENDROOT
BRANCH   1   4
ATOM      2  O   UNL     1     -33.555  28.543   2.197  0.00  0.00    -0.277 OA
ATOM      3  N   UNL     1     -35.506  28.033   3.405  0.00  0.00    -0.286 N 
ATOM      4  C   UNL     1     -34.572  28.885   2.793  0.00  0.00    +0.206 C 
ATOM      5  H   UNL     1     -36.255  28.477   3.865  0.00  0.00    +0.155 HD
BRANCH   3   6
ATOM      6  C   UNL     1     -35.506  26.638   3.444  0.00  0.00    +0.050 C 
ATOM      7  C   UNL     1     -35.357  24.573   4.720  0.00  0.00    +0.001 C 
ATOM      8  C   UNL     1     -35.506  23.831   3.524  0.00  0.00    +0.000 C 
ATOM      9  C   UNL     1     -35.359  25.976   4.663  0.00  0.00    +0.015 C 
ATOM     10  C   UNL     1     -35.654  25.909   2.268  0.00  0.00    +0.015 C 
ATOM     11  C   UNL     1     -35.655  24.515   2.306  0.00  0.00    +0.001 C 
ATOM     12  C   UNL     1     -35.210  23.889   5.939  0.00  0.00    +0.000 C 
ATOM     13  C   UNL     1     -35.505  22.428   3.581  0.00  0.00    +0.000 C 
ATOM     14  C   UNL     1     -35.210  22.494   5.977  0.00  0.00    +0.000 C 
ATOM     15  C   UNL     1     -35.357  21.765   4.799  0.00  0.00    +0.000 C 
ENDBRANCH   3   6
ENDBRANCH   1   4
BRANCH   1  16
ATOM     16  N   UNL     1     -33.952  30.928   3.906  0.00  0.00    +0.388 N 
ATOM     17  H   UNL     1     -33.135  31.247   3.386  0.00  0.00    -0.089 HD
ATOM     18  H   UNL     1     -33.670  30.215   4.580  0.00  0.00    -0.089 HD
ATOM     19  H   UNL     1     -34.368  31.716   4.401  0.00  0.00    -0.089 HD
ENDBRANCH   1  16
BRANCH   1  20
ATOM     20  C   UNL     1     -34.900  31.109   1.636  0.00  0.00    +0.013 C 
BRANCH  20  21
ATOM     21  C   UNL     1     -35.919  32.221   1.556  0.00  0.00    -0.024 C 
ATOM     22  C   UNL     1     -35.509  33.491   1.188  0.00  0.00    -0.003 C 
ATOM     23  C   UNL     1     -37.245  31.948   1.851  0.00  0.00    -0.003 C 
ATOM     24  C   UNL     1     -36.450  34.518   1.113  0.00  0.00    +0.019 C 
ATOM     25  C   UNL     1     -38.186  32.975   1.775  0.00  0.00    +0.019 C 
ATOM     26  C   UNL     1     -37.789  34.260   1.406  0.00  0.00    +0.084 C 
BRANCH  26  27
ATOM     27  N   UNL     1     -38.733  35.288   1.332  0.00  0.00    -0.214 NA
BRANCH  27  30
ATOM     28  N   UNL     1     -39.581  35.678   3.474  0.00  0.00    -0.370 N 
ATOM     29  N   UNL     1     -41.045  34.911   1.900  0.00  0.00    -0.370 N 
ATOM     30  C   UNL     1     -39.745  35.283   2.167  0.00  0.00    +0.193 C 
ATOM     31  H   UNL     1     -38.696  35.968   3.792  0.00  0.00    +0.159 HD
ATOM     32  H   UNL     1     -40.348  35.669   4.090  0.00  0.00    +0.159 HD
ATOM     33  H   UNL     1     -41.295  34.607   0.997  0.00  0.00    +0.159 HD
ATOM     34  H   UNL     1     -41.724  34.949   2.613  0.00  0.00    +0.159 HD
ENDBRANCH  27  30
ENDBRANCH  26  27
ENDBRANCH  20  21
ENDBRANCH   1  20
TORSDOF 7
ENDMDL
MODEL 9
REMARK VINA RESULT:      -6.7      4.240     10.161
REMARK  Name = 195141
REMARK  7 active torsions:
REMARK  status: ('A' for Active; 'I' for Inactive)
REMARK    1  A    between atoms: C_1  and  C_4
REMARK    2  A    between atoms: C_1  and  N_16
REMARK    3  A    between atoms: C_1  and  C_20
REMARK    4  A    between atoms: N_3  and  C_6
REMARK    5  A    between atoms: C_20  and  C_21
REMARK    6  A    between atoms: C_26  and  N_27
REMARK    7  A    between atoms: N_27  and  C_30
REMARK                            x       y       z     vdW  Elec       q    Type
REMARK                         _______ _______ _______ _____ _____    ______ ____
ROOT
ATOM      1  C   UNL     1     -33.759  26.897   4.033  0.00  0.00    +0.018 C 
ENDROOT
BRANCH   1   4
ATOM      2  O   UNL     1     -33.457  27.883   1.853  0.00  0.00    -0.277 OA
ATOM      3  N   UNL     1     -34.387  29.203   3.563  0.00  0.00    -0.286 N 
ATOM      4  C   UNL     1     -33.829  28.036   3.013  0.00  0.00    +0.206 C 
ATOM      5  H   UNL     1     -34.656  29.145   4.508  0.00  0.00    +0.155 HD
BRANCH   3   6
ATOM      6  C   UNL     1     -34.608  30.431   2.939  0.00  0.00    +0.050 C 
ATOM      7  C   UNL     1     -33.834  32.664   2.363  0.00  0.00    +0.001 C 
ATOM      8  C   UNL     1     -35.052  32.904   1.684  0.00  0.00    +0.000 C 
ATOM      9  C   UNL     1     -33.627  31.422   2.986  0.00  0.00    +0.015 C 
ATOM     10  C   UNL     1     -35.805  30.666   2.270  0.00  0.00    +0.015 C 
ATOM     11  C   UNL     1     -36.027  31.893   1.646  0.00  0.00    +0.001 C 
ATOM     12  C   UNL     1     -32.858  33.674   2.400  0.00  0.00    +0.000 C 
ATOM     13  C   UNL     1     -35.258  34.145   1.061  0.00  0.00    +0.000 C 
ATOM     14  C   UNL     1     -33.080  34.902   1.775  0.00  0.00    +0.000 C 
ATOM     15  C   UNL     1     -34.278  35.137   1.107  0.00  0.00    +0.000 C 
ENDBRANCH   3   6
ENDBRANCH   1   4
BRANCH   1  16
ATOM     16  N   UNL     1     -33.179  27.454   5.257  0.00  0.00    +0.388 N 
ATOM     17  H   UNL     1     -32.220  27.749   5.076  0.00  0.00    -0.089 HD
ATOM     18  H   UNL     1     -33.185  26.743   5.990  0.00  0.00    -0.089 HD
ATOM     19  H   UNL     1     -33.731  28.257   5.559  0.00  0.00    -0.089 HD
ENDBRANCH   1  16
BRANCH   1  20
ATOM     20  C   UNL     1     -35.156  26.321   4.311  0.00  0.00    +0.013 C 
BRANCH  20  21
ATOM     21  C   UNL     1     -35.246  24.837   4.043  0.00  0.00    -0.024 C 
ATOM     22  C   UNL     1     -35.556  23.977   5.083  0.00  0.00    -0.003 C 
ATOM     23  C   UNL     1     -35.017  24.365   2.760  0.00  0.00    -0.003 C 
ATOM     24  C   UNL     1     -35.640  22.607   4.834  0.00  0.00    +0.019 C 
ATOM     25  C   UNL     1     -35.101  22.995   2.512  0.00  0.00    +0.019 C 
ATOM     26  C   UNL     1     -35.413  22.116   3.549  0.00  0.00    +0.084 C 
BRANCH  26  27
ATOM     27  N   UNL     1     -35.496  20.743   3.299  0.00  0.00    -0.214 NA
BRANCH  27  30
ATOM     28  N   UNL     1     -35.761  19.510   1.332  0.00  0.00    -0.370 N 
ATOM     29  N   UNL     1     -37.602  20.596   2.133  0.00  0.00    -0.370 N 
ATOM     30  C   UNL     1     -36.264  20.321   2.322  0.00  0.00    +0.193 C 
ATOM     31  H   UNL     1     -34.815  19.240   1.352  0.00  0.00    +0.159 HD
ATOM     32  H   UNL     1     -36.347  19.200   0.605  0.00  0.00    +0.159 HD
ATOM     33  H   UNL     1     -38.082  21.167   2.775  0.00  0.00    +0.159 HD
ATOM     34  H   UNL     1     -38.076  20.220   1.356  0.00  0.00    +0.159 HD
ENDBRANCH  27  30
ENDBRANCH  26  27
ENDBRANCH  20  21
ENDBRANCH   1  20
TORSDOF 7
ENDMDL
