MODEL 1
REMARK VINA RESULT:      -5.4      0.000      0.000
REMARK  Name = 195779
REMARK  6 active torsions:
REMARK  status: ('A' for Active; 'I' for Inactive)
REMARK    1  A    between atoms: N_2  and  C1*_13
REMARK    2  A    between atoms: C_7  and  C_21
REMARK    3  A    between atoms: C3*_12  and  O3*_16
REMARK    4  A    between atoms: C4*_15  and  C5*_18
REMARK    5  A    between atoms: C5*_18  and  O5*_19
REMARK    6  A    between atoms: C_21  and  O_22
REMARK                            x       y       z     vdW  Elec       q    Type
REMARK                         _______ _______ _______ _____ _____    ______ ____
ROOT
ATOM      1  O   UNL     1     -34.863  20.167   2.852  0.00  0.00    -0.193 OA
ATOM      2  N   UNL     1     -36.460  21.818   2.686  0.00  0.00    -0.180 N 
ATOM      3  N   UNL     1     -36.558  19.819   1.386  0.00  0.00    -0.306 NA
ATOM      4  N   UNL     1     -38.268  19.427  -0.118  0.00  0.00    -0.306 N 
ATOM      5  C   UNL     1     -37.623  22.263   2.099  0.00  0.00    +0.081 C 
ATOM      6  C   UNL     1     -35.904  20.579   2.337  0.00  0.00    +0.275 C 
ATOM      7  C   UNL     1     -38.279  21.553   1.177  0.00  0.00    +0.068 C 
ATOM      8  C   UNL     1     -37.665  20.233   0.822  0.00  0.00    +0.194 C 
ATOM      9  C   UNL     1     -37.735  18.154  -0.476  0.00  0.00    +0.110 C 
ATOM     10  H   UNL     1     -39.092  19.740  -0.556  0.00  0.00    +0.149 HD
ENDROOT
BRANCH   2  13
ATOM     11  O4* UNL     1     -36.854  23.317   4.439  0.00  0.00    -0.334 OA
ATOM     12  C3* UNL     1     -35.129  24.889   4.019  0.00  0.00    +0.144 C 
ATOM     13  C1* UNL     1     -35.839  22.663   3.664  0.00  0.00    +0.209 C 
ATOM     14  C2* UNL     1     -34.974  23.747   3.043  0.00  0.00    +0.084 C 
ATOM     15  C4* UNL     1     -36.558  24.726   4.518  0.00  0.00    +0.173 C 
BRANCH  12  16
ATOM     16  O3* UNL     1     -34.216  24.723   5.102  0.00  0.00    -0.382 OA
ATOM     17  H3* UNL     1     -33.446  25.296   4.967  0.00  0.00    +0.210 HD
ENDBRANCH  12  16
BRANCH  15  18
ATOM     18  C5* UNL     1     -37.574  25.466   3.657  0.00  0.00    +0.169 C 
BRANCH  18  19
ATOM     19  O5* UNL     1     -38.873  24.985   3.966  0.00  0.00    -0.379 OA
ATOM     20  H5* UNL     1     -38.900  24.701   4.893  0.00  0.00    +0.211 HD
ENDBRANCH  18  19
ENDBRANCH  15  18
ENDBRANCH   2  13
BRANCH   7  21
ATOM     21  C   UNL     1     -39.541  22.006   0.521  0.00  0.00    +0.174 C 
BRANCH  21  22
ATOM     22  O   UNL     1     -40.539  21.007   0.647  0.00  0.00    -0.346 OA
ATOM     23  C   UNL     1     -41.419  20.998  -0.470  0.00  0.00    +0.175 C 
ENDBRANCH  21  22
ENDBRANCH   7  21
TORSDOF 6
ENDMDL
MODEL 2
REMARK VINA RESULT:      -5.3      3.791      6.277
REMARK  Name = 195779
REMARK  6 active torsions:
REMARK  status: ('A' for Active; 'I' for Inactive)
REMARK    1  A    between atoms: N_2  and  C1*_13
REMARK    2  A    between atoms: C_7  and  C_21
REMARK    3  A    between atoms: C3*_12  and  O3*_16
REMARK    4  A    between atoms: C4*_15  and  C5*_18
REMARK    5  A    between atoms: C5*_18  and  O5*_19
REMARK    6  A    between atoms: C_21  and  O_22
REMARK                            x       y       z     vdW  Elec       q    Type
REMARK                         _______ _______ _______ _____ _____    ______ ____
ROOT
ATOM      1  O   UNL     1     -33.119  26.514   5.336  0.00  0.00    -0.193 OA
ATOM      2  N   UNL     1     -34.716  25.567   3.972  0.00  0.00    -0.180 N 
ATOM      3  N   UNL     1     -34.245  27.906   3.945  0.00  0.00    -0.306 NA
ATOM      4  N   UNL     1     -35.370  29.358   2.542  0.00  0.00    -0.306 N 
ATOM      5  C   UNL     1     -35.673  25.743   3.000  0.00  0.00    +0.081 C 
ATOM      6  C   UNL     1     -33.979  26.654   4.465  0.00  0.00    +0.275 C 
ATOM      7  C   UNL     1     -35.954  26.939   2.477  0.00  0.00    +0.068 C 
ATOM      8  C   UNL     1     -35.154  28.084   3.020  0.00  0.00    +0.194 C 
ATOM      9  C   UNL     1     -34.621  30.477   3.010  0.00  0.00    +0.110 C 
ATOM     10  H   UNL     1     -36.062  29.499   1.857  0.00  0.00    +0.149 HD
ENDROOT
BRANCH   2  13
ATOM     11  O4* UNL     1     -34.739  23.296   3.407  0.00  0.00    -0.334 OA
ATOM     12  C3* UNL     1     -35.630  22.392   5.410  0.00  0.00    +0.144 C 
ATOM     13  C1* UNL     1     -34.497  24.237   4.462  0.00  0.00    +0.209 C 
ATOM     14  C2* UNL     1     -35.419  23.874   5.615  0.00  0.00    +0.084 C 
ATOM     15  C4* UNL     1     -35.595  22.244   3.896  0.00  0.00    +0.173 C 
BRANCH  12  16
ATOM     16  O3* UNL     1     -34.548  21.669   5.994  0.00  0.00    -0.382 OA
ATOM     17  H3* UNL     1     -33.851  22.287   6.258  0.00  0.00    +0.210 HD
ENDBRANCH  12  16
BRANCH  15  18
ATOM     18  C5* UNL     1     -36.964  22.419   3.251  0.00  0.00    +0.169 C 
BRANCH  18  19
ATOM     19  O5* UNL     1     -37.310  21.219   2.577  0.00  0.00    -0.379 OA
ATOM     20  H5* UNL     1     -37.168  21.331   1.624  0.00  0.00    +0.211 HD
ENDBRANCH  18  19
ENDBRANCH  15  18
ENDBRANCH   2  13
BRANCH   7  21
ATOM     21  C   UNL     1     -36.986  27.165   1.422  0.00  0.00    +0.174 C 
BRANCH  21  22
ATOM     22  O   UNL     1     -38.282  26.964   1.962  0.00  0.00    -0.346 OA
ATOM     23  C   UNL     1     -39.144  26.320   1.032  0.00  0.00    +0.175 C 
ENDBRANCH  21  22
ENDBRANCH   7  21
TORSDOF 6
ENDMDL
MODEL 3
REMARK VINA RESULT:      -5.2      2.441      4.013
REMARK  Name = 195779
REMARK  6 active torsions:
REMARK  status: ('A' for Active; 'I' for Inactive)
REMARK    1  A    between atoms: N_2  and  C1*_13
REMARK    2  A    between atoms: C_7  and  C_21
REMARK    3  A    between atoms: C3*_12  and  O3*_16
REMARK    4  A    between atoms: C4*_15  and  C5*_18
REMARK    5  A    between atoms: C5*_18  and  O5*_19
REMARK    6  A    between atoms: C_21  and  O_22
REMARK                            x       y       z     vdW  Elec       q    Type
REMARK                         _______ _______ _______ _____ _____    ______ ____
ROOT
ATOM      1  O   UNL     1     -37.754  26.616   2.518  0.00  0.00    -0.193 OA
ATOM      2  N   UNL     1     -37.371  24.373   2.876  0.00  0.00    -0.180 N 
ATOM      3  N   UNL     1     -39.399  25.179   1.912  0.00  0.00    -0.306 NA
ATOM      4  N   UNL     1     -41.100  23.747   1.279  0.00  0.00    -0.306 N 
ATOM      5  C   UNL     1     -37.833  23.080   2.781  0.00  0.00    +0.081 C 
ATOM      6  C   UNL     1     -38.152  25.453   2.439  0.00  0.00    +0.275 C 
ATOM      7  C   UNL     1     -39.033  22.782   2.276  0.00  0.00    +0.068 C 
ATOM      8  C   UNL     1     -39.848  23.952   1.816  0.00  0.00    +0.194 C 
ATOM      9  C   UNL     1     -41.906  24.825   0.808  0.00  0.00    +0.110 C 
ATOM     10  H   UNL     1     -41.448  22.829   1.219  0.00  0.00    +0.149 HD
ENDROOT
BRANCH   2  13
ATOM     11  O4* UNL     1     -35.414  23.310   3.593  0.00  0.00    -0.334 OA
ATOM     12  C3* UNL     1     -34.912  24.630   5.497  0.00  0.00    +0.144 C 
ATOM     13  C1* UNL     1     -36.067  24.577   3.435  0.00  0.00    +0.209 C 
ATOM     14  C2* UNL     1     -36.108  25.239   4.803  0.00  0.00    +0.084 C 
ATOM     15  C4* UNL     1     -34.856  23.223   4.919  0.00  0.00    +0.173 C 
BRANCH  12  16
ATOM     16  O3* UNL     1     -33.733  25.349   5.139  0.00  0.00    -0.382 OA
ATOM     17  H3* UNL     1     -33.424  25.863   5.901  0.00  0.00    +0.210 HD
ENDBRANCH  12  16
BRANCH  15  18
ATOM     18  C5* UNL     1     -35.690  22.224   5.712  0.00  0.00    +0.169 C 
BRANCH  18  19
ATOM     19  O5* UNL     1     -35.166  20.922   5.502  0.00  0.00    -0.379 OA
ATOM     20  H5* UNL     1     -34.820  20.855   4.599  0.00  0.00    +0.211 HD
ENDBRANCH  18  19
ENDBRANCH  15  18
ENDBRANCH   2  13
BRANCH   7  21
ATOM     21  C   UNL     1     -39.565  21.392   2.159  0.00  0.00    +0.174 C 
BRANCH  21  22
ATOM     22  O   UNL     1     -39.975  21.140   0.825  0.00  0.00    -0.346 OA
ATOM     23  C   UNL     1     -38.882  20.750   0.004  0.00  0.00    +0.175 C 
ENDBRANCH  21  22
ENDBRANCH   7  21
TORSDOF 6
ENDMDL
MODEL 4
REMARK VINA RESULT:      -5.2      3.808      7.322
REMARK  Name = 195779
REMARK  6 active torsions:
REMARK  status: ('A' for Active; 'I' for Inactive)
REMARK    1  A    between atoms: N_2  and  C1*_13
REMARK    2  A    between atoms: C_7  and  C_21
REMARK    3  A    between atoms: C3*_12  and  O3*_16
REMARK    4  A    between atoms: C4*_15  and  C5*_18
REMARK    5  A    between atoms: C5*_18  and  O5*_19
REMARK    6  A    between atoms: C_21  and  O_22
REMARK                            x       y       z     vdW  Elec       q    Type
REMARK                         _______ _______ _______ _____ _____    ______ ____
ROOT
ATOM      1  O   UNL     1     -37.597  26.218   1.925  0.00  0.00    -0.193 OA
ATOM      2  N   UNL     1     -35.759  25.413   3.058  0.00  0.00    -0.180 N 
ATOM      3  N   UNL     1     -36.004  27.723   2.509  0.00  0.00    -0.306 NA
ATOM      4  N   UNL     1     -34.404  29.287   3.086  0.00  0.00    -0.306 N 
ATOM      5  C   UNL     1     -34.550  25.679   3.660  0.00  0.00    +0.081 C 
ATOM      6  C   UNL     1     -36.513  26.439   2.468  0.00  0.00    +0.275 C 
ATOM      7  C   UNL     1     -34.031  26.908   3.715  0.00  0.00    +0.068 C 
ATOM      8  C   UNL     1     -34.854  27.986   3.078  0.00  0.00    +0.194 C 
ATOM      9  C   UNL     1     -35.159  30.352   2.512  0.00  0.00    +0.110 C 
ATOM     10  H   UNL     1     -33.534  29.489   3.500  0.00  0.00    +0.149 HD
ENDROOT
BRANCH   2  13
ATOM     11  O4* UNL     1     -36.703  23.717   4.364  0.00  0.00    -0.334 OA
ATOM     12  C3* UNL     1     -35.514  21.848   3.517  0.00  0.00    +0.144 C 
ATOM     13  C1* UNL     1     -36.221  24.056   3.056  0.00  0.00    +0.209 C 
ATOM     14  C2* UNL     1     -35.127  23.061   2.704  0.00  0.00    +0.084 C 
ATOM     15  C4* UNL     1     -36.136  22.454   4.767  0.00  0.00    +0.173 C 
BRANCH  12  16
ATOM     16  O3* UNL     1     -36.491  21.088   2.808  0.00  0.00    -0.382 OA
ATOM     17  H3* UNL     1     -37.132  20.720   3.436  0.00  0.00    +0.210 HD
ENDBRANCH  12  16
BRANCH  15  18
ATOM     18  C5* UNL     1     -35.115  22.729   5.863  0.00  0.00    +0.169 C 
BRANCH  18  19
ATOM     19  O5* UNL     1     -34.494  21.507   6.228  0.00  0.00    -0.379 OA
ATOM     20  H5* UNL     1     -33.689  21.384   5.701  0.00  0.00    +0.211 HD
ENDBRANCH  18  19
ENDBRANCH  15  18
ENDBRANCH   2  13
BRANCH   7  21
ATOM     21  C   UNL     1     -32.723  27.231   4.359  0.00  0.00    +0.174 C 
BRANCH  21  22
ATOM     22  O   UNL     1     -32.938  27.941   5.567  0.00  0.00    -0.346 OA
ATOM     23  C   UNL     1     -32.797  27.098   6.704  0.00  0.00    +0.175 C 
ENDBRANCH  21  22
ENDBRANCH   7  21
TORSDOF 6
ENDMDL
MODEL 5
REMARK VINA RESULT:      -5.2      2.976      6.781
REMARK  Name = 195779
REMARK  6 active torsions:
REMARK  status: ('A' for Active; 'I' for Inactive)
REMARK    1  A    between atoms: N_2  and  C1*_13
REMARK    2  A    between atoms: C_7  and  C_21
REMARK    3  A    between atoms: C3*_12  and  O3*_16
REMARK    4  A    between atoms: C4*_15  and  C5*_18
REMARK    5  A    between atoms: C5*_18  and  O5*_19
REMARK    6  A    between atoms: C_21  and  O_22
REMARK                            x       y       z     vdW  Elec       q    Type
REMARK                         _______ _______ _______ _____ _____    ______ ____
ROOT
ATOM      1  O   UNL     1     -35.380  22.919   6.219  0.00  0.00    -0.193 OA
ATOM      2  N   UNL     1     -35.739  23.849   4.142  0.00  0.00    -0.180 N 
ATOM      3  N   UNL     1     -34.448  24.948   5.822  0.00  0.00    -0.306 NA
ATOM      4  N   UNL     1     -33.482  27.015   5.456  0.00  0.00    -0.306 N 
ATOM      5  C   UNL     1     -35.527  24.902   3.283  0.00  0.00    +0.081 C 
ATOM      6  C   UNL     1     -35.199  23.854   5.437  0.00  0.00    +0.275 C 
ATOM      7  C   UNL     1     -34.806  25.974   3.624  0.00  0.00    +0.068 C 
ATOM      8  C   UNL     1     -34.240  25.955   5.011  0.00  0.00    +0.194 C 
ATOM      9  C   UNL     1     -32.903  27.036   6.760  0.00  0.00    +0.110 C 
ATOM     10  H   UNL     1     -33.335  27.781   4.857  0.00  0.00    +0.149 HD
ENDROOT
BRANCH   2  13
ATOM     11  O4* UNL     1     -35.664  21.657   3.327  0.00  0.00    -0.334 OA
ATOM     12  C3* UNL     1     -37.373  21.779   1.687  0.00  0.00    +0.144 C 
ATOM     13  C1* UNL     1     -36.528  22.749   3.670  0.00  0.00    +0.209 C 
ATOM     14  C2* UNL     1     -37.338  23.093   2.431  0.00  0.00    +0.084 C 
ATOM     15  C4* UNL     1     -36.026  21.156   2.024  0.00  0.00    +0.173 C 
BRANCH  12  16
ATOM     16  O3* UNL     1     -38.426  20.965   2.200  0.00  0.00    -0.382 OA
ATOM     17  H3* UNL     1     -38.817  21.393   2.976  0.00  0.00    +0.210 HD
ENDBRANCH  12  16
BRANCH  15  18
ATOM     18  C5* UNL     1     -34.927  21.556   1.048  0.00  0.00    +0.169 C 
BRANCH  18  19
ATOM     19  O5* UNL     1     -33.980  20.503   0.966  0.00  0.00    -0.379 OA
ATOM     20  H5* UNL     1     -33.179  20.822   0.523  0.00  0.00    +0.211 HD
ENDBRANCH  18  19
ENDBRANCH  15  18
ENDBRANCH   2  13
BRANCH   7  21
ATOM     21  C   UNL     1     -34.558  27.133   2.717  0.00  0.00    +0.174 C 
BRANCH  21  22
ATOM     22  O   UNL     1     -34.929  28.341   3.361  0.00  0.00    -0.346 OA
ATOM     23  C   UNL     1     -34.968  29.432   2.450  0.00  0.00    +0.175 C 
ENDBRANCH  21  22
ENDBRANCH   7  21
TORSDOF 6
ENDMDL
MODEL 6
REMARK VINA RESULT:      -5.2      4.314      6.640
REMARK  Name = 195779
REMARK  6 active torsions:
REMARK  status: ('A' for Active; 'I' for Inactive)
REMARK    1  A    between atoms: N_2  and  C1*_13
REMARK    2  A    between atoms: C_7  and  C_21
REMARK    3  A    between atoms: C3*_12  and  O3*_16
REMARK    4  A    between atoms: C4*_15  and  C5*_18
REMARK    5  A    between atoms: C5*_18  and  O5*_19
REMARK    6  A    between atoms: C_21  and  O_22
REMARK                            x       y       z     vdW  Elec       q    Type
REMARK                         _______ _______ _______ _____ _____    ______ ____
ROOT
ATOM      1  O   UNL     1     -35.486  27.880   1.799  0.00  0.00    -0.193 OA
ATOM      2  N   UNL     1     -34.360  26.859   3.530  0.00  0.00    -0.180 N 
ATOM      3  N   UNL     1     -36.614  26.305   2.977  0.00  0.00    -0.306 NA
ATOM      4  N   UNL     1     -37.798  24.706   4.152  0.00  0.00    -0.306 N 
ATOM      5  C   UNL     1     -34.379  25.939   4.553  0.00  0.00    +0.081 C 
ATOM      6  C   UNL     1     -35.486  27.060   2.718  0.00  0.00    +0.275 C 
ATOM      7  C   UNL     1     -35.453  25.195   4.829  0.00  0.00    +0.068 C 
ATOM      8  C   UNL     1     -36.642  25.427   3.948  0.00  0.00    +0.194 C 
ATOM      9  C   UNL     1     -38.950  24.874   3.329  0.00  0.00    +0.110 C 
ATOM     10  H   UNL     1     -37.830  24.055   4.890  0.00  0.00    +0.149 HD
ENDROOT
BRANCH   2  13
ATOM     11  O4* UNL     1     -32.155  27.160   4.253  0.00  0.00    -0.334 OA
ATOM     12  C3* UNL     1     -31.993  29.519   4.083  0.00  0.00    +0.144 C 
ATOM     13  C1* UNL     1     -33.152  27.605   3.323  0.00  0.00    +0.209 C 
ATOM     14  C2* UNL     1     -33.337  29.098   3.537  0.00  0.00    +0.084 C 
ATOM     15  C4* UNL     1     -31.551  28.305   4.887  0.00  0.00    +0.173 C 
BRANCH  12  16
ATOM     16  O3* UNL     1     -31.086  29.743   3.005  0.00  0.00    -0.382 OA
ATOM     17  H3* UNL     1     -31.037  28.948   2.453  0.00  0.00    +0.210 HD
ENDBRANCH  12  16
BRANCH  15  18
ATOM     18  C5* UNL     1     -32.031  28.345   6.333  0.00  0.00    +0.169 C 
BRANCH  18  19
ATOM     19  O5* UNL     1     -31.867  27.058   6.906  0.00  0.00    -0.379 OA
ATOM     20  H5* UNL     1     -31.346  26.501   6.307  0.00  0.00    +0.211 HD
ENDBRANCH  18  19
ENDBRANCH  15  18
ENDBRANCH   2  13
BRANCH   7  21
ATOM     21  C   UNL     1     -35.507  24.188   5.931  0.00  0.00    +0.174 C 
BRANCH  21  22
ATOM     22  O   UNL     1     -36.016  22.959   5.440  0.00  0.00    -0.346 OA
ATOM     23  C   UNL     1     -35.164  21.869   5.770  0.00  0.00    +0.175 C 
ENDBRANCH  21  22
ENDBRANCH   7  21
TORSDOF 6
ENDMDL
MODEL 7
REMARK VINA RESULT:      -5.1      1.829      3.802
REMARK  Name = 195779
REMARK  6 active torsions:
REMARK  status: ('A' for Active; 'I' for Inactive)
REMARK    1  A    between atoms: N_2  and  C1*_13
REMARK    2  A    between atoms: C_7  and  C_21
REMARK    3  A    between atoms: C3*_12  and  O3*_16
REMARK    4  A    between atoms: C4*_15  and  C5*_18
REMARK    5  A    between atoms: C5*_18  and  O5*_19
REMARK    6  A    between atoms: C_21  and  O_22
REMARK                            x       y       z     vdW  Elec       q    Type
REMARK                         _______ _______ _______ _____ _____    ______ ____
ROOT
ATOM      1  O   UNL     1     -39.057  23.738   1.872  0.00  0.00    -0.193 OA
ATOM      2  N   UNL     1     -37.040  23.244   2.870  0.00  0.00    -0.180 N 
ATOM      3  N   UNL     1     -38.091  21.761   1.323  0.00  0.00    -0.306 NA
ATOM      4  N   UNL     1     -37.140  19.738   0.738  0.00  0.00    -0.306 N 
ATOM      5  C   UNL     1     -35.996  22.359   3.017  0.00  0.00    +0.081 C 
ATOM      6  C   UNL     1     -38.114  22.957   2.014  0.00  0.00    +0.275 C 
ATOM      7  C   UNL     1     -35.945  21.195   2.364  0.00  0.00    +0.068 C 
ATOM      8  C   UNL     1     -37.102  20.913   1.456  0.00  0.00    +0.194 C 
ATOM      9  C   UNL     1     -38.208  19.432  -0.156  0.00  0.00    +0.110 C 
ATOM     10  H   UNL     1     -36.407  19.090   0.845  0.00  0.00    +0.149 HD
ENDROOT
BRANCH   2  13
ATOM     11  O4* UNL     1     -36.349  25.479   2.837  0.00  0.00    -0.334 OA
ATOM     12  C3* UNL     1     -35.602  25.702   5.076  0.00  0.00    +0.144 C 
ATOM     13  C1* UNL     1     -36.993  24.464   3.620  0.00  0.00    +0.209 C 
ATOM     14  C2* UNL     1     -36.212  24.330   4.917  0.00  0.00    +0.084 C 
ATOM     15  C4* UNL     1     -35.347  26.135   3.639  0.00  0.00    +0.173 C 
BRANCH  12  16
ATOM     16  O3* UNL     1     -36.546  26.580   5.687  0.00  0.00    -0.382 OA
ATOM     17  H3* UNL     1     -36.121  27.431   5.876  0.00  0.00    +0.210 HD
ENDBRANCH  12  16
BRANCH  15  18
ATOM     18  C5* UNL     1     -33.980  25.704   3.124  0.00  0.00    +0.169 C 
BRANCH  18  19
ATOM     19  O5* UNL     1     -33.093  25.582   4.224  0.00  0.00    -0.379 OA
ATOM     20  H5* UNL     1     -32.349  25.011   3.978  0.00  0.00    +0.211 HD
ENDBRANCH  18  19
ENDBRANCH  15  18
ENDBRANCH   2  13
BRANCH   7  21
ATOM     21  C   UNL     1     -34.828  20.213   2.501  0.00  0.00    +0.174 C 
BRANCH  21  22
ATOM     22  O   UNL     1     -34.166  20.056   1.257  0.00  0.00    -0.346 OA
ATOM     23  C   UNL     1     -33.400  18.858   1.217  0.00  0.00    +0.175 C 
ENDBRANCH  21  22
ENDBRANCH   7  21
TORSDOF 6
ENDMDL
MODEL 8
REMARK VINA RESULT:      -5.0      3.495      5.439
REMARK  Name = 195779
REMARK  6 active torsions:
REMARK  status: ('A' for Active; 'I' for Inactive)
REMARK    1  A    between atoms: N_2  and  C1*_13
REMARK    2  A    between atoms: C_7  and  C_21
REMARK    3  A    between atoms: C3*_12  and  O3*_16
REMARK    4  A    between atoms: C4*_15  and  C5*_18
REMARK    5  A    between atoms: C5*_18  and  O5*_19
REMARK    6  A    between atoms: C_21  and  O_22
REMARK                            x       y       z     vdW  Elec       q    Type
REMARK                         _______ _______ _______ _____ _____    ______ ____
ROOT
ATOM      1  O   UNL     1     -33.274  26.244   5.937  0.00  0.00    -0.193 OA
ATOM      2  N   UNL     1     -34.485  26.261   3.976  0.00  0.00    -0.180 N 
ATOM      3  N   UNL     1     -34.630  24.469   5.545  0.00  0.00    -0.306 NA
ATOM      4  N   UNL     1     -36.000  22.643   5.183  0.00  0.00    -0.306 N 
ATOM      5  C   UNL     1     -35.391  25.626   3.159  0.00  0.00    +0.081 C 
ATOM      6  C   UNL     1     -34.085  25.689   5.193  0.00  0.00    +0.275 C 
ATOM      7  C   UNL     1     -35.935  24.447   3.470  0.00  0.00    +0.068 C 
ATOM      8  C   UNL     1     -35.494  23.856   4.774  0.00  0.00    +0.194 C 
ATOM      9  C   UNL     1     -35.628  22.049   6.425  0.00  0.00    +0.110 C 
ATOM     10  H   UNL     1     -36.638  22.171   4.601  0.00  0.00    +0.149 HD
ENDROOT
BRANCH   2  13
ATOM     11  O4* UNL     1     -35.051  28.421   3.278  0.00  0.00    -0.334 OA
ATOM     12  C3* UNL     1     -33.415  28.742   1.593  0.00  0.00    +0.144 C 
ATOM     13  C1* UNL     1     -33.963  27.524   3.543  0.00  0.00    +0.209 C 
ATOM     14  C2* UNL     1     -33.143  27.418   2.268  0.00  0.00    +0.084 C 
ATOM     15  C4* UNL     1     -34.850  29.047   1.995  0.00  0.00    +0.173 C 
BRANCH  12  16
ATOM     16  O3* UNL     1     -32.541  29.738   2.121  0.00  0.00    -0.382 OA
ATOM     17  H3* UNL     1     -33.024  30.573   2.219  0.00  0.00    +0.210 HD
ENDBRANCH  12  16
BRANCH  15  18
ATOM     18  C5* UNL     1     -35.873  28.465   1.027  0.00  0.00    +0.169 C 
BRANCH  18  19
ATOM     19  O5* UNL     1     -37.071  28.191   1.735  0.00  0.00    -0.379 OA
ATOM     20  H5* UNL     1     -37.412  29.012   2.123  0.00  0.00    +0.211 HD
ENDBRANCH  18  19
ENDBRANCH  15  18
ENDBRANCH   2  13
BRANCH   7  21
ATOM     21  C   UNL     1     -36.920  23.731   2.605  0.00  0.00    +0.174 C 
BRANCH  21  22
ATOM     22  O   UNL     1     -38.130  23.527   3.316  0.00  0.00    -0.346 OA
ATOM     23  C   UNL     1     -39.265  23.861   2.528  0.00  0.00    +0.175 C 
ENDBRANCH  21  22
ENDBRANCH   7  21
TORSDOF 6
ENDMDL
MODEL 9
REMARK VINA RESULT:      -5.0      3.965      6.670
REMARK  Name = 195779
REMARK  6 active torsions:
REMARK  status: ('A' for Active; 'I' for Inactive)
REMARK    1  A    between atoms: N_2  and  C1*_13
REMARK    2  A    between atoms: C_7  and  C_21
REMARK    3  A    between atoms: C3*_12  and  O3*_16
REMARK    4  A    between atoms: C4*_15  and  C5*_18
REMARK    5  A    between atoms: C5*_18  and  O5*_19
REMARK    6  A    between atoms: C_21  and  O_22
REMARK                            x       y       z     vdW  Elec       q    Type
REMARK                         _______ _______ _______ _____ _____    ______ ____
ROOT
ATOM      1  O   UNL     1     -35.170  28.131   2.244  0.00  0.00    -0.193 OA
ATOM      2  N   UNL     1     -36.188  26.161   2.871  0.00  0.00    -0.180 N 
ATOM      3  N   UNL     1     -34.454  27.165   4.168  0.00  0.00    -0.306 NA
ATOM      4  N   UNL     1     -33.698  26.214   6.133  0.00  0.00    -0.306 N 
ATOM      5  C   UNL     1     -36.280  25.133   3.781  0.00  0.00    +0.081 C 
ATOM      6  C   UNL     1     -35.266  27.203   3.050  0.00  0.00    +0.275 C 
ATOM      7  C   UNL     1     -35.511  25.068   4.870  0.00  0.00    +0.068 C 
ATOM      8  C   UNL     1     -34.535  26.192   5.040  0.00  0.00    +0.194 C 
ATOM      9  C   UNL     1     -32.767  27.272   6.351  0.00  0.00    +0.110 C 
ATOM     10  H   UNL     1     -33.743  25.477   6.784  0.00  0.00    +0.149 HD
ENDROOT
BRANCH   2  13
ATOM     11  O4* UNL     1     -38.266  26.848   2.045  0.00  0.00    -0.334 OA
ATOM     12  C3* UNL     1     -38.867  24.917   0.808  0.00  0.00    +0.144 C 
ATOM     13  C1* UNL     1     -37.063  26.130   1.736  0.00  0.00    +0.209 C 
ATOM     14  C2* UNL     1     -37.467  24.720   1.340  0.00  0.00    +0.084 C 
ATOM     15  C4* UNL     1     -39.406  26.051   1.668  0.00  0.00    +0.173 C 
BRANCH  12  16
ATOM     16  O3* UNL     1     -38.809  25.327  -0.557  0.00  0.00    -0.382 OA
ATOM     17  H3* UNL     1     -39.389  26.093  -0.689  0.00  0.00    +0.210 HD
ENDBRANCH  12  16
BRANCH  15  18
ATOM     18  C5* UNL     1     -40.076  25.559   2.945  0.00  0.00    +0.169 C 
BRANCH  18  19
ATOM     19  O5* UNL     1     -40.485  26.682   3.709  0.00  0.00    -0.379 OA
ATOM     20  H5* UNL     1     -41.440  26.633   3.871  0.00  0.00    +0.211 HD
ENDBRANCH  18  19
ENDBRANCH  15  18
ENDBRANCH   2  13
BRANCH   7  21
ATOM     21  C   UNL     1     -35.584  23.967   5.876  0.00  0.00    +0.174 C 
BRANCH  21  22
ATOM     22  O   UNL     1     -35.976  22.759   5.245  0.00  0.00    -0.346 OA
ATOM     23  C   UNL     1     -35.230  21.648   5.726  0.00  0.00    +0.175 C 
ENDBRANCH  21  22
ENDBRANCH   7  21
TORSDOF 6
ENDMDL
