MODEL 1
REMARK VINA RESULT:      -6.4      0.000      0.000
REMARK  Name = 193566
REMARK  3 active torsions:
REMARK  status: ('A' for Active; 'I' for Inactive)
REMARK    1  A    between atoms: S_1  and  N_4
REMARK    2  A    between atoms: S_1  and  C_12
REMARK    3  A    between atoms: C_17  and  O_18
REMARK                            x       y       z     vdW  Elec       q    Type
REMARK                         _______ _______ _______ _____ _____    ______ ____
ROOT
ATOM      1  S   UNL     1     -36.096  25.796   3.301  0.00  0.00    +0.081 S 
ATOM      2  O   UNL     1     -36.109  25.610   1.855  0.00  0.00    -0.149 OA
ATOM      3  O   UNL     1     -35.170  26.763   3.878  0.00  0.00    -0.149 OA
ENDROOT
BRANCH   1   4
ATOM      4  N   UNL     1     -37.701  26.164   3.808  0.00  0.00    -0.158 N 
ATOM      5  N   UNL     1     -39.542  26.494   2.370  0.00  0.00    -0.180 NA
ATOM      6  N   UNL     1     -38.940  24.282   3.111  0.00  0.00    -0.202 NA
ATOM      7  C   UNL     1     -38.793  25.614   3.051  0.00  0.00    +0.106 C 
ATOM      8  C   UNL     1     -40.556  25.945   1.671  0.00  0.00    +0.108 C 
ATOM      9  C   UNL     1     -39.973  23.799   2.389  0.00  0.00    +0.165 C 
ATOM     10  C   UNL     1     -40.822  24.590   1.643  0.00  0.00    +0.022 C 
ATOM     11  H   UNL     1     -37.866  26.735   4.593  0.00  0.00    +0.186 HD
ENDBRANCH   1   4
BRANCH   1  12
ATOM     12  C   UNL     1     -35.806  24.238   4.035  0.00  0.00    +0.126 C 
ATOM     13  C   UNL     1     -35.670  24.132   5.418  0.00  0.00    +0.023 C 
ATOM     14  C   UNL     1     -35.710  23.099   3.235  0.00  0.00    +0.023 C 
ATOM     15  C   UNL     1     -35.438  22.888   6.004  0.00  0.00    +0.038 C 
ATOM     16  C   UNL     1     -35.479  21.853   3.820  0.00  0.00    +0.038 C 
ATOM     17  C   UNL     1     -35.342  21.748   5.205  0.00  0.00    +0.134 C 
BRANCH  17  18
ATOM     18  O   UNL     1     -35.117  20.533   5.776  0.00  0.00    -0.506 OA
ATOM     19  H   UNL     1     -35.312  19.750   5.303  0.00  0.00    +0.292 HD
ENDBRANCH  17  18
ENDBRANCH   1  12
TORSDOF 3
ENDMDL
MODEL 2
REMARK VINA RESULT:      -6.2      3.471      5.357
REMARK  Name = 193566
REMARK  3 active torsions:
REMARK  status: ('A' for Active; 'I' for Inactive)
REMARK    1  A    between atoms: S_1  and  N_4
REMARK    2  A    between atoms: S_1  and  C_12
REMARK    3  A    between atoms: C_17  and  O_18
REMARK                            x       y       z     vdW  Elec       q    Type
REMARK                         _______ _______ _______ _____ _____    ______ ____
ROOT
ATOM      1  S   UNL     1     -35.288  26.119   3.756  0.00  0.00    +0.081 S 
ATOM      2  O   UNL     1     -35.787  26.973   4.828  0.00  0.00    -0.149 OA
ATOM      3  O   UNL     1     -35.952  26.159   2.459  0.00  0.00    -0.149 OA
ENDROOT
BRANCH   1   4
ATOM      4  N   UNL     1     -33.608  26.440   3.554  0.00  0.00    -0.158 N 
ATOM      5  N   UNL     1     -32.554  28.505   3.986  0.00  0.00    -0.180 NA
ATOM      6  N   UNL     1     -32.869  26.892   5.747  0.00  0.00    -0.202 NA
ATOM      7  C   UNL     1     -32.972  27.333   4.484  0.00  0.00    +0.106 C 
ATOM      8  C   UNL     1     -31.963  29.318   4.885  0.00  0.00    +0.108 C 
ATOM      9  C   UNL     1     -32.268  27.755   6.594  0.00  0.00    +0.165 C 
ATOM     10  C   UNL     1     -31.791  28.992   6.216  0.00  0.00    +0.022 C 
ATOM     11  H   UNL     1     -33.098  26.024   2.821  0.00  0.00    +0.186 HD
ENDBRANCH   1   4
BRANCH   1  12
ATOM     12  C   UNL     1     -35.301  24.473   4.340  0.00  0.00    +0.126 C 
ATOM     13  C   UNL     1     -35.192  24.217   5.707  0.00  0.00    +0.023 C 
ATOM     14  C   UNL     1     -35.419  23.415   3.439  0.00  0.00    +0.023 C 
ATOM     15  C   UNL     1     -35.201  22.902   6.173  0.00  0.00    +0.038 C 
ATOM     16  C   UNL     1     -35.429  22.099   3.905  0.00  0.00    +0.038 C 
ATOM     17  C   UNL     1     -35.320  21.843   5.272  0.00  0.00    +0.134 C 
BRANCH  17  18
ATOM     18  O   UNL     1     -35.330  20.561   5.727  0.00  0.00    -0.506 OA
ATOM     19  H   UNL     1     -35.648  19.872   5.179  0.00  0.00    +0.292 HD
ENDBRANCH  17  18
ENDBRANCH   1  12
TORSDOF 3
ENDMDL
MODEL 3
REMARK VINA RESULT:      -6.1      4.545      6.495
REMARK  Name = 193566
REMARK  3 active torsions:
REMARK  status: ('A' for Active; 'I' for Inactive)
REMARK    1  A    between atoms: S_1  and  N_4
REMARK    2  A    between atoms: S_1  and  C_12
REMARK    3  A    between atoms: C_17  and  O_18
REMARK                            x       y       z     vdW  Elec       q    Type
REMARK                         _______ _______ _______ _____ _____    ______ ____
ROOT
ATOM      1  S   UNL     1     -33.774  26.901   4.047  0.00  0.00    +0.081 S 
ATOM      2  O   UNL     1     -34.896  27.793   3.776  0.00  0.00    -0.149 OA
ATOM      3  O   UNL     1     -32.656  26.873   3.112  0.00  0.00    -0.149 OA
ENDROOT
BRANCH   1   4
ATOM      4  N   UNL     1     -33.192  27.238   5.633  0.00  0.00    -0.158 N 
ATOM      5  N   UNL     1     -30.944  27.689   6.190  0.00  0.00    -0.180 NA
ATOM      6  N   UNL     1     -32.412  29.458   5.468  0.00  0.00    -0.202 NA
ATOM      7  C   UNL     1     -32.118  28.184   5.772  0.00  0.00    +0.106 C 
ATOM      8  C   UNL     1     -29.960  28.603   6.310  0.00  0.00    +0.108 C 
ATOM      9  C   UNL     1     -31.382  30.319   5.609  0.00  0.00    +0.165 C 
ATOM     10  C   UNL     1     -30.123  29.945   6.030  0.00  0.00    +0.022 C 
ATOM     11  H   UNL     1     -33.582  26.795   6.420  0.00  0.00    +0.186 HD
ENDBRANCH   1   4
BRANCH   1  12
ATOM     12  C   UNL     1     -34.411  25.282   4.205  0.00  0.00    +0.126 C 
ATOM     13  C   UNL     1     -34.645  24.744   5.470  0.00  0.00    +0.023 C 
ATOM     14  C   UNL     1     -34.686  24.527   3.064  0.00  0.00    +0.023 C 
ATOM     15  C   UNL     1     -35.152  23.451   5.596  0.00  0.00    +0.038 C 
ATOM     16  C   UNL     1     -35.195  23.234   3.190  0.00  0.00    +0.038 C 
ATOM     17  C   UNL     1     -35.428  22.696   4.456  0.00  0.00    +0.134 C 
BRANCH  17  18
ATOM     18  O   UNL     1     -35.925  21.435   4.578  0.00  0.00    -0.506 OA
ATOM     19  H   UNL     1     -36.551  21.116   3.960  0.00  0.00    +0.292 HD
ENDBRANCH  17  18
ENDBRANCH   1  12
TORSDOF 3
ENDMDL
MODEL 4
REMARK VINA RESULT:      -5.9      3.285      5.128
REMARK  Name = 193566
REMARK  3 active torsions:
REMARK  status: ('A' for Active; 'I' for Inactive)
REMARK    1  A    between atoms: S_1  and  N_4
REMARK    2  A    between atoms: S_1  and  C_12
REMARK    3  A    between atoms: C_17  and  O_18
REMARK                            x       y       z     vdW  Elec       q    Type
REMARK                         _______ _______ _______ _____ _____    ______ ____
ROOT
ATOM      1  S   UNL     1     -35.560  25.850   3.234  0.00  0.00    +0.081 S 
ATOM      2  O   UNL     1     -36.951  26.099   2.872  0.00  0.00    -0.149 OA
ATOM      3  O   UNL     1     -34.541  25.912   2.194  0.00  0.00    -0.149 OA
ENDROOT
BRANCH   1   4
ATOM      4  N   UNL     1     -35.141  26.920   4.518  0.00  0.00    -0.158 N 
ATOM      5  N   UNL     1     -32.942  27.446   5.188  0.00  0.00    -0.180 NA
ATOM      6  N   UNL     1     -34.017  28.678   3.419  0.00  0.00    -0.202 NA
ATOM      7  C   UNL     1     -33.962  27.729   4.366  0.00  0.00    +0.106 C 
ATOM      8  C   UNL     1     -31.853  28.224   5.019  0.00  0.00    +0.108 C 
ATOM      9  C   UNL     1     -32.895  29.419   3.303  0.00  0.00    +0.165 C 
ATOM     10  C   UNL     1     -31.772  29.235   4.083  0.00  0.00    +0.022 C 
ATOM     11  H   UNL     1     -35.693  26.974   5.331  0.00  0.00    +0.186 HD
ENDBRANCH   1   4
BRANCH   1  12
ATOM     12  C   UNL     1     -35.484  24.281   3.998  0.00  0.00    +0.126 C 
ATOM     13  C   UNL     1     -35.572  23.123   3.225  0.00  0.00    +0.023 C 
ATOM     14  C   UNL     1     -35.335  24.186   5.382  0.00  0.00    +0.023 C 
ATOM     15  C   UNL     1     -35.512  21.870   3.835  0.00  0.00    +0.038 C 
ATOM     16  C   UNL     1     -35.274  22.932   5.992  0.00  0.00    +0.038 C 
ATOM     17  C   UNL     1     -35.363  21.775   5.219  0.00  0.00    +0.134 C 
BRANCH  17  18
ATOM     18  O   UNL     1     -35.303  20.552   5.814  0.00  0.00    -0.506 OA
ATOM     19  H   UNL     1     -34.832  19.854   5.404  0.00  0.00    +0.292 HD
ENDBRANCH  17  18
ENDBRANCH   1  12
TORSDOF 3
ENDMDL
MODEL 5
REMARK VINA RESULT:      -5.8      3.517      4.601
REMARK  Name = 193566
REMARK  3 active torsions:
REMARK  status: ('A' for Active; 'I' for Inactive)
REMARK    1  A    between atoms: S_1  and  N_4
REMARK    2  A    between atoms: S_1  and  C_12
REMARK    3  A    between atoms: C_17  and  O_18
REMARK                            x       y       z     vdW  Elec       q    Type
REMARK                         _______ _______ _______ _____ _____    ______ ____
ROOT
ATOM      1  S   UNL     1     -34.523  26.072   4.777  0.00  0.00    +0.081 S 
ATOM      2  O   UNL     1     -33.260  26.086   5.505  0.00  0.00    -0.149 OA
ATOM      3  O   UNL     1     -35.693  26.695   5.385  0.00  0.00    -0.149 OA
ENDROOT
BRANCH   1   4
ATOM      4  N   UNL     1     -34.251  26.755   3.219  0.00  0.00    -0.158 N 
ATOM      5  N   UNL     1     -35.398  28.613   2.327  0.00  0.00    -0.180 NA
ATOM      6  N   UNL     1     -33.445  28.918   3.704  0.00  0.00    -0.202 NA
ATOM      7  C   UNL     1     -34.373  28.181   3.075  0.00  0.00    +0.106 C 
ATOM      8  C   UNL     1     -35.483  29.954   2.213  0.00  0.00    +0.108 C 
ATOM      9  C   UNL     1     -33.589  30.251   3.549  0.00  0.00    +0.165 C 
ATOM     10  C   UNL     1     -34.598  30.831   2.808  0.00  0.00    +0.022 C 
ATOM     11  H   UNL     1     -34.019  26.186   2.450  0.00  0.00    +0.186 HD
ENDBRANCH   1   4
BRANCH   1  12
ATOM     12  C   UNL     1     -34.904  24.408   4.408  0.00  0.00    +0.126 C 
ATOM     13  C   UNL     1     -35.015  23.473   5.437  0.00  0.00    +0.023 C 
ATOM     14  C   UNL     1     -35.098  24.014   3.084  0.00  0.00    +0.023 C 
ATOM     15  C   UNL     1     -35.318  22.144   5.142  0.00  0.00    +0.038 C 
ATOM     16  C   UNL     1     -35.402  22.685   2.788  0.00  0.00    +0.038 C 
ATOM     17  C   UNL     1     -35.512  21.750   3.818  0.00  0.00    +0.134 C 
BRANCH  17  18
ATOM     18  O   UNL     1     -35.810  20.453   3.530  0.00  0.00    -0.506 OA
ATOM     19  H   UNL     1     -36.245  20.239   2.730  0.00  0.00    +0.292 HD
ENDBRANCH  17  18
ENDBRANCH   1  12
TORSDOF 3
ENDMDL
MODEL 6
REMARK VINA RESULT:      -5.7      1.546      1.972
REMARK  Name = 193566
REMARK  3 active torsions:
REMARK  status: ('A' for Active; 'I' for Inactive)
REMARK    1  A    between atoms: S_1  and  N_4
REMARK    2  A    between atoms: S_1  and  C_12
REMARK    3  A    between atoms: C_17  and  O_18
REMARK                            x       y       z     vdW  Elec       q    Type
REMARK                         _______ _______ _______ _____ _____    ______ ____
ROOT
ATOM      1  S   UNL     1     -35.399  26.015   3.505  0.00  0.00    +0.081 S 
ATOM      2  O   UNL     1     -34.808  25.945   2.174  0.00  0.00    -0.149 OA
ATOM      3  O   UNL     1     -34.827  26.934   4.481  0.00  0.00    -0.149 OA
ENDROOT
BRANCH   1   4
ATOM      4  N   UNL     1     -37.082  26.336   3.327  0.00  0.00    -0.158 N 
ATOM      5  N   UNL     1     -38.079  27.383   1.463  0.00  0.00    -0.180 NA
ATOM      6  N   UNL     1     -37.702  25.004   1.483  0.00  0.00    -0.202 NA
ATOM      7  C   UNL     1     -37.655  26.236   2.013  0.00  0.00    +0.106 C 
ATOM      8  C   UNL     1     -38.611  27.252   0.231  0.00  0.00    +0.108 C 
ATOM      9  C   UNL     1     -38.245  24.945   0.249  0.00  0.00    +0.165 C 
ATOM     10  C   UNL     1     -38.720  26.046  -0.432  0.00  0.00    +0.022 C 
ATOM     11  H   UNL     1     -37.634  26.583   4.104  0.00  0.00    +0.186 HD
ENDBRANCH   1   4
BRANCH   1  12
ATOM     12  C   UNL     1     -35.382  24.403   4.178  0.00  0.00    +0.126 C 
ATOM     13  C   UNL     1     -35.416  23.294   3.333  0.00  0.00    +0.023 C 
ATOM     14  C   UNL     1     -35.333  24.226   5.560  0.00  0.00    +0.023 C 
ATOM     15  C   UNL     1     -35.403  22.007   3.871  0.00  0.00    +0.038 C 
ATOM     16  C   UNL     1     -35.319  22.938   6.099  0.00  0.00    +0.038 C 
ATOM     17  C   UNL     1     -35.354  21.829   5.253  0.00  0.00    +0.134 C 
BRANCH  17  18
ATOM     18  O   UNL     1     -35.340  20.573   5.778  0.00  0.00    -0.506 OA
ATOM     19  H   UNL     1     -35.059  19.850   5.254  0.00  0.00    +0.292 HD
ENDBRANCH  17  18
ENDBRANCH   1  12
TORSDOF 3
ENDMDL
MODEL 7
REMARK VINA RESULT:      -5.7      4.388      6.053
REMARK  Name = 193566
REMARK  3 active torsions:
REMARK  status: ('A' for Active; 'I' for Inactive)
REMARK    1  A    between atoms: S_1  and  N_4
REMARK    2  A    between atoms: S_1  and  C_12
REMARK    3  A    between atoms: C_17  and  O_18
REMARK                            x       y       z     vdW  Elec       q    Type
REMARK                         _______ _______ _______ _____ _____    ______ ____
ROOT
ATOM      1  S   UNL     1     -34.906  21.551   0.905  0.00  0.00    +0.081 S 
ATOM      2  O   UNL     1     -35.700  21.406  -0.310  0.00  0.00    -0.149 OA
ATOM      3  O   UNL     1     -34.342  22.856   1.225  0.00  0.00    -0.149 OA
ENDROOT
BRANCH   1   4
ATOM      4  N   UNL     1     -35.851  20.990   2.231  0.00  0.00    -0.158 N 
ATOM      5  N   UNL     1     -35.139  20.924   4.479  0.00  0.00    -0.180 NA
ATOM      6  N   UNL     1     -36.128  22.920   3.559  0.00  0.00    -0.202 NA
ATOM      7  C   UNL     1     -35.697  21.650   3.499  0.00  0.00    +0.106 C 
ATOM      8  C   UNL     1     -35.009  21.574   5.654  0.00  0.00    +0.108 C 
ATOM      9  C   UNL     1     -35.968  23.509   4.763  0.00  0.00    +0.165 C 
ATOM     10  C   UNL     1     -35.410  22.880   5.856  0.00  0.00    +0.022 C 
ATOM     11  H   UNL     1     -36.478  20.239   2.124  0.00  0.00    +0.186 HD
ENDBRANCH   1   4
BRANCH   1  12
ATOM     12  C   UNL     1     -33.609  20.383   0.833  0.00  0.00    +0.126 C 
ATOM     13  C   UNL     1     -32.448  20.673   0.116  0.00  0.00    +0.023 C 
ATOM     14  C   UNL     1     -33.734  19.161   1.494  0.00  0.00    +0.023 C 
ATOM     15  C   UNL     1     -31.413  19.740   0.058  0.00  0.00    +0.038 C 
ATOM     16  C   UNL     1     -32.698  18.228   1.437  0.00  0.00    +0.038 C 
ATOM     17  C   UNL     1     -31.537  18.518   0.719  0.00  0.00    +0.134 C 
BRANCH  17  18
ATOM     18  O   UNL     1     -30.526  17.609   0.664  0.00  0.00    -0.506 OA
ATOM     19  H   UNL     1     -29.643  17.896   0.550  0.00  0.00    +0.292 HD
ENDBRANCH  17  18
ENDBRANCH   1  12
TORSDOF 3
ENDMDL
MODEL 8
REMARK VINA RESULT:      -5.7      2.164      3.577
REMARK  Name = 193566
REMARK  3 active torsions:
REMARK  status: ('A' for Active; 'I' for Inactive)
REMARK    1  A    between atoms: S_1  and  N_4
REMARK    2  A    between atoms: S_1  and  C_12
REMARK    3  A    between atoms: C_17  and  O_18
REMARK                            x       y       z     vdW  Elec       q    Type
REMARK                         _______ _______ _______ _____ _____    ______ ____
ROOT
ATOM      1  S   UNL     1     -35.616  22.169   3.445  0.00  0.00    +0.081 S 
ATOM      2  O   UNL     1     -35.330  21.195   4.492  0.00  0.00    -0.149 OA
ATOM      3  O   UNL     1     -35.135  21.909   2.093  0.00  0.00    -0.149 OA
ENDROOT
BRANCH   1   4
ATOM      4  N   UNL     1     -37.317  22.435   3.410  0.00  0.00    -0.158 N 
ATOM      5  N   UNL     1     -38.373  24.532   3.642  0.00  0.00    -0.180 NA
ATOM      6  N   UNL     1     -37.624  23.763   1.485  0.00  0.00    -0.202 NA
ATOM      7  C   UNL     1     -37.801  23.649   2.811  0.00  0.00    +0.106 C 
ATOM      8  C   UNL     1     -38.815  25.658   3.047  0.00  0.00    +0.108 C 
ATOM      9  C   UNL     1     -38.089  24.914   0.955  0.00  0.00    +0.165 C 
ATOM     10  C   UNL     1     -38.698  25.906   1.694  0.00  0.00    +0.022 C 
ATOM     11  H   UNL     1     -37.940  21.774   3.791  0.00  0.00    +0.186 HD
ENDBRANCH   1   4
BRANCH   1  12
ATOM     12  C   UNL     1     -34.993  23.713   3.972  0.00  0.00    +0.126 C 
ATOM     13  C   UNL     1     -35.111  24.093   5.309  0.00  0.00    +0.023 C 
ATOM     14  C   UNL     1     -34.377  24.566   3.056  0.00  0.00    +0.023 C 
ATOM     15  C   UNL     1     -34.615  25.327   5.729  0.00  0.00    +0.038 C 
ATOM     16  C   UNL     1     -33.880  25.800   3.477  0.00  0.00    +0.038 C 
ATOM     17  C   UNL     1     -33.998  26.180   4.814  0.00  0.00    +0.134 C 
BRANCH  17  18
ATOM     18  O   UNL     1     -33.513  27.383   5.225  0.00  0.00    -0.506 OA
ATOM     19  H   UNL     1     -32.595  27.491   5.374  0.00  0.00    +0.292 HD
ENDBRANCH  17  18
ENDBRANCH   1  12
TORSDOF 3
ENDMDL
MODEL 9
REMARK VINA RESULT:      -5.5      2.136      3.477
REMARK  Name = 193566
REMARK  3 active torsions:
REMARK  status: ('A' for Active; 'I' for Inactive)
REMARK    1  A    between atoms: S_1  and  N_4
REMARK    2  A    between atoms: S_1  and  C_12
REMARK    3  A    between atoms: C_17  and  O_18
REMARK                            x       y       z     vdW  Elec       q    Type
REMARK                         _______ _______ _______ _____ _____    ______ ____
ROOT
ATOM      1  S   UNL     1     -36.391  24.065   3.958  0.00  0.00    +0.081 S 
ATOM      2  O   UNL     1     -36.363  22.972   4.923  0.00  0.00    -0.149 OA
ATOM      3  O   UNL     1     -36.292  23.751   2.537  0.00  0.00    -0.149 OA
ENDROOT
BRANCH   1   4
ATOM      4  N   UNL     1     -37.810  24.997   4.245  0.00  0.00    -0.158 N 
ATOM      5  N   UNL     1     -38.966  26.254   2.617  0.00  0.00    -0.180 NA
ATOM      6  N   UNL     1     -39.449  23.915   2.938  0.00  0.00    -0.202 NA
ATOM      7  C   UNL     1     -38.801  25.060   3.204  0.00  0.00    +0.106 C 
ATOM      8  C   UNL     1     -39.903  26.276   1.647  0.00  0.00    +0.108 C 
ATOM      9  C   UNL     1     -40.371  24.009   1.957  0.00  0.00    +0.165 C 
ATOM     10  C   UNL     1     -40.643  25.174   1.270  0.00  0.00    +0.022 C 
ATOM     11  H   UNL     1     -37.938  25.474   5.096  0.00  0.00    +0.186 HD
ENDBRANCH   1   4
BRANCH   1  12
ATOM     12  C   UNL     1     -35.107  25.174   4.375  0.00  0.00    +0.126 C 
ATOM     13  C   UNL     1     -34.351  25.776   3.370  0.00  0.00    +0.023 C 
ATOM     14  C   UNL     1     -34.840  25.457   5.714  0.00  0.00    +0.023 C 
ATOM     15  C   UNL     1     -33.326  26.661   3.704  0.00  0.00    +0.038 C 
ATOM     16  C   UNL     1     -33.815  26.344   6.049  0.00  0.00    +0.038 C 
ATOM     17  C   UNL     1     -33.058  26.945   5.043  0.00  0.00    +0.134 C 
BRANCH  17  18
ATOM     18  O   UNL     1     -32.059  27.810   5.368  0.00  0.00    -0.506 OA
ATOM     19  H   UNL     1     -32.122  28.327   6.146  0.00  0.00    +0.292 HD
ENDBRANCH  17  18
ENDBRANCH   1  12
TORSDOF 3
ENDMDL
