MODEL 1
REMARK VINA RESULT:      -6.6      0.000      0.000
REMARK  Name = 56935649
REMARK  11 active torsions:
REMARK  status: ('A' for Active; 'I' for Inactive)
REMARK    1  A    between atoms: C_5  and  C_16
REMARK    2  A    between atoms: C_12  and  O_33
REMARK    3  A    between atoms: C_14  and  O_35
REMARK    4  A    between atoms: C_17  and  C_19
REMARK    5  A    between atoms: C_19  and  C_22
REMARK    6  A    between atoms: C_22  and  C_23
REMARK    7  A    between atoms: C_23  and  C_25
REMARK    8  A    between atoms: C_25  and  O_26
REMARK    9  A    between atoms: C_25  and  C_28
REMARK   10  A    between atoms: C_28  and  C_30
REMARK   11  A    between atoms: C_30  and  O_31
REMARK                            x       y       z     vdW  Elec       q    Type
REMARK                         _______ _______ _______ _____ _____    ______ ____
ROOT
ATOM      1  O   UNL     1     -32.911  27.661   4.233  0.00  0.00    -0.446 OA
ATOM      2  O   UNL     1     -33.053  27.432   6.523  0.00  0.00    -0.247 OA
ATOM      3  C   UNL     1     -34.787  27.829   2.731  0.00  0.00    +0.044 C 
ATOM      4  C   UNL     1     -34.812  29.371   2.891  0.00  0.00    +0.004 C 
ATOM      5  C   UNL     1     -34.259  27.166   4.027  0.00  0.00    +0.187 C 
ATOM      6  C   UNL     1     -34.310  30.085   1.631  0.00  0.00    +0.000 C 
ATOM      7  C   UNL     1     -33.998  31.571   1.858  0.00  0.00    +0.004 C 
ATOM      8  C   UNL     1     -36.175  27.323   2.328  0.00  0.00    +0.004 C 
ATOM      9  C   UNL     1     -32.547  31.847   2.316  0.00  0.00    +0.022 C 
ATOM     10  C   UNL     1     -32.261  31.346   3.713  0.00  0.00    -0.029 C 
ATOM     11  C   UNL     1     -32.262  33.352   2.262  0.00  0.00    +0.005 C 
ATOM     12  C   UNL     1     -31.048  28.351   5.501  0.00  0.00    +0.241 C 
ATOM     13  C   UNL     1     -32.449  27.764   5.513  0.00  0.00    +0.347 C 
ATOM     14  C   UNL     1     -31.010  29.883   5.380  0.00  0.00    +0.170 C 
ATOM     15  C   UNL     1     -31.351  30.403   4.003  0.00  0.00    +0.001 C 
ENDROOT
BRANCH   5  16
ATOM     16  C   UNL     1     -34.194  25.675   3.934  0.00  0.00    -0.008 C 
ATOM     17  C   UNL     1     -34.879  24.812   4.710  0.00  0.00    -0.024 C 
ATOM     18  C   UNL     1     -33.260  25.163   2.869  0.00  0.00    +0.030 C 
BRANCH  17  19
ATOM     19  C   UNL     1     -34.854  23.307   4.665  0.00  0.00    +0.079 C 
ATOM     20  C   UNL     1     -35.161  22.706   6.035  0.00  0.00    +0.012 C 
BRANCH  19  22
ATOM     21  O   UNL     1     -37.106  23.086   3.832  0.00  0.00    -0.296 OA
ATOM     22  C   UNL     1     -35.906  22.878   3.642  0.00  0.00    +0.156 C 
BRANCH  22  23
ATOM     23  C   UNL     1     -35.394  22.199   2.368  0.00  0.00    +0.086 C 
ATOM     24  C   UNL     1     -35.688  23.089   1.162  0.00  0.00    +0.010 C 
BRANCH  23  25
ATOM     25  C   UNL     1     -35.932  20.757   2.231  0.00  0.00    +0.133 C 
BRANCH  25  26
ATOM     26  O   UNL     1     -34.840  19.854   2.433  0.00  0.00    -0.353 OA
ATOM     27  C   UNL     1     -34.169  19.583   1.214  0.00  0.00    +0.174 C 
ENDBRANCH  25  26
BRANCH  25  28
ATOM     28  C   UNL     1     -36.591  20.434   0.882  0.00  0.00    +0.139 C 
BRANCH  28  30
ATOM     29  O   UNL     1     -38.865  20.378  -0.001  0.00  0.00    -0.250 OA
ATOM     30  C   UNL     1     -38.100  20.560   0.935  0.00  0.00    +0.316 C 
BRANCH  30  31
ATOM     31  O   UNL     1     -38.522  20.907   2.179  0.00  0.00    -0.480 OA
ATOM     32  H   UNL     1     -39.354  20.610   2.493  0.00  0.00    +0.295 HD
ENDBRANCH  30  31
ENDBRANCH  28  30
ENDBRANCH  25  28
ENDBRANCH  23  25
ENDBRANCH  22  23
ENDBRANCH  19  22
ENDBRANCH  17  19
ENDBRANCH   5  16
BRANCH  12  33
ATOM     33  O   UNL     1     -30.440  27.999   6.742  0.00  0.00    -0.372 OA
ATOM     34  H   UNL     1     -30.726  27.109   7.001  0.00  0.00    +0.211 HD
ENDBRANCH  12  33
BRANCH  14  35
ATOM     35  O   UNL     1     -31.816  30.476   6.398  0.00  0.00    -0.377 OA
ATOM     36  H   UNL     1     -32.491  29.841   6.686  0.00  0.00    +0.211 HD
ENDBRANCH  14  35
TORSDOF 11
ENDMDL
MODEL 2
REMARK VINA RESULT:      -6.4      1.172      1.546
REMARK  Name = 56935649
REMARK  11 active torsions:
REMARK  status: ('A' for Active; 'I' for Inactive)
REMARK    1  A    between atoms: C_5  and  C_16
REMARK    2  A    between atoms: C_12  and  O_33
REMARK    3  A    between atoms: C_14  and  O_35
REMARK    4  A    between atoms: C_17  and  C_19
REMARK    5  A    between atoms: C_19  and  C_22
REMARK    6  A    between atoms: C_22  and  C_23
REMARK    7  A    between atoms: C_23  and  C_25
REMARK    8  A    between atoms: C_25  and  O_26
REMARK    9  A    between atoms: C_25  and  C_28
REMARK   10  A    between atoms: C_28  and  C_30
REMARK   11  A    between atoms: C_30  and  O_31
REMARK                            x       y       z     vdW  Elec       q    Type
REMARK                         _______ _______ _______ _____ _____    ______ ____
ROOT
ATOM      1  O   UNL     1     -33.248  27.483   3.969  0.00  0.00    -0.446 OA
ATOM      2  O   UNL     1     -33.498  27.081   6.225  0.00  0.00    -0.247 OA
ATOM      3  C   UNL     1     -35.049  27.844   2.410  0.00  0.00    +0.044 C 
ATOM      4  C   UNL     1     -35.023  29.368   2.691  0.00  0.00    +0.004 C 
ATOM      5  C   UNL     1     -34.604  27.062   3.670  0.00  0.00    +0.187 C 
ATOM      6  C   UNL     1     -34.440  30.157   1.513  0.00  0.00    +0.000 C 
ATOM      7  C   UNL     1     -34.082  31.607   1.870  0.00  0.00    +0.004 C 
ATOM      8  C   UNL     1     -36.437  27.429   1.913  0.00  0.00    +0.004 C 
ATOM      9  C   UNL     1     -32.643  31.787   2.407  0.00  0.00    +0.022 C 
ATOM     10  C   UNL     1     -32.437  31.168   3.770  0.00  0.00    -0.029 C 
ATOM     11  C   UNL     1     -32.300  33.278   2.485  0.00  0.00    +0.005 C 
ATOM     12  C   UNL     1     -31.417  27.995   5.361  0.00  0.00    +0.241 C 
ATOM     13  C   UNL     1     -32.838  27.467   5.269  0.00  0.00    +0.347 C 
ATOM     14  C   UNL     1     -31.315  29.529   5.364  0.00  0.00    +0.170 C 
ATOM     15  C   UNL     1     -31.577  30.167   4.020  0.00  0.00    +0.001 C 
ENDROOT
BRANCH   5  16
ATOM     16  C   UNL     1     -34.591  25.581   3.460  0.00  0.00    -0.008 C 
ATOM     17  C   UNL     1     -35.267  24.680   4.201  0.00  0.00    -0.024 C 
ATOM     18  C   UNL     1     -33.723  25.126   2.316  0.00  0.00    +0.030 C 
BRANCH  17  19
ATOM     19  C   UNL     1     -35.294  23.184   4.040  0.00  0.00    +0.079 C 
ATOM     20  C   UNL     1     -35.172  22.479   5.389  0.00  0.00    +0.012 C 
BRANCH  19  22
ATOM     21  O   UNL     1     -37.683  23.329   3.754  0.00  0.00    -0.296 OA
ATOM     22  C   UNL     1     -36.622  22.833   3.370  0.00  0.00    +0.156 C 
BRANCH  22  23
ATOM     23  C   UNL     1     -36.564  21.858   2.191  0.00  0.00    +0.086 C 
ATOM     24  C   UNL     1     -35.142  21.322   2.039  0.00  0.00    +0.010 C 
BRANCH  23  25
ATOM     25  C   UNL     1     -37.140  22.483   0.900  0.00  0.00    +0.133 C 
BRANCH  25  26
ATOM     26  O   UNL     1     -36.615  23.810   0.776  0.00  0.00    -0.353 OA
ATOM     27  C   UNL     1     -35.990  23.996  -0.483  0.00  0.00    +0.174 C 
ENDBRANCH  25  26
BRANCH  25  28
ATOM     28  C   UNL     1     -38.673  22.555   0.839  0.00  0.00    +0.139 C 
BRANCH  28  30
ATOM     29  O   UNL     1     -39.236  20.275   0.179  0.00  0.00    -0.250 OA
ATOM     30  C   UNL     1     -39.318  21.192   0.983  0.00  0.00    +0.316 C 
BRANCH  30  31
ATOM     31  O   UNL     1     -40.018  21.097   2.144  0.00  0.00    -0.480 OA
ATOM     32  H   UNL     1     -40.943  20.945   2.124  0.00  0.00    +0.295 HD
ENDBRANCH  30  31
ENDBRANCH  28  30
ENDBRANCH  25  28
ENDBRANCH  23  25
ENDBRANCH  22  23
ENDBRANCH  19  22
ENDBRANCH  17  19
ENDBRANCH   5  16
BRANCH  12  33
ATOM     33  O   UNL     1     -30.877  27.522   6.593  0.00  0.00    -0.372 OA
ATOM     34  H   UNL     1     -31.304  27.984   7.332  0.00  0.00    +0.211 HD
ENDBRANCH  12  33
BRANCH  14  35
ATOM     35  O   UNL     1     -32.142  30.072   6.393  0.00  0.00    -0.377 OA
ATOM     36  H   UNL     1     -32.879  30.559   5.992  0.00  0.00    +0.211 HD
ENDBRANCH  14  35
TORSDOF 11
ENDMDL
MODEL 3
REMARK VINA RESULT:      -6.3      1.177      1.957
REMARK  Name = 56935649
REMARK  11 active torsions:
REMARK  status: ('A' for Active; 'I' for Inactive)
REMARK    1  A    between atoms: C_5  and  C_16
REMARK    2  A    between atoms: C_12  and  O_33
REMARK    3  A    between atoms: C_14  and  O_35
REMARK    4  A    between atoms: C_17  and  C_19
REMARK    5  A    between atoms: C_19  and  C_22
REMARK    6  A    between atoms: C_22  and  C_23
REMARK    7  A    between atoms: C_23  and  C_25
REMARK    8  A    between atoms: C_25  and  O_26
REMARK    9  A    between atoms: C_25  and  C_28
REMARK   10  A    between atoms: C_28  and  C_30
REMARK   11  A    between atoms: C_30  and  O_31
REMARK                            x       y       z     vdW  Elec       q    Type
REMARK                         _______ _______ _______ _____ _____    ______ ____
ROOT
ATOM      1  O   UNL     1     -32.591  28.115   4.152  0.00  0.00    -0.446 OA
ATOM      2  O   UNL     1     -32.891  27.648   6.390  0.00  0.00    -0.247 OA
ATOM      3  C   UNL     1     -34.327  28.793   2.625  0.00  0.00    +0.044 C 
ATOM      4  C   UNL     1     -34.090  30.284   2.975  0.00  0.00    +0.004 C 
ATOM      5  C   UNL     1     -33.993  27.899   3.845  0.00  0.00    +0.187 C 
ATOM      6  C   UNL     1     -33.405  31.039   1.829  0.00  0.00    +0.000 C 
ATOM      7  C   UNL     1     -32.849  32.407   2.249  0.00  0.00    +0.004 C 
ATOM      8  C   UNL     1     -35.760  28.597   2.120  0.00  0.00    +0.004 C 
ATOM      9  C   UNL     1     -31.398  32.361   2.782  0.00  0.00    +0.022 C 
ATOM     10  C   UNL     1     -31.278  31.657   4.114  0.00  0.00    -0.029 C 
ATOM     11  C   UNL     1     -30.851  33.785   2.925  0.00  0.00    +0.005 C 
ATOM     12  C   UNL     1     -30.705  28.304   5.551  0.00  0.00    +0.241 C 
ATOM     13  C   UNL     1     -32.186  27.982   5.447  0.00  0.00    +0.347 C 
ATOM     14  C   UNL     1     -30.392  29.807   5.623  0.00  0.00    +0.170 C 
ATOM     15  C   UNL     1     -30.564  30.537   4.312  0.00  0.00    +0.001 C 
ENDROOT
BRANCH   5  16
ATOM     16  C   UNL     1     -34.185  26.442   3.568  0.00  0.00    -0.008 C 
ATOM     17  C   UNL     1     -34.973  25.609   4.277  0.00  0.00    -0.024 C 
ATOM     18  C   UNL     1     -33.399  25.927   2.392  0.00  0.00    +0.030 C 
BRANCH  17  19
ATOM     19  C   UNL     1     -35.206  24.139   4.050  0.00  0.00    +0.079 C 
ATOM     20  C   UNL     1     -35.167  23.361   5.363  0.00  0.00    +0.012 C 
BRANCH  19  22
ATOM     21  O   UNL     1     -37.614  24.025   4.054  0.00  0.00    -0.296 OA
ATOM     22  C   UNL     1     -36.578  24.006   3.388  0.00  0.00    +0.156 C 
BRANCH  22  23
ATOM     23  C   UNL     1     -36.598  23.870   1.862  0.00  0.00    +0.086 C 
ATOM     24  C   UNL     1     -37.447  24.988   1.260  0.00  0.00    +0.010 C 
BRANCH  23  25
ATOM     25  C   UNL     1     -37.022  22.451   1.419  0.00  0.00    +0.133 C 
BRANCH  25  26
ATOM     26  O   UNL     1     -38.017  21.978   2.334  0.00  0.00    -0.353 OA
ATOM     27  C   UNL     1     -39.276  21.848   1.695  0.00  0.00    +0.174 C 
ENDBRANCH  25  26
BRANCH  25  28
ATOM     28  C   UNL     1     -35.885  21.421   1.356  0.00  0.00    +0.139 C 
BRANCH  28  30
ATOM     29  O   UNL     1     -35.218  20.548   3.534  0.00  0.00    -0.250 OA
ATOM     30  C   UNL     1     -35.911  20.465   2.531  0.00  0.00    +0.316 C 
BRANCH  30  31
ATOM     31  O   UNL     1     -36.823  19.475   2.341  0.00  0.00    -0.480 OA
ATOM     32  H   UNL     1     -37.001  19.160   1.477  0.00  0.00    +0.295 HD
ENDBRANCH  30  31
ENDBRANCH  28  30
ENDBRANCH  25  28
ENDBRANCH  23  25
ENDBRANCH  22  23
ENDBRANCH  19  22
ENDBRANCH  17  19
ENDBRANCH   5  16
BRANCH  12  33
ATOM     33  O   UNL     1     -30.234  27.705   6.757  0.00  0.00    -0.372 OA
ATOM     34  H   UNL     1     -30.018  26.773   6.592  0.00  0.00    +0.211 HD
ENDBRANCH  12  33
BRANCH  14  35
ATOM     35  O   UNL     1     -31.134  30.412   6.683  0.00  0.00    -0.377 OA
ATOM     36  H   UNL     1     -31.994  29.973   6.766  0.00  0.00    +0.211 HD
ENDBRANCH  14  35
TORSDOF 11
ENDMDL
MODEL 4
REMARK VINA RESULT:      -6.3      1.171      1.874
REMARK  Name = 56935649
REMARK  11 active torsions:
REMARK  status: ('A' for Active; 'I' for Inactive)
REMARK    1  A    between atoms: C_5  and  C_16
REMARK    2  A    between atoms: C_12  and  O_33
REMARK    3  A    between atoms: C_14  and  O_35
REMARK    4  A    between atoms: C_17  and  C_19
REMARK    5  A    between atoms: C_19  and  C_22
REMARK    6  A    between atoms: C_22  and  C_23
REMARK    7  A    between atoms: C_23  and  C_25
REMARK    8  A    between atoms: C_25  and  O_26
REMARK    9  A    between atoms: C_25  and  C_28
REMARK   10  A    between atoms: C_28  and  C_30
REMARK   11  A    between atoms: C_30  and  O_31
REMARK                            x       y       z     vdW  Elec       q    Type
REMARK                         _______ _______ _______ _____ _____    ______ ____
ROOT
ATOM      1  O   UNL     1     -33.014  27.670   4.101  0.00  0.00    -0.446 OA
ATOM      2  O   UNL     1     -33.268  27.241   6.352  0.00  0.00    -0.247 OA
ATOM      3  C   UNL     1     -34.810  28.096   2.552  0.00  0.00    +0.044 C 
ATOM      4  C   UNL     1     -34.748  29.615   2.856  0.00  0.00    +0.004 C 
ATOM      5  C   UNL     1     -34.380  27.285   3.799  0.00  0.00    +0.187 C 
ATOM      6  C   UNL     1     -34.149  30.408   1.688  0.00  0.00    +0.000 C 
ATOM      7  C   UNL     1     -33.756  31.844   2.066  0.00  0.00    +0.004 C 
ATOM      8  C   UNL     1     -36.208  27.721   2.052  0.00  0.00    +0.004 C 
ATOM      9  C   UNL     1     -32.312  31.982   2.602  0.00  0.00    +0.022 C 
ATOM     10  C   UNL     1     -32.118  31.338   3.955  0.00  0.00    -0.029 C 
ATOM     11  C   UNL     1     -31.934  33.464   2.701  0.00  0.00    +0.005 C 
ATOM     12  C   UNL     1     -31.168  28.118   5.495  0.00  0.00    +0.241 C 
ATOM     13  C   UNL     1     -32.602  27.625   5.400  0.00  0.00    +0.347 C 
ATOM     14  C   UNL     1     -31.031  29.649   5.521  0.00  0.00    +0.170 C 
ATOM     15  C   UNL     1     -31.281  30.314   4.188  0.00  0.00    +0.001 C 
ENDROOT
BRANCH   5  16
ATOM     16  C   UNL     1     -34.402  25.807   3.568  0.00  0.00    -0.008 C 
ATOM     17  C   UNL     1     -35.131  24.916   4.268  0.00  0.00    -0.024 C 
ATOM     18  C   UNL     1     -33.506  25.344   2.449  0.00  0.00    +0.030 C 
BRANCH  17  19
ATOM     19  C   UNL     1     -35.195  23.424   4.084  0.00  0.00    +0.079 C 
ATOM     20  C   UNL     1     -35.199  22.698   5.428  0.00  0.00    +0.012 C 
BRANCH  19  22
ATOM     21  O   UNL     1     -37.576  23.518   3.717  0.00  0.00    -0.296 OA
ATOM     22  C   UNL     1     -36.480  23.128   3.310  0.00  0.00    +0.156 C 
BRANCH  22  23
ATOM     23  C   UNL     1     -36.333  22.344   2.002  0.00  0.00    +0.086 C 
ATOM     24  C   UNL     1     -37.491  21.357   1.865  0.00  0.00    +0.010 C 
BRANCH  23  25
ATOM     25  C   UNL     1     -34.936  21.695   1.876  0.00  0.00    +0.133 C 
BRANCH  25  26
ATOM     26  O   UNL     1     -34.510  21.817   0.514  0.00  0.00    -0.353 OA
ATOM     27  C   UNL     1     -34.991  23.019  -0.064  0.00  0.00    +0.174 C 
ENDBRANCH  25  26
BRANCH  25  28
ATOM     28  C   UNL     1     -34.867  20.215   2.280  0.00  0.00    +0.139 C 
BRANCH  28  30
ATOM     29  O   UNL     1     -32.983  19.037   1.273  0.00  0.00    -0.250 OA
ATOM     30  C   UNL     1     -34.159  19.369   1.241  0.00  0.00    +0.316 C 
BRANCH  30  31
ATOM     31  O   UNL     1     -35.003  19.006   0.240  0.00  0.00    -0.480 OA
ATOM     32  H   UNL     1     -35.440  18.177   0.271  0.00  0.00    +0.295 HD
ENDBRANCH  30  31
ENDBRANCH  28  30
ENDBRANCH  25  28
ENDBRANCH  23  25
ENDBRANCH  22  23
ENDBRANCH  19  22
ENDBRANCH  17  19
ENDBRANCH   5  16
BRANCH  12  33
ATOM     33  O   UNL     1     -30.637  27.614   6.719  0.00  0.00    -0.372 OA
ATOM     34  H   UNL     1     -31.029  28.095   7.464  0.00  0.00    +0.211 HD
ENDBRANCH  12  33
BRANCH  14  35
ATOM     35  O   UNL     1     -31.842  30.196   6.561  0.00  0.00    -0.377 OA
ATOM     36  H   UNL     1     -32.256  31.017   6.250  0.00  0.00    +0.211 HD
ENDBRANCH  14  35
TORSDOF 11
ENDMDL
MODEL 5
REMARK VINA RESULT:      -6.2      4.179      7.105
REMARK  Name = 56935649
REMARK  11 active torsions:
REMARK  status: ('A' for Active; 'I' for Inactive)
REMARK    1  A    between atoms: C_5  and  C_16
REMARK    2  A    between atoms: C_12  and  O_33
REMARK    3  A    between atoms: C_14  and  O_35
REMARK    4  A    between atoms: C_17  and  C_19
REMARK    5  A    between atoms: C_19  and  C_22
REMARK    6  A    between atoms: C_22  and  C_23
REMARK    7  A    between atoms: C_23  and  C_25
REMARK    8  A    between atoms: C_25  and  O_26
REMARK    9  A    between atoms: C_25  and  C_28
REMARK   10  A    between atoms: C_28  and  C_30
REMARK   11  A    between atoms: C_30  and  O_31
REMARK                            x       y       z     vdW  Elec       q    Type
REMARK                         _______ _______ _______ _____ _____    ______ ____
ROOT
ATOM      1  O   UNL     1     -34.393  22.192   1.229  0.00  0.00    -0.446 OA
ATOM      2  O   UNL     1     -36.458  21.422   0.551  0.00  0.00    -0.247 OA
ATOM      3  C   UNL     1     -33.229  24.076   0.281  0.00  0.00    +0.044 C 
ATOM      4  C   UNL     1     -33.924  25.041   1.277  0.00  0.00    +0.004 C 
ATOM      5  C   UNL     1     -34.154  22.874  -0.029  0.00  0.00    +0.187 C 
ATOM      6  C   UNL     1     -32.955  25.551   2.350  0.00  0.00    +0.000 C 
ATOM      7  C   UNL     1     -33.660  26.224   3.536  0.00  0.00    +0.004 C 
ATOM      8  C   UNL     1     -32.806  24.841  -0.977  0.00  0.00    +0.004 C 
ATOM      9  C   UNL     1     -34.049  25.250   4.673  0.00  0.00    +0.022 C 
ATOM     10  C   UNL     1     -35.146  24.288   4.281  0.00  0.00    -0.029 C 
ATOM     11  C   UNL     1     -34.502  26.043   5.904  0.00  0.00    +0.005 C 
ATOM     12  C   UNL     1     -35.641  20.946   2.791  0.00  0.00    +0.241 C 
ATOM     13  C   UNL     1     -35.577  21.535   1.393  0.00  0.00    +0.347 C 
ATOM     14  C   UNL     1     -36.065  21.948   3.877  0.00  0.00    +0.170 C 
ATOM     15  C   UNL     1     -34.998  22.954   4.238  0.00  0.00    +0.001 C 
ENDROOT
BRANCH   5  16
ATOM     16  C   UNL     1     -33.535  21.893  -0.974  0.00  0.00    -0.008 C 
ATOM     17  C   UNL     1     -32.474  21.107  -0.702  0.00  0.00    -0.024 C 
ATOM     18  C   UNL     1     -34.197  21.835  -2.325  0.00  0.00    +0.030 C 
BRANCH  17  19
ATOM     19  C   UNL     1     -31.810  20.105  -1.608  0.00  0.00    +0.079 C 
ATOM     20  C   UNL     1     -30.367  20.504  -1.912  0.00  0.00    +0.012 C 
BRANCH  19  22
ATOM     21  O   UNL     1     -30.965  17.918  -1.046  0.00  0.00    -0.296 OA
ATOM     22  C   UNL     1     -31.853  18.758  -0.887  0.00  0.00    +0.156 C 
BRANCH  22  23
ATOM     23  C   UNL     1     -33.037  18.517   0.053  0.00  0.00    +0.086 C 
ATOM     24  C   UNL     1     -32.522  18.089   1.426  0.00  0.00    +0.010 C 
BRANCH  23  25
ATOM     25  C   UNL     1     -34.069  17.543  -0.561  0.00  0.00    +0.133 C 
BRANCH  25  26
ATOM     26  O   UNL     1     -35.378  18.070  -0.318  0.00  0.00    -0.353 OA
ATOM     27  C   UNL     1     -35.929  18.631  -1.497  0.00  0.00    +0.174 C 
ENDBRANCH  25  26
BRANCH  25  28
ATOM     28  C   UNL     1     -34.010  16.107  -0.020  0.00  0.00    +0.139 C 
BRANCH  28  30
ATOM     29  O   UNL     1     -35.521  14.752  -1.374  0.00  0.00    -0.250 OA
ATOM     30  C   UNL     1     -35.273  15.327  -0.325  0.00  0.00    +0.316 C 
BRANCH  30  31
ATOM     31  O   UNL     1     -36.126  15.336   0.734  0.00  0.00    -0.480 OA
ATOM     32  H   UNL     1     -36.710  14.616   0.872  0.00  0.00    +0.295 HD
ENDBRANCH  30  31
ENDBRANCH  28  30
ENDBRANCH  25  28
ENDBRANCH  23  25
ENDBRANCH  22  23
ENDBRANCH  19  22
ENDBRANCH  17  19
ENDBRANCH   5  16
BRANCH  12  33
ATOM     33  O   UNL     1     -36.616  19.905   2.759  0.00  0.00    -0.372 OA
ATOM     34  H   UNL     1     -37.112  19.900   3.592  0.00  0.00    +0.211 HD
ENDBRANCH  12  33
BRANCH  14  35
ATOM     35  O   UNL     1     -37.298  22.571   3.516  0.00  0.00    -0.377 OA
ATOM     36  H   UNL     1     -37.488  22.392   2.581  0.00  0.00    +0.211 HD
ENDBRANCH  14  35
TORSDOF 11
ENDMDL
MODEL 6
REMARK VINA RESULT:      -6.2      3.102      5.293
REMARK  Name = 56935649
REMARK  11 active torsions:
REMARK  status: ('A' for Active; 'I' for Inactive)
REMARK    1  A    between atoms: C_5  and  C_16
REMARK    2  A    between atoms: C_12  and  O_33
REMARK    3  A    between atoms: C_14  and  O_35
REMARK    4  A    between atoms: C_17  and  C_19
REMARK    5  A    between atoms: C_19  and  C_22
REMARK    6  A    between atoms: C_22  and  C_23
REMARK    7  A    between atoms: C_23  and  C_25
REMARK    8  A    between atoms: C_25  and  O_26
REMARK    9  A    between atoms: C_25  and  C_28
REMARK   10  A    between atoms: C_28  and  C_30
REMARK   11  A    between atoms: C_30  and  O_31
REMARK                            x       y       z     vdW  Elec       q    Type
REMARK                         _______ _______ _______ _____ _____    ______ ____
ROOT
ATOM      1  O   UNL     1     -34.445  24.502   2.403  0.00  0.00    -0.446 OA
ATOM      2  O   UNL     1     -36.707  24.166   2.107  0.00  0.00    -0.247 OA
ATOM      3  C   UNL     1     -33.179  26.338   1.491  0.00  0.00    +0.044 C 
ATOM      4  C   UNL     1     -33.477  27.201   2.744  0.00  0.00    +0.004 C 
ATOM      5  C   UNL     1     -34.344  25.353   1.232  0.00  0.00    +0.187 C 
ATOM      6  C   UNL     1     -32.239  27.371   3.631  0.00  0.00    +0.000 C 
ATOM      7  C   UNL     1     -32.562  27.918   5.029  0.00  0.00    +0.004 C 
ATOM      8  C   UNL     1     -32.887  27.243   0.291  0.00  0.00    +0.004 C 
ATOM      9  C   UNL     1     -32.883  26.825   6.075  0.00  0.00    +0.022 C 
ATOM     10  C   UNL     1     -34.188  26.114   5.810  0.00  0.00    -0.029 C 
ATOM     11  C   UNL     1     -32.933  27.446   7.476  0.00  0.00    +0.005 C 
ATOM     12  C   UNL     1     -35.557  23.192   4.015  0.00  0.00    +0.241 C 
ATOM     13  C   UNL     1     -35.670  24.003   2.735  0.00  0.00    +0.347 C 
ATOM     14  C   UNL     1     -35.571  24.038   5.298  0.00  0.00    +0.170 C 
ATOM     15  C   UNL     1     -34.292  24.802   5.547  0.00  0.00    +0.001 C 
ENDROOT
BRANCH   5  16
ATOM     16  C   UNL     1     -34.111  24.475   0.043  0.00  0.00    -0.008 C 
ATOM     17  C   UNL     1     -33.058  23.652  -0.127  0.00  0.00    -0.024 C 
ATOM     18  C   UNL     1     -35.177  24.574  -1.017  0.00  0.00    +0.030 C 
BRANCH  17  19
ATOM     19  C   UNL     1     -32.769  22.749  -1.296  0.00  0.00    +0.079 C 
ATOM     20  C   UNL     1     -31.688  23.339  -2.199  0.00  0.00    +0.012 C 
BRANCH  19  22
ATOM     21  O   UNL     1     -31.144  21.225  -0.375  0.00  0.00    -0.296 OA
ATOM     22  C   UNL     1     -32.313  21.409  -0.719  0.00  0.00    +0.156 C 
BRANCH  22  23
ATOM     23  C   UNL     1     -33.382  20.322  -0.572  0.00  0.00    +0.086 C 
ATOM     24  C   UNL     1     -34.419  20.470  -1.683  0.00  0.00    +0.010 C 
BRANCH  23  25
ATOM     25  C   UNL     1     -33.986  20.300   0.851  0.00  0.00    +0.133 C 
BRANCH  25  26
ATOM     26  O   UNL     1     -34.087  18.935   1.270  0.00  0.00    -0.353 OA
ATOM     27  C   UNL     1     -32.805  18.375   1.500  0.00  0.00    +0.174 C 
ENDBRANCH  25  26
BRANCH  25  28
ATOM     28  C   UNL     1     -35.368  20.957   0.982  0.00  0.00    +0.139 C 
BRANCH  28  30
ATOM     29  O   UNL     1     -37.063  19.281   0.464  0.00  0.00    -0.250 OA
ATOM     30  C   UNL     1     -36.456  19.949   1.288  0.00  0.00    +0.316 C 
BRANCH  30  31
ATOM     31  O   UNL     1     -36.688  19.863   2.625  0.00  0.00    -0.480 OA
ATOM     32  H   UNL     1     -35.978  19.695   3.215  0.00  0.00    +0.295 HD
ENDBRANCH  30  31
ENDBRANCH  28  30
ENDBRANCH  25  28
ENDBRANCH  23  25
ENDBRANCH  22  23
ENDBRANCH  19  22
ENDBRANCH  17  19
ENDBRANCH   5  16
BRANCH  12  33
ATOM     33  O   UNL     1     -36.688  22.323   4.056  0.00  0.00    -0.372 OA
ATOM     34  H   UNL     1     -37.225  22.529   4.837  0.00  0.00    +0.211 HD
ENDBRANCH  12  33
BRANCH  14  35
ATOM     35  O   UNL     1     -36.721  24.884   5.316  0.00  0.00    -0.377 OA
ATOM     36  H   UNL     1     -36.649  25.510   6.053  0.00  0.00    +0.211 HD
ENDBRANCH  14  35
TORSDOF 11
ENDMDL
MODEL 7
REMARK VINA RESULT:      -6.1      3.785     10.249
REMARK  Name = 56935649
REMARK  11 active torsions:
REMARK  status: ('A' for Active; 'I' for Inactive)
REMARK    1  A    between atoms: C_5  and  C_16
REMARK    2  A    between atoms: C_12  and  O_33
REMARK    3  A    between atoms: C_14  and  O_35
REMARK    4  A    between atoms: C_17  and  C_19
REMARK    5  A    between atoms: C_19  and  C_22
REMARK    6  A    between atoms: C_22  and  C_23
REMARK    7  A    between atoms: C_23  and  C_25
REMARK    8  A    between atoms: C_25  and  O_26
REMARK    9  A    between atoms: C_25  and  C_28
REMARK   10  A    between atoms: C_28  and  C_30
REMARK   11  A    between atoms: C_30  and  O_31
REMARK                            x       y       z     vdW  Elec       q    Type
REMARK                         _______ _______ _______ _____ _____    ______ ____
ROOT
ATOM      1  O   UNL     1     -34.026  19.056   0.704  0.00  0.00    -0.446 OA
ATOM      2  O   UNL     1     -32.321  20.186  -0.360  0.00  0.00    -0.247 OA
ATOM      3  C   UNL     1     -36.371  19.272   0.195  0.00  0.00    +0.044 C 
ATOM      4  C   UNL     1     -36.273  18.142  -0.862  0.00  0.00    +0.004 C 
ATOM      5  C   UNL     1     -35.023  20.027   0.294  0.00  0.00    +0.187 C 
ATOM      6  C   UNL     1     -36.952  16.853  -0.386  0.00  0.00    +0.000 C 
ATOM      7  C   UNL     1     -36.591  15.626  -1.235  0.00  0.00    +0.004 C 
ATOM      8  C   UNL     1     -37.547  20.196  -0.137  0.00  0.00    +0.004 C 
ATOM      9  C   UNL     1     -35.331  14.872  -0.750  0.00  0.00    +0.022 C 
ATOM     10  C   UNL     1     -34.057  15.659  -0.948  0.00  0.00    -0.029 C 
ATOM     11  C   UNL     1     -35.208  13.536  -1.491  0.00  0.00    +0.005 C 
ATOM     12  C   UNL     1     -31.880  18.087   0.785  0.00  0.00    +0.241 C 
ATOM     13  C   UNL     1     -32.738  19.240   0.294  0.00  0.00    +0.347 C 
ATOM     14  C   UNL     1     -31.962  16.825  -0.089  0.00  0.00    +0.170 C 
ATOM     15  C   UNL     1     -33.256  16.059   0.053  0.00  0.00    +0.001 C 
ENDROOT
BRANCH   5  16
ATOM     16  C   UNL     1     -35.044  21.124   1.311  0.00  0.00    -0.008 C 
ATOM     17  C   UNL     1     -34.883  22.436   1.051  0.00  0.00    -0.024 C 
ATOM     18  C   UNL     1     -35.260  20.651   2.725  0.00  0.00    +0.030 C 
BRANCH  17  19
ATOM     19  C   UNL     1     -34.894  23.582   2.027  0.00  0.00    +0.079 C 
ATOM     20  C   UNL     1     -33.980  24.714   1.564  0.00  0.00    +0.012 C 
BRANCH  19  22
ATOM     21  O   UNL     1     -36.962  24.434   1.128  0.00  0.00    -0.296 OA
ATOM     22  C   UNL     1     -36.340  24.066   2.127  0.00  0.00    +0.156 C 
BRANCH  22  23
ATOM     23  C   UNL     1     -36.980  24.049   3.518  0.00  0.00    +0.086 C 
ATOM     24  C   UNL     1     -37.907  25.253   3.668  0.00  0.00    +0.010 C 
BRANCH  23  25
ATOM     25  C   UNL     1     -35.918  23.931   4.636  0.00  0.00    +0.133 C 
BRANCH  25  26
ATOM     26  O   UNL     1     -36.297  22.851   5.496  0.00  0.00    -0.353 OA
ATOM     27  C   UNL     1     -35.159  22.239   6.078  0.00  0.00    +0.174 C 
ENDBRANCH  25  26
BRANCH  25  28
ATOM     28  C   UNL     1     -35.729  25.194   5.490  0.00  0.00    +0.139 C 
BRANCH  28  30
ATOM     29  O   UNL     1     -33.916  26.771   5.907  0.00  0.00    -0.250 OA
ATOM     30  C   UNL     1     -34.306  25.710   5.443  0.00  0.00    +0.316 C 
BRANCH  30  31
ATOM     31  O   UNL     1     -33.483  24.832   4.811  0.00  0.00    -0.480 OA
ATOM     32  H   UNL     1     -32.901  25.133   4.141  0.00  0.00    +0.295 HD
ENDBRANCH  30  31
ENDBRANCH  28  30
ENDBRANCH  25  28
ENDBRANCH  23  25
ENDBRANCH  22  23
ENDBRANCH  19  22
ENDBRANCH  17  19
ENDBRANCH   5  16
BRANCH  12  33
ATOM     33  O   UNL     1     -30.527  18.539   0.768  0.00  0.00    -0.372 OA
ATOM     34  H   UNL     1     -30.104  18.259  -0.059  0.00  0.00    +0.211 HD
ENDBRANCH  12  33
BRANCH  14  35
ATOM     35  O   UNL     1     -31.671  17.151  -1.449  0.00  0.00    -0.377 OA
ATOM     36  H   UNL     1     -31.547  18.110  -1.531  0.00  0.00    +0.211 HD
ENDBRANCH  14  35
TORSDOF 11
ENDMDL
MODEL 8
REMARK VINA RESULT:      -6.0      3.320      7.518
REMARK  Name = 56935649
REMARK  11 active torsions:
REMARK  status: ('A' for Active; 'I' for Inactive)
REMARK    1  A    between atoms: C_5  and  C_16
REMARK    2  A    between atoms: C_12  and  O_33
REMARK    3  A    between atoms: C_14  and  O_35
REMARK    4  A    between atoms: C_17  and  C_19
REMARK    5  A    between atoms: C_19  and  C_22
REMARK    6  A    between atoms: C_22  and  C_23
REMARK    7  A    between atoms: C_23  and  C_25
REMARK    8  A    between atoms: C_25  and  O_26
REMARK    9  A    between atoms: C_25  and  C_28
REMARK   10  A    between atoms: C_28  and  C_30
REMARK   11  A    between atoms: C_30  and  O_31
REMARK                            x       y       z     vdW  Elec       q    Type
REMARK                         _______ _______ _______ _____ _____    ______ ____
ROOT
ATOM      1  O   UNL     1     -33.908  23.099   0.644  0.00  0.00    -0.446 OA
ATOM      2  O   UNL     1     -35.508  24.233  -0.569  0.00  0.00    -0.247 OA
ATOM      3  C   UNL     1     -33.863  20.718   1.008  0.00  0.00    +0.044 C 
ATOM      4  C   UNL     1     -33.040  20.508  -0.289  0.00  0.00    +0.004 C 
ATOM      5  C   UNL     1     -34.778  21.959   0.863  0.00  0.00    +0.187 C 
ATOM      6  C   UNL     1     -31.584  20.131   0.012  0.00  0.00    +0.000 C 
ATOM      7  C   UNL     1     -30.661  20.247  -1.209  0.00  0.00    +0.004 C 
ATOM      8  C   UNL     1     -34.641  19.443   1.344  0.00  0.00    +0.004 C 
ATOM      9  C   UNL     1     -30.024  21.645  -1.387  0.00  0.00    +0.022 C 
ATOM     10  C   UNL     1     -31.026  22.709  -1.768  0.00  0.00    -0.029 C 
ATOM     11  C   UNL     1     -28.933  21.585  -2.463  0.00  0.00    +0.005 C 
ATOM     12  C   UNL     1     -33.298  25.193  -0.249  0.00  0.00    +0.241 C 
ATOM     13  C   UNL     1     -34.383  24.141  -0.098  0.00  0.00    +0.347 C 
ATOM     14  C   UNL     1     -32.277  24.889  -1.357  0.00  0.00    +0.170 C 
ATOM     15  C   UNL     1     -31.304  23.785  -1.015  0.00  0.00    +0.001 C 
ENDROOT
BRANCH   5  16
ATOM     16  C   UNL     1     -35.590  22.229   2.090  0.00  0.00    -0.008 C 
ATOM     17  C   UNL     1     -35.097  22.422   3.329  0.00  0.00    -0.024 C 
ATOM     18  C   UNL     1     -37.077  22.267   1.850  0.00  0.00    +0.030 C 
BRANCH  17  19
ATOM     19  C   UNL     1     -35.860  22.696   4.597  0.00  0.00    +0.079 C 
ATOM     20  C   UNL     1     -35.186  22.044   5.802  0.00  0.00    +0.012 C 
BRANCH  19  22
ATOM     21  O   UNL     1     -36.980  24.809   4.905  0.00  0.00    -0.296 OA
ATOM     22  C   UNL     1     -35.909  24.214   4.765  0.00  0.00    +0.156 C 
BRANCH  22  23
ATOM     23  C   UNL     1     -34.567  24.952   4.772  0.00  0.00    +0.086 C 
ATOM     24  C   UNL     1     -34.514  25.905   5.965  0.00  0.00    +0.010 C 
BRANCH  23  25
ATOM     25  C   UNL     1     -34.278  25.630   3.413  0.00  0.00    +0.133 C 
BRANCH  25  26
ATOM     26  O   UNL     1     -32.861  25.634   3.211  0.00  0.00    -0.353 OA
ATOM     27  C   UNL     1     -32.387  26.943   2.942  0.00  0.00    +0.174 C 
ENDBRANCH  25  26
BRANCH  25  28
ATOM     28  C   UNL     1     -34.796  27.070   3.281  0.00  0.00    +0.139 C 
BRANCH  28  30
ATOM     29  O   UNL     1     -35.828  27.576   1.130  0.00  0.00    -0.250 OA
ATOM     30  C   UNL     1     -35.929  27.183   2.282  0.00  0.00    +0.316 C 
BRANCH  30  31
ATOM     31  O   UNL     1     -37.109  26.784   2.826  0.00  0.00    -0.480 OA
ATOM     32  H   UNL     1     -37.295  26.962   3.728  0.00  0.00    +0.295 HD
ENDBRANCH  30  31
ENDBRANCH  28  30
ENDBRANCH  25  28
ENDBRANCH  23  25
ENDBRANCH  22  23
ENDBRANCH  19  22
ENDBRANCH  17  19
ENDBRANCH   5  16
BRANCH  12  33
ATOM     33  O   UNL     1     -33.950  26.417  -0.583  0.00  0.00    -0.372 OA
ATOM     34  H   UNL     1     -33.877  27.035   0.160  0.00  0.00    +0.211 HD
ENDBRANCH  12  33
BRANCH  14  35
ATOM     35  O   UNL     1     -32.951  24.653  -2.594  0.00  0.00    -0.377 OA
ATOM     36  H   UNL     1     -33.350  25.480  -2.907  0.00  0.00    +0.211 HD
ENDBRANCH  14  35
TORSDOF 11
ENDMDL
MODEL 9
REMARK VINA RESULT:      -6.0      4.905     10.728
REMARK  Name = 56935649
REMARK  11 active torsions:
REMARK  status: ('A' for Active; 'I' for Inactive)
REMARK    1  A    between atoms: C_5  and  C_16
REMARK    2  A    between atoms: C_12  and  O_33
REMARK    3  A    between atoms: C_14  and  O_35
REMARK    4  A    between atoms: C_17  and  C_19
REMARK    5  A    between atoms: C_19  and  C_22
REMARK    6  A    between atoms: C_22  and  C_23
REMARK    7  A    between atoms: C_23  and  C_25
REMARK    8  A    between atoms: C_25  and  O_26
REMARK    9  A    between atoms: C_25  and  C_28
REMARK   10  A    between atoms: C_28  and  C_30
REMARK   11  A    between atoms: C_30  and  O_31
REMARK                            x       y       z     vdW  Elec       q    Type
REMARK                         _______ _______ _______ _____ _____    ______ ____
ROOT
ATOM      1  O   UNL     1     -35.662  18.337  -0.607  0.00  0.00    -0.446 OA
ATOM      2  O   UNL     1     -37.450  17.039   0.050  0.00  0.00    -0.247 OA
ATOM      3  C   UNL     1     -34.522  19.943   0.781  0.00  0.00    +0.044 C 
ATOM      4  C   UNL     1     -33.549  18.850   1.293  0.00  0.00    +0.004 C 
ATOM      5  C   UNL     1     -35.895  19.316   0.438  0.00  0.00    +0.187 C 
ATOM      6  C   UNL     1     -32.141  19.019   0.712  0.00  0.00    +0.000 C 
ATOM      7  C   UNL     1     -31.247  17.788   0.915  0.00  0.00    +0.004 C 
ATOM      8  C   UNL     1     -34.625  21.074   1.809  0.00  0.00    +0.004 C 
ATOM      9  C   UNL     1     -31.344  16.744  -0.223  0.00  0.00    +0.022 C 
ATOM     10  C   UNL     1     -32.680  16.041  -0.270  0.00  0.00    -0.029 C 
ATOM     11  C   UNL     1     -30.239  15.695  -0.061  0.00  0.00    +0.005 C 
ATOM     12  C   UNL     1     -36.031  16.336  -1.795  0.00  0.00    +0.241 C 
ATOM     13  C   UNL     1     -36.486  17.252  -0.672  0.00  0.00    +0.347 C 
ATOM     14  C   UNL     1     -34.864  15.409  -1.416  0.00  0.00    +0.170 C 
ATOM     15  C   UNL     1     -33.530  16.108  -1.307  0.00  0.00    +0.001 C 
ENDROOT
BRANCH   5  16
ATOM     16  C   UNL     1     -36.879  20.317  -0.080  0.00  0.00    -0.008 C 
ATOM     17  C   UNL     1     -38.048  20.642   0.507  0.00  0.00    -0.024 C 
ATOM     18  C   UNL     1     -36.470  20.974  -1.372  0.00  0.00    +0.030 C 
BRANCH  17  19
ATOM     19  C   UNL     1     -39.075  21.636   0.036  0.00  0.00    +0.079 C 
ATOM     20  C   UNL     1     -40.232  20.942  -0.680  0.00  0.00    +0.012 C 
BRANCH  19  22
ATOM     21  O   UNL     1     -40.389  21.855   2.046  0.00  0.00    -0.296 OA
ATOM     22  C   UNL     1     -39.578  22.374   1.277  0.00  0.00    +0.156 C 
BRANCH  22  23
ATOM     23  C   UNL     1     -39.011  23.775   1.524  0.00  0.00    +0.086 C 
ATOM     24  C   UNL     1     -38.007  24.121   0.425  0.00  0.00    +0.010 C 
BRANCH  23  25
ATOM     25  C   UNL     1     -38.449  23.923   2.956  0.00  0.00    +0.133 C 
BRANCH  25  26
ATOM     26  O   UNL     1     -39.378  24.702   3.719  0.00  0.00    -0.353 OA
ATOM     27  C   UNL     1     -40.067  25.626   2.894  0.00  0.00    +0.174 C 
ENDBRANCH  25  26
BRANCH  25  28
ATOM     28  C   UNL     1     -37.065  24.581   3.048  0.00  0.00    +0.139 C 
BRANCH  28  30
ATOM     29  O   UNL     1     -36.213  24.186   5.300  0.00  0.00    -0.250 OA
ATOM     30  C   UNL     1     -36.696  24.944   4.472  0.00  0.00    +0.316 C 
BRANCH  30  31
ATOM     31  O   UNL     1     -36.967  26.250   4.734  0.00  0.00    -0.480 OA
ATOM     32  H   UNL     1     -36.287  26.819   5.038  0.00  0.00    +0.295 HD
ENDBRANCH  30  31
ENDBRANCH  28  30
ENDBRANCH  25  28
ENDBRANCH  23  25
ENDBRANCH  22  23
ENDBRANCH  19  22
ENDBRANCH  17  19
ENDBRANCH   5  16
BRANCH  12  33
ATOM     33  O   UNL     1     -37.145  15.513  -2.136  0.00  0.00    -0.372 OA
ATOM     34  H   UNL     1     -37.800  15.542  -1.421  0.00  0.00    +0.211 HD
ENDBRANCH  12  33
BRANCH  14  35
ATOM     35  O   UNL     1     -35.188  14.670  -0.238  0.00  0.00    -0.377 OA
ATOM     36  H   UNL     1     -35.377  13.749  -0.476  0.00  0.00    +0.211 HD
ENDBRANCH  14  35
TORSDOF 11
ENDMDL
