MODEL 1
REMARK VINA RESULT:      -6.8      0.000      0.000
REMARK  Name = 5329156
REMARK  3 active torsions:
REMARK  status: ('A' for Active; 'I' for Inactive)
REMARK    1  A    between atoms: C_3  and  C_20
REMARK    2  A    between atoms: C_9  and  S_23
REMARK    3  A    between atoms: S_23  and  N_26
REMARK                            x       y       z     vdW  Elec       q    Type
REMARK                         _______ _______ _______ _____ _____    ______ ____
ROOT
ATOM      1  O   UNL     1     -33.986  27.018   5.558  0.00  0.00    -0.270 OA
ATOM      2  N   UNL     1     -34.651  24.779   5.911  0.00  0.00    -0.280 N 
ATOM      3  C   UNL     1     -34.012  26.239   2.667  0.00  0.00    +0.019 C 
ATOM      4  C   UNL     1     -34.317  25.429   3.743  0.00  0.00    +0.056 C 
ATOM      5  C   UNL     1     -34.719  24.026   3.739  0.00  0.00    +0.019 C 
ATOM      6  C   UNL     1     -34.908  23.682   5.081  0.00  0.00    +0.051 C 
ATOM      7  C   UNL     1     -34.279  25.902   5.166  0.00  0.00    +0.250 C 
ATOM      8  C   UNL     1     -34.916  23.095   2.737  0.00  0.00    +0.021 C 
ATOM      9  C   UNL     1     -35.310  21.806   3.110  0.00  0.00    +0.122 C 
ATOM     10  C   UNL     1     -35.296  22.415   5.471  0.00  0.00    +0.016 C 
ATOM     11  C   UNL     1     -35.498  21.469   4.464  0.00  0.00    +0.021 C 
ATOM     12  H   UNL     1     -34.722  24.761   6.893  0.00  0.00    +0.155 HD
ENDROOT
BRANCH   3  20
ATOM     13  N   UNL     1     -34.612  28.541   2.793  0.00  0.00    -0.316 N 
ATOM     14  C   UNL     1     -34.036  29.780   2.790  0.00  0.00    +0.021 C 
ATOM     15  C   UNL     1     -32.668  29.625   2.682  0.00  0.00    -0.012 C 
ATOM     16  C   UNL     1     -34.769  31.066   2.916  0.00  0.00    +0.041 C 
ATOM     17  C   UNL     1     -31.734  30.783   2.633  0.00  0.00    +0.027 C 
ATOM     18  C   UNL     1     -33.840  32.232   2.528  0.00  0.00    +0.006 C 
ATOM     19  C   UNL     1     -32.424  32.073   3.118  0.00  0.00    +0.005 C 
ATOM     20  C   UNL     1     -33.628  27.588   2.683  0.00  0.00    +0.048 C 
ATOM     21  C   UNL     1     -32.411  28.234   2.610  0.00  0.00    +0.011 C 
ATOM     22  H   UNL     1     -35.576  28.359   2.863  0.00  0.00    +0.152 HD
ENDBRANCH   3  20
BRANCH   9  23
ATOM     23  S   UNL     1     -35.572  20.594   1.879  0.00  0.00    +0.057 S 
ATOM     24  O   UNL     1     -35.992  21.266   0.657  0.00  0.00    -0.153 OA
ATOM     25  O   UNL     1     -34.420  19.704   1.857  0.00  0.00    -0.153 OA
BRANCH  23  26
ATOM     26  N   UNL     1     -36.905  19.750   2.533  0.00  0.00    -0.203 NA
ATOM     27  H   UNL     1     -37.361  20.330   3.238  0.00  0.00    +0.144 HD
ATOM     28  H   UNL     1     -36.581  18.884   2.963  0.00  0.00    +0.144 HD
ENDBRANCH  23  26
ENDBRANCH   9  23
TORSDOF 3
ENDMDL
MODEL 2
REMARK VINA RESULT:      -6.7      3.711      8.650
REMARK  Name = 5329156
REMARK  3 active torsions:
REMARK  status: ('A' for Active; 'I' for Inactive)
REMARK    1  A    between atoms: C_3  and  C_20
REMARK    2  A    between atoms: C_9  and  S_23
REMARK    3  A    between atoms: S_23  and  N_26
REMARK                            x       y       z     vdW  Elec       q    Type
REMARK                         _______ _______ _______ _____ _____    ______ ____
ROOT
ATOM      1  O   UNL     1     -35.620  20.451   3.694  0.00  0.00    -0.270 OA
ATOM      2  N   UNL     1     -35.940  22.549   4.732  0.00  0.00    -0.280 N 
ATOM      3  C   UNL     1     -34.800  22.099   1.333  0.00  0.00    +0.019 C 
ATOM      4  C   UNL     1     -35.209  22.569   2.564  0.00  0.00    +0.056 C 
ATOM      5  C   UNL     1     -35.339  23.952   3.012  0.00  0.00    +0.019 C 
ATOM      6  C   UNL     1     -35.786  23.882   4.334  0.00  0.00    +0.051 C 
ATOM      7  C   UNL     1     -35.603  21.669   3.699  0.00  0.00    +0.250 C 
ATOM      8  C   UNL     1     -35.118  25.173   2.405  0.00  0.00    +0.021 C 
ATOM      9  C   UNL     1     -35.355  26.329   3.156  0.00  0.00    +0.122 C 
ATOM     10  C   UNL     1     -36.027  25.010   5.094  0.00  0.00    +0.016 C 
ATOM     11  C   UNL     1     -35.805  26.249   4.487  0.00  0.00    +0.021 C 
ATOM     12  H   UNL     1     -36.245  22.267   5.625  0.00  0.00    +0.155 HD
ENDROOT
BRANCH   3  20
ATOM     13  N   UNL     1     -33.553  20.070   1.287  0.00  0.00    -0.316 N 
ATOM     14  C   UNL     1     -33.625  18.802   0.784  0.00  0.00    +0.021 C 
ATOM     15  C   UNL     1     -34.808  18.676   0.083  0.00  0.00    -0.012 C 
ATOM     16  C   UNL     1     -32.609  17.738   0.992  0.00  0.00    +0.041 C 
ATOM     17  C   UNL     1     -35.196  17.418  -0.611  0.00  0.00    +0.027 C 
ATOM     18  C   UNL     1     -32.859  16.582   0.005  0.00  0.00    +0.006 C 
ATOM     19  C   UNL     1     -34.354  16.227  -0.113  0.00  0.00    +0.005 C 
ATOM     20  C   UNL     1     -34.677  20.765   0.914  0.00  0.00    +0.048 C 
ATOM     21  C   UNL     1     -35.473  19.924   0.163  0.00  0.00    +0.011 C 
ATOM     22  H   UNL     1     -32.815  20.428   1.831  0.00  0.00    +0.152 HD
ENDBRANCH   3  20
BRANCH   9  23
ATOM     23  S   UNL     1     -35.090  27.898   2.432  0.00  0.00    +0.057 S 
ATOM     24  O   UNL     1     -34.776  28.844   3.493  0.00  0.00    -0.153 OA
ATOM     25  O   UNL     1     -34.176  27.738   1.310  0.00  0.00    -0.153 OA
BRANCH  23  26
ATOM     26  N   UNL     1     -36.649  28.243   1.826  0.00  0.00    -0.203 NA
ATOM     27  H   UNL     1     -36.625  28.236   0.806  0.00  0.00    +0.144 HD
ATOM     28  H   UNL     1     -36.943  29.163   2.153  0.00  0.00    +0.144 HD
ENDBRANCH  23  26
ENDBRANCH   9  23
TORSDOF 3
ENDMDL
MODEL 3
REMARK VINA RESULT:      -6.5      3.714      8.664
REMARK  Name = 5329156
REMARK  3 active torsions:
REMARK  status: ('A' for Active; 'I' for Inactive)
REMARK    1  A    between atoms: C_3  and  C_20
REMARK    2  A    between atoms: C_9  and  S_23
REMARK    3  A    between atoms: S_23  and  N_26
REMARK                            x       y       z     vdW  Elec       q    Type
REMARK                         _______ _______ _______ _____ _____    ______ ____
ROOT
ATOM      1  O   UNL     1     -36.150  20.354   2.949  0.00  0.00    -0.270 OA
ATOM      2  N   UNL     1     -36.271  22.242   4.365  0.00  0.00    -0.280 N 
ATOM      3  C   UNL     1     -34.508  22.156   1.211  0.00  0.00    +0.019 C 
ATOM      4  C   UNL     1     -35.082  22.478   2.424  0.00  0.00    +0.056 C 
ATOM      5  C   UNL     1     -35.031  23.747   3.144  0.00  0.00    +0.019 C 
ATOM      6  C   UNL     1     -35.770  23.548   4.315  0.00  0.00    +0.051 C 
ATOM      7  C   UNL     1     -35.893  21.510   3.235  0.00  0.00    +0.250 C 
ATOM      8  C   UNL     1     -34.440  24.968   2.882  0.00  0.00    +0.021 C 
ATOM      9  C   UNL     1     -34.605  25.990   3.822  0.00  0.00    +0.122 C 
ATOM     10  C   UNL     1     -35.945  24.543   5.256  0.00  0.00    +0.016 C 
ATOM     11  C   UNL     1     -35.350  25.780   4.998  0.00  0.00    +0.021 C 
ATOM     12  H   UNL     1     -36.819  21.885   5.100  0.00  0.00    +0.155 HD
ENDROOT
BRANCH   3  20
ATOM     13  N   UNL     1     -33.803  19.890   1.003  0.00  0.00    -0.316 N 
ATOM     14  C   UNL     1     -33.995  18.797   0.206  0.00  0.00    +0.021 C 
ATOM     15  C   UNL     1     -34.890  19.135  -0.791  0.00  0.00    -0.012 C 
ATOM     16  C   UNL     1     -33.366  17.467   0.409  0.00  0.00    +0.041 C 
ATOM     17  C   UNL     1     -35.310  18.175  -1.847  0.00  0.00    +0.027 C 
ATOM     18  C   UNL     1     -33.543  16.610  -0.859  0.00  0.00    +0.006 C 
ATOM     19  C   UNL     1     -34.962  16.726  -1.450  0.00  0.00    +0.005 C 
ATOM     20  C   UNL     1     -34.562  20.931   0.528  0.00  0.00    +0.048 C 
ATOM     21  C   UNL     1     -35.246  20.491  -0.587  0.00  0.00    +0.011 C 
ATOM     22  H   UNL     1     -33.216  19.926   1.792  0.00  0.00    +0.152 HD
ENDBRANCH   3  20
BRANCH   9  23
ATOM     23  S   UNL     1     -33.876  27.552   3.534  0.00  0.00    +0.057 S 
ATOM     24  O   UNL     1     -33.240  27.994   4.767  0.00  0.00    -0.153 OA
ATOM     25  O   UNL     1     -33.101  27.479   2.305  0.00  0.00    -0.153 OA
BRANCH  23  26
ATOM     26  N   UNL     1     -35.263  28.510   3.253  0.00  0.00    -0.203 NA
ATOM     27  H   UNL     1     -35.067  29.180   2.509  0.00  0.00    +0.144 HD
ATOM     28  H   UNL     1     -35.507  29.012   4.107  0.00  0.00    +0.144 HD
ENDBRANCH  23  26
ENDBRANCH   9  23
TORSDOF 3
ENDMDL
MODEL 4
REMARK VINA RESULT:      -6.4      2.129      2.566
REMARK  Name = 5329156
REMARK  3 active torsions:
REMARK  status: ('A' for Active; 'I' for Inactive)
REMARK    1  A    between atoms: C_3  and  C_20
REMARK    2  A    between atoms: C_9  and  S_23
REMARK    3  A    between atoms: S_23  and  N_26
REMARK                            x       y       z     vdW  Elec       q    Type
REMARK                         _______ _______ _______ _____ _____    ______ ____
ROOT
ATOM      1  O   UNL     1     -36.209  26.793   4.936  0.00  0.00    -0.270 OA
ATOM      2  N   UNL     1     -37.462  24.995   4.054  0.00  0.00    -0.280 N 
ATOM      3  C   UNL     1     -33.869  25.296   3.819  0.00  0.00    +0.019 C 
ATOM      4  C   UNL     1     -35.195  24.920   3.755  0.00  0.00    +0.056 C 
ATOM      5  C   UNL     1     -35.773  23.729   3.142  0.00  0.00    +0.019 C 
ATOM      6  C   UNL     1     -37.152  23.825   3.352  0.00  0.00    +0.051 C 
ATOM      7  C   UNL     1     -36.311  25.733   4.343  0.00  0.00    +0.250 C 
ATOM      8  C   UNL     1     -35.236  22.649   2.467  0.00  0.00    +0.021 C 
ATOM      9  C   UNL     1     -36.114  21.663   2.006  0.00  0.00    +0.122 C 
ATOM     10  C   UNL     1     -38.037  22.863   2.906  0.00  0.00    +0.016 C 
ATOM     11  C   UNL     1     -37.501  21.769   2.222  0.00  0.00    +0.021 C 
ATOM     12  H   UNL     1     -38.374  25.264   4.310  0.00  0.00    +0.155 HD
ENDROOT
BRANCH   3  20
ATOM     13  N   UNL     1     -33.166  27.564   3.630  0.00  0.00    -0.316 N 
ATOM     14  C   UNL     1     -32.626  28.565   4.387  0.00  0.00    +0.021 C 
ATOM     15  C   UNL     1     -32.438  28.089   5.670  0.00  0.00    -0.012 C 
ATOM     16  C   UNL     1     -32.328  29.939   3.905  0.00  0.00    +0.041 C 
ATOM     17  C   UNL     1     -31.848  28.923   6.752  0.00  0.00    +0.027 C 
ATOM     18  C   UNL     1     -31.425  30.661   4.923  0.00  0.00    +0.006 C 
ATOM     19  C   UNL     1     -31.873  30.418   6.378  0.00  0.00    +0.005 C 
ATOM     20  C   UNL     1     -33.324  26.446   4.411  0.00  0.00    +0.048 C 
ATOM     21  C   UNL     1     -32.878  26.743   5.683  0.00  0.00    +0.011 C 
ATOM     22  H   UNL     1     -33.405  27.633   2.678  0.00  0.00    +0.152 HD
ENDBRANCH   3  20
BRANCH   9  23
ATOM     23  S   UNL     1     -35.482  20.278   1.147  0.00  0.00    +0.057 S 
ATOM     24  O   UNL     1     -35.325  20.642  -0.254  0.00  0.00    -0.153 OA
ATOM     25  O   UNL     1     -34.346  19.755   1.891  0.00  0.00    -0.153 OA
BRANCH  23  26
ATOM     26  N   UNL     1     -36.785  19.184   1.292  0.00  0.00    -0.203 NA
ATOM     27  H   UNL     1     -37.646  19.639   0.988  0.00  0.00    +0.144 HD
ATOM     28  H   UNL     1     -36.879  18.897   2.266  0.00  0.00    +0.144 HD
ENDBRANCH  23  26
ENDBRANCH   9  23
TORSDOF 3
ENDMDL
MODEL 5
REMARK VINA RESULT:      -6.3      4.277      6.939
REMARK  Name = 5329156
REMARK  3 active torsions:
REMARK  status: ('A' for Active; 'I' for Inactive)
REMARK    1  A    between atoms: C_3  and  C_20
REMARK    2  A    between atoms: C_9  and  S_23
REMARK    3  A    between atoms: S_23  and  N_26
REMARK                            x       y       z     vdW  Elec       q    Type
REMARK                         _______ _______ _______ _____ _____    ______ ____
ROOT
ATOM      1  O   UNL     1     -38.128  22.479   1.134  0.00  0.00    -0.270 OA
ATOM      2  N   UNL     1     -38.973  20.689  -0.155  0.00  0.00    -0.280 N 
ATOM      3  C   UNL     1     -35.818  20.634   1.606  0.00  0.00    +0.019 C 
ATOM      4  C   UNL     1     -36.942  20.371   0.850  0.00  0.00    +0.056 C 
ATOM      5  C   UNL     1     -37.277  19.159   0.111  0.00  0.00    +0.019 C 
ATOM      6  C   UNL     1     -38.519  19.406  -0.481  0.00  0.00    +0.051 C 
ATOM      7  C   UNL     1     -38.058  21.357   0.665  0.00  0.00    +0.250 C 
ATOM      8  C   UNL     1     -36.635  17.948  -0.074  0.00  0.00    +0.021 C 
ATOM      9  C   UNL     1     -37.269  16.987  -0.868  0.00  0.00    +0.122 C 
ATOM     10  C   UNL     1     -39.162  18.470  -1.268  0.00  0.00    +0.016 C 
ATOM     11  C   UNL     1     -38.520  17.245  -1.459  0.00  0.00    +0.021 C 
ATOM     12  H   UNL     1     -39.825  21.072  -0.465  0.00  0.00    +0.155 HD
ENDROOT
BRANCH   3  20
ATOM     13  N   UNL     1     -35.924  21.906   3.617  0.00  0.00    -0.316 N 
ATOM     14  C   UNL     1     -35.523  23.111   4.123  0.00  0.00    +0.021 C 
ATOM     15  C   UNL     1     -34.835  23.791   3.137  0.00  0.00    -0.012 C 
ATOM     16  C   UNL     1     -35.765  23.581   5.511  0.00  0.00    +0.041 C 
ATOM     17  C   UNL     1     -34.271  25.151   3.350  0.00  0.00    +0.027 C 
ATOM     18  C   UNL     1     -35.480  25.092   5.604  0.00  0.00    +0.006 C 
ATOM     19  C   UNL     1     -34.195  25.492   4.852  0.00  0.00    +0.005 C 
ATOM     20  C   UNL     1     -35.506  21.805   2.313  0.00  0.00    +0.048 C 
ATOM     21  C   UNL     1     -34.828  22.963   1.988  0.00  0.00    +0.011 C 
ATOM     22  H   UNL     1     -36.431  21.221   4.108  0.00  0.00    +0.152 HD
ENDBRANCH   3  20
BRANCH   9  23
ATOM     23  S   UNL     1     -36.497  15.441  -1.131  0.00  0.00    +0.057 S 
ATOM     24  O   UNL     1     -37.535  14.427  -1.258  0.00  0.00    -0.153 OA
ATOM     25  O   UNL     1     -35.503  15.596  -2.182  0.00  0.00    -0.153 OA
BRANCH  23  26
ATOM     26  N   UNL     1     -35.691  15.224   0.360  0.00  0.00    -0.203 NA
ATOM     27  H   UNL     1     -35.207  14.326   0.355  0.00  0.00    +0.144 HD
ATOM     28  H   UNL     1     -36.372  15.238   1.119  0.00  0.00    +0.144 HD
ENDBRANCH  23  26
ENDBRANCH   9  23
TORSDOF 3
ENDMDL
MODEL 6
REMARK VINA RESULT:      -6.2      4.462      9.474
REMARK  Name = 5329156
REMARK  3 active torsions:
REMARK  status: ('A' for Active; 'I' for Inactive)
REMARK    1  A    between atoms: C_3  and  C_20
REMARK    2  A    between atoms: C_9  and  S_23
REMARK    3  A    between atoms: S_23  and  N_26
REMARK                            x       y       z     vdW  Elec       q    Type
REMARK                         _______ _______ _______ _____ _____    ______ ____
ROOT
ATOM      1  O   UNL     1     -33.599  20.953  -1.091  0.00  0.00    -0.270 OA
ATOM      2  N   UNL     1     -34.129  23.165  -0.453  0.00  0.00    -0.280 N 
ATOM      3  C   UNL     1     -34.508  20.272   1.679  0.00  0.00    +0.019 C 
ATOM      4  C   UNL     1     -34.472  21.528   1.108  0.00  0.00    +0.056 C 
ATOM      5  C   UNL     1     -34.859  22.806   1.698  0.00  0.00    +0.019 C 
ATOM      6  C   UNL     1     -34.631  23.765   0.707  0.00  0.00    +0.051 C 
ATOM      7  C   UNL     1     -34.000  21.782  -0.294  0.00  0.00    +0.250 C 
ATOM      8  C   UNL     1     -35.355  23.172   2.935  0.00  0.00    +0.021 C 
ATOM      9  C   UNL     1     -35.619  24.527   3.158  0.00  0.00    +0.122 C 
ATOM     10  C   UNL     1     -34.884  25.108   0.907  0.00  0.00    +0.016 C 
ATOM     11  C   UNL     1     -35.386  25.486   2.154  0.00  0.00    +0.021 C 
ATOM     12  H   UNL     1     -33.898  23.654  -1.276  0.00  0.00    +0.155 HD
ENDROOT
BRANCH   3  20
ATOM     13  N   UNL     1     -35.053  18.395   0.317  0.00  0.00    -0.316 N 
ATOM     14  C   UNL     1     -34.499  17.235  -0.147  0.00  0.00    +0.021 C 
ATOM     15  C   UNL     1     -33.210  17.143   0.339  0.00  0.00    -0.012 C 
ATOM     16  C   UNL     1     -35.172  16.264  -1.048  0.00  0.00    +0.041 C 
ATOM     17  C   UNL     1     -32.323  15.986   0.036  0.00  0.00    +0.027 C 
ATOM     18  C   UNL     1     -34.381  14.943  -1.069  0.00  0.00    +0.006 C 
ATOM     19  C   UNL     1     -32.859  15.174  -1.159  0.00  0.00    +0.005 C 
ATOM     20  C   UNL     1     -34.134  19.049   1.101  0.00  0.00    +0.048 C 
ATOM     21  C   UNL     1     -32.981  18.292   1.133  0.00  0.00    +0.011 C 
ATOM     22  H   UNL     1     -35.964  18.712   0.121  0.00  0.00    +0.152 HD
ENDBRANCH   3  20
BRANCH   9  23
ATOM     23  S   UNL     1     -36.248  25.039   4.706  0.00  0.00    +0.057 S 
ATOM     24  O   UNL     1     -36.060  23.953   5.658  0.00  0.00    -0.153 OA
ATOM     25  O   UNL     1     -35.718  26.362   5.003  0.00  0.00    -0.153 OA
BRANCH  23  26
ATOM     26  N   UNL     1     -37.912  25.182   4.350  0.00  0.00    -0.203 NA
ATOM     27  H   UNL     1     -38.076  26.049   3.838  0.00  0.00    +0.144 HD
ATOM     28  H   UNL     1     -38.445  25.194   5.219  0.00  0.00    +0.144 HD
ENDBRANCH  23  26
ENDBRANCH   9  23
TORSDOF 3
ENDMDL
MODEL 7
REMARK VINA RESULT:      -6.2      4.649      7.704
REMARK  Name = 5329156
REMARK  3 active torsions:
REMARK  status: ('A' for Active; 'I' for Inactive)
REMARK    1  A    between atoms: C_3  and  C_20
REMARK    2  A    between atoms: C_9  and  S_23
REMARK    3  A    between atoms: S_23  and  N_26
REMARK                            x       y       z     vdW  Elec       q    Type
REMARK                         _______ _______ _______ _____ _____    ______ ____
ROOT
ATOM      1  O   UNL     1     -33.703  19.875   1.343  0.00  0.00    -0.270 OA
ATOM      2  N   UNL     1     -34.136  17.933   0.068  0.00  0.00    -0.280 N 
ATOM      3  C   UNL     1     -36.684  20.151   1.353  0.00  0.00    +0.019 C 
ATOM      4  C   UNL     1     -35.950  19.150   0.750  0.00  0.00    +0.056 C 
ATOM      5  C   UNL     1     -36.433  18.004  -0.015  0.00  0.00    +0.019 C 
ATOM      6  C   UNL     1     -35.290  17.299  -0.404  0.00  0.00    +0.051 C 
ATOM      7  C   UNL     1     -34.451  19.086   0.793  0.00  0.00    +0.250 C 
ATOM      8  C   UNL     1     -37.692  17.561  -0.372  0.00  0.00    +0.021 C 
ATOM      9  C   UNL     1     -37.782  16.389  -1.131  0.00  0.00    +0.122 C 
ATOM     10  C   UNL     1     -35.356  16.141  -1.155  0.00  0.00    +0.016 C 
ATOM     11  C   UNL     1     -36.625  15.686  -1.519  0.00  0.00    +0.021 C 
ATOM     12  H   UNL     1     -33.220  17.609  -0.089  0.00  0.00    +0.155 HD
ENDROOT
BRANCH   3  20
ATOM     13  N   UNL     1     -36.012  21.088   3.437  0.00  0.00    -0.316 N 
ATOM     14  C   UNL     1     -35.550  22.262   3.963  0.00  0.00    +0.021 C 
ATOM     15  C   UNL     1     -35.443  23.186   2.942  0.00  0.00    -0.012 C 
ATOM     16  C   UNL     1     -35.196  22.482   5.389  0.00  0.00    +0.041 C 
ATOM     17  C   UNL     1     -34.981  24.582   3.173  0.00  0.00    +0.027 C 
ATOM     18  C   UNL     1     -35.051  23.991   5.661  0.00  0.00    +0.006 C 
ATOM     19  C   UNL     1     -34.280  24.716   4.539  0.00  0.00    +0.005 C 
ATOM     20  C   UNL     1     -36.208  21.248   2.087  0.00  0.00    +0.048 C 
ATOM     21  C   UNL     1     -35.864  22.542   1.753  0.00  0.00    +0.011 C 
ATOM     22  H   UNL     1     -36.177  20.261   3.944  0.00  0.00    +0.152 HD
ENDBRANCH   3  20
BRANCH   9  23
ATOM     23  S   UNL     1     -39.353  15.788  -1.607  0.00  0.00    +0.057 S 
ATOM     24  O   UNL     1     -40.365  16.702  -1.098  0.00  0.00    -0.153 OA
ATOM     25  O   UNL     1     -39.312  15.470  -3.027  0.00  0.00    -0.153 OA
BRANCH  23  26
ATOM     26  N   UNL     1     -39.425  14.331  -0.720  0.00  0.00    -0.203 NA
ATOM     27  H   UNL     1     -39.003  13.580  -1.266  0.00  0.00    +0.144 HD
ATOM     28  H   UNL     1     -40.399  14.102  -0.523  0.00  0.00    +0.144 HD
ENDBRANCH  23  26
ENDBRANCH   9  23
TORSDOF 3
ENDMDL
MODEL 8
REMARK VINA RESULT:      -6.1      6.438      9.134
REMARK  Name = 5329156
REMARK  3 active torsions:
REMARK  status: ('A' for Active; 'I' for Inactive)
REMARK    1  A    between atoms: C_3  and  C_20
REMARK    2  A    between atoms: C_9  and  S_23
REMARK    3  A    between atoms: S_23  and  N_26
REMARK                            x       y       z     vdW  Elec       q    Type
REMARK                         _______ _______ _______ _____ _____    ______ ____
ROOT
ATOM      1  O   UNL     1     -39.849  22.894   0.365  0.00  0.00    -0.270 OA
ATOM      2  N   UNL     1     -41.893  24.062   0.569  0.00  0.00    -0.280 N 
ATOM      3  C   UNL     1     -38.926  24.771   2.507  0.00  0.00    +0.019 C 
ATOM      4  C   UNL     1     -40.179  24.730   1.929  0.00  0.00    +0.056 C 
ATOM      5  C   UNL     1     -41.338  25.572   2.212  0.00  0.00    +0.019 C 
ATOM      6  C   UNL     1     -42.350  25.123   1.358  0.00  0.00    +0.051 C 
ATOM      7  C   UNL     1     -40.560  23.753   0.857  0.00  0.00    +0.250 C 
ATOM      8  C   UNL     1     -41.564  26.618   3.086  0.00  0.00    +0.021 C 
ATOM      9  C   UNL     1     -42.832  27.207   3.086  0.00  0.00    +0.122 C 
ATOM     10  C   UNL     1     -43.609  25.691   1.342  0.00  0.00    +0.016 C 
ATOM     11  C   UNL     1     -43.845  26.749   2.223  0.00  0.00    +0.021 C 
ATOM     12  H   UNL     1     -42.440  23.593  -0.103  0.00  0.00    +0.155 HD
ENDROOT
BRANCH   3  20
ATOM     13  N   UNL     1     -37.874  22.636   2.607  0.00  0.00    -0.316 N 
ATOM     14  C   UNL     1     -36.709  22.020   2.247  0.00  0.00    +0.021 C 
ATOM     15  C   UNL     1     -35.897  22.949   1.627  0.00  0.00    -0.012 C 
ATOM     16  C   UNL     1     -36.396  20.584   2.465  0.00  0.00    +0.041 C 
ATOM     17  C   UNL     1     -34.538  22.611   1.122  0.00  0.00    +0.027 C 
ATOM     18  C   UNL     1     -34.890  20.342   2.250  0.00  0.00    +0.006 C 
ATOM     19  C   UNL     1     -34.350  21.085   1.012  0.00  0.00    +0.005 C 
ATOM     20  C   UNL     1     -37.819  23.955   2.228  0.00  0.00    +0.048 C 
ATOM     21  C   UNL     1     -36.601  24.177   1.619  0.00  0.00    +0.011 C 
ATOM     22  H   UNL     1     -38.631  22.205   3.063  0.00  0.00    +0.152 HD
ENDBRANCH   3  20
BRANCH   9  23
ATOM     23  S   UNL     1     -43.167  28.534   4.174  0.00  0.00    +0.057 S 
ATOM     24  O   UNL     1     -44.368  28.213   4.932  0.00  0.00    -0.153 OA
ATOM     25  O   UNL     1     -41.937  28.875   4.875  0.00  0.00    -0.153 OA
BRANCH  23  26
ATOM     26  N   UNL     1     -43.530  29.780   3.064  0.00  0.00    -0.203 NA
ATOM     27  H   UNL     1     -42.854  30.537   3.171  0.00  0.00    +0.144 HD
ATOM     28  H   UNL     1     -44.469  30.134   3.247  0.00  0.00    +0.144 HD
ENDBRANCH  23  26
ENDBRANCH   9  23
TORSDOF 3
ENDMDL
MODEL 9
REMARK VINA RESULT:      -6.1      2.194      2.507
REMARK  Name = 5329156
REMARK  3 active torsions:
REMARK  status: ('A' for Active; 'I' for Inactive)
REMARK    1  A    between atoms: C_3  and  C_20
REMARK    2  A    between atoms: C_9  and  S_23
REMARK    3  A    between atoms: S_23  and  N_26
REMARK                            x       y       z     vdW  Elec       q    Type
REMARK                         _______ _______ _______ _____ _____    ______ ____
ROOT
ATOM      1  O   UNL     1     -35.203  28.439   3.122  0.00  0.00    -0.270 OA
ATOM      2  N   UNL     1     -36.714  26.648   2.820  0.00  0.00    -0.280 N 
ATOM      3  C   UNL     1     -33.155  26.263   3.314  0.00  0.00    +0.019 C 
ATOM      4  C   UNL     1     -34.511  26.104   3.112  0.00  0.00    +0.056 C 
ATOM      5  C   UNL     1     -35.265  24.866   2.945  0.00  0.00    +0.019 C 
ATOM      6  C   UNL     1     -36.597  25.255   2.771  0.00  0.00    +0.051 C 
ATOM      7  C   UNL     1     -35.471  27.254   3.027  0.00  0.00    +0.250 C 
ATOM      8  C   UNL     1     -34.912  23.530   2.934  0.00  0.00    +0.021 C 
ATOM      9  C   UNL     1     -35.927  22.587   2.744  0.00  0.00    +0.122 C 
ATOM     10  C   UNL     1     -37.615  24.340   2.583  0.00  0.00    +0.016 C 
ATOM     11  C   UNL     1     -37.266  22.988   2.570  0.00  0.00    +0.021 C 
ATOM     12  H   UNL     1     -37.562  27.138   2.721  0.00  0.00    +0.155 HD
ENDROOT
BRANCH   3  20
ATOM     13  N   UNL     1     -32.646  28.193   4.615  0.00  0.00    -0.316 N 
ATOM     14  C   UNL     1     -31.862  29.311   4.577  0.00  0.00    +0.021 C 
ATOM     15  C   UNL     1     -31.138  29.297   3.400  0.00  0.00    -0.012 C 
ATOM     16  C   UNL     1     -31.786  30.342   5.644  0.00  0.00    +0.041 C 
ATOM     17  C   UNL     1     -30.191  30.384   3.032  0.00  0.00    +0.027 C 
ATOM     18  C   UNL     1     -31.077  31.598   5.102  0.00  0.00    +0.006 C 
ATOM     19  C   UNL     1     -29.836  31.250   4.257  0.00  0.00    +0.005 C 
ATOM     20  C   UNL     1     -32.439  27.460   3.472  0.00  0.00    +0.048 C 
ATOM     21  C   UNL     1     -31.508  28.124   2.699  0.00  0.00    +0.011 C 
ATOM     22  H   UNL     1     -33.261  27.951   5.344  0.00  0.00    +0.152 HD
ENDBRANCH   3  20
BRANCH   9  23
ATOM     23  S   UNL     1     -35.530  20.885   2.722  0.00  0.00    +0.057 S 
ATOM     24  O   UNL     1     -34.670  20.631   1.575  0.00  0.00    -0.153 OA
ATOM     25  O   UNL     1     -35.094  20.498   4.055  0.00  0.00    -0.153 OA
BRANCH  23  26
ATOM     26  N   UNL     1     -37.065  20.198   2.425  0.00  0.00    -0.203 NA
ATOM     27  H   UNL     1     -37.282  20.268   1.431  0.00  0.00    +0.144 HD
ATOM     28  H   UNL     1     -37.772  20.700   2.963  0.00  0.00    +0.144 HD
ENDBRANCH  23  26
ENDBRANCH   9  23
TORSDOF 3
ENDMDL
