MODEL 1
REMARK VINA RESULT:      -8.0      0.000      0.000
REMARK  Name = 53480451
REMARK  8 active torsions:
REMARK  status: ('A' for Active; 'I' for Inactive)
REMARK    1  A    between atoms: C_12  and  O_20
REMARK    2  A    between atoms: C_19  and  O_22
REMARK    3  A    between atoms: O_22  and  C_24
REMARK    4  A    between atoms: C_25  and  O_29
REMARK    5  A    between atoms: C_26  and  O_31
REMARK    6  A    between atoms: C_27  and  C_36
REMARK    7  A    between atoms: C_28  and  O_33
REMARK    8  A    between atoms: C_36  and  O_37
REMARK                            x       y       z     vdW  Elec       q    Type
REMARK                         _______ _______ _______ _____ _____    ______ ____
ROOT
ATOM      1  C   UNL     1     -33.732  20.514   0.629  0.00  0.00    +0.000 C 
ATOM      2  C   UNL     1     -32.560  20.643  -0.399  0.00  0.00    +0.000 C 
ATOM      3  C   UNL     1     -35.005  21.319   0.171  0.00  0.00    +0.000 C 
ATOM      4  C   UNL     1     -31.348  19.878   0.145  0.00  0.00    +0.002 C 
ATOM      5  C   UNL     1     -31.641  18.380   0.364  0.00  0.00    +0.025 C 
ATOM      6  C   UNL     1     -34.564  22.802  -0.049  0.00  0.00    +0.002 C 
ATOM      7  C   UNL     1     -34.011  19.035   1.010  0.00  0.00    +0.000 C 
ATOM      8  C   UNL     1     -32.746  18.260   1.422  0.00  0.00    +0.002 C 
ATOM      9  C   UNL     1     -32.219  22.114  -0.674  0.00  0.00    +0.000 C 
ATOM     10  C   UNL     1     -30.048  19.876  -0.655  0.00  0.00    +0.003 C 
ATOM     11  C   UNL     1     -33.442  22.930  -1.086  0.00  0.00    +0.000 C 
ATOM     12  C   UNL     1     -30.245  17.924   0.836  0.00  0.00    +0.110 C 
ATOM     13  C   UNL     1     -36.089  21.310   1.287  0.00  0.00    +0.002 C 
ATOM     14  C   UNL     1     -29.269  18.669  -0.097  0.00  0.00    +0.029 C 
ATOM     15  C   UNL     1     -35.741  23.736  -0.379  0.00  0.00    +0.030 C 
ATOM     16  C   UNL     1     -35.618  20.697  -1.110  0.00  0.00    +0.000 C 
ATOM     17  C   UNL     1     -32.065  17.613  -0.913  0.00  0.00    +0.002 C 
ATOM     18  C   UNL     1     -37.266  22.253   1.007  0.00  0.00    +0.030 C 
ATOM     19  C   UNL     1     -36.822  23.682   0.702  0.00  0.00    +0.118 C 
ENDROOT
BRANCH  12  20
ATOM     20  O   UNL     1     -30.053  16.523   0.806  0.00  0.00    -0.384 OA
ATOM     21  H   UNL     1     -30.503  16.150   0.032  0.00  0.00    +0.210 HD
ENDBRANCH  12  20
BRANCH  19  22
ATOM     22  O   UNL     1     -36.325  24.264   1.907  0.00  0.00    -0.331 OA
BRANCH  22  24
ATOM     23  O   UNL     1     -36.955  23.129   3.887  0.00  0.00    -0.317 OA
ATOM     24  C   UNL     1     -37.281  24.168   2.960  0.00  0.00    +0.266 C 
ATOM     25  C   UNL     1     -37.416  25.505   3.698  0.00  0.00    +0.196 C 
ATOM     26  C   UNL     1     -36.153  25.852   4.491  0.00  0.00    +0.172 C 
ATOM     27  C   UNL     1     -35.744  23.361   4.608  0.00  0.00    +0.245 C 
ATOM     28  C   UNL     1     -35.790  24.671   5.397  0.00  0.00    +0.178 C 
BRANCH  25  29
ATOM     29  O   UNL     1     -37.736  26.538   2.777  0.00  0.00    -0.378 OA
ATOM     30  H   UNL     1     -36.918  26.956   2.462  0.00  0.00    +0.211 HD
ENDBRANCH  25  29
BRANCH  26  31
ATOM     31  O   UNL     1     -35.070  26.153   3.609  0.00  0.00    -0.379 OA
ATOM     32  H   UNL     1     -34.342  25.534   3.770  0.00  0.00    +0.211 HD
ENDBRANCH  26  31
BRANCH  28  33
ATOM     33  O   UNL     1     -34.530  24.899   6.018  0.00  0.00    -0.379 OA
ATOM     34  H   UNL     1     -33.821  24.751   5.372  0.00  0.00    +0.211 HD
ENDBRANCH  28  33
BRANCH  27  36
ATOM     35  O   UNL     1     -35.908  22.229   6.733  0.00  0.00    -0.247 OA
ATOM     36  C   UNL     1     -35.679  22.189   5.533  0.00  0.00    +0.344 C 
BRANCH  36  37
ATOM     37  O   UNL     1     -35.329  21.067   4.859  0.00  0.00    -0.478 OA
ATOM     38  H   UNL     1     -34.919  21.133   4.018  0.00  0.00    +0.295 HD
ENDBRANCH  36  37
ENDBRANCH  27  36
ENDBRANCH  22  24
ENDBRANCH  19  22
TORSDOF 8
ENDMDL
MODEL 2
REMARK VINA RESULT:      -7.4      4.980      7.235
REMARK  Name = 53480451
REMARK  8 active torsions:
REMARK  status: ('A' for Active; 'I' for Inactive)
REMARK    1  A    between atoms: C_12  and  O_20
REMARK    2  A    between atoms: C_19  and  O_22
REMARK    3  A    between atoms: O_22  and  C_24
REMARK    4  A    between atoms: C_25  and  O_29
REMARK    5  A    between atoms: C_26  and  O_31
REMARK    6  A    between atoms: C_27  and  C_36
REMARK    7  A    between atoms: C_28  and  O_33
REMARK    8  A    between atoms: C_36  and  O_37
REMARK                            x       y       z     vdW  Elec       q    Type
REMARK                         _______ _______ _______ _____ _____    ______ ____
ROOT
ATOM      1  C   UNL     1     -34.331  24.412   3.292  0.00  0.00    +0.000 C 
ATOM      2  C   UNL     1     -34.815  24.082   1.841  0.00  0.00    +0.000 C 
ATOM      3  C   UNL     1     -34.158  25.961   3.514  0.00  0.00    +0.000 C 
ATOM      4  C   UNL     1     -34.906  22.559   1.693  0.00  0.00    +0.002 C 
ATOM      5  C   UNL     1     -35.892  21.922   2.692  0.00  0.00    +0.025 C 
ATOM      6  C   UNL     1     -33.169  26.480   2.421  0.00  0.00    +0.002 C 
ATOM      7  C   UNL     1     -35.194  23.701   4.369  0.00  0.00    +0.000 C 
ATOM      8  C   UNL     1     -35.376  22.194   4.111  0.00  0.00    +0.002 C 
ATOM      9  C   UNL     1     -33.881  24.694   0.788  0.00  0.00    +0.000 C 
ATOM     10  C   UNL     1     -35.323  21.965   0.350  0.00  0.00    +0.003 C 
ATOM     11  C   UNL     1     -33.665  26.191   0.999  0.00  0.00    +0.000 C 
ATOM     12  C   UNL     1     -35.787  20.453   2.238  0.00  0.00    +0.110 C 
ATOM     13  C   UNL     1     -33.518  26.246   4.903  0.00  0.00    +0.002 C 
ATOM     14  C   UNL     1     -35.771  20.533   0.698  0.00  0.00    +0.029 C 
ATOM     15  C   UNL     1     -32.807  27.965   2.597  0.00  0.00    +0.030 C 
ATOM     16  C   UNL     1     -35.529  26.682   3.450  0.00  0.00    +0.000 C 
ATOM     17  C   UNL     1     -37.351  22.430   2.569  0.00  0.00    +0.002 C 
ATOM     18  C   UNL     1     -33.116  27.713   5.104  0.00  0.00    +0.030 C 
ATOM     19  C   UNL     1     -32.224  28.242   3.984  0.00  0.00    +0.118 C 
ENDROOT
BRANCH  12  20
ATOM     20  O   UNL     1     -36.824  19.621   2.723  0.00  0.00    -0.384 OA
ATOM     21  H   UNL     1     -36.480  19.048   3.425  0.00  0.00    +0.210 HD
ENDBRANCH  12  20
BRANCH  19  22
ATOM     22  O   UNL     1     -30.944  27.620   4.098  0.00  0.00    -0.331 OA
BRANCH  22  24
ATOM     23  O   UNL     1     -29.329  28.675   5.472  0.00  0.00    -0.317 OA
ATOM     24  C   UNL     1     -29.902  28.591   4.164  0.00  0.00    +0.266 C 
ATOM     25  C   UNL     1     -28.810  28.291   3.131  0.00  0.00    +0.196 C 
ATOM     26  C   UNL     1     -28.033  27.016   3.472  0.00  0.00    +0.172 C 
ATOM     27  C   UNL     1     -28.650  27.486   5.878  0.00  0.00    +0.245 C 
ATOM     28  C   UNL     1     -27.522  27.113   4.914  0.00  0.00    +0.178 C 
BRANCH  25  29
ATOM     29  O   UNL     1     -29.380  28.204   1.832  0.00  0.00    -0.378 OA
ATOM     30  H   UNL     1     -28.899  27.541   1.312  0.00  0.00    +0.211 HD
ENDBRANCH  25  29
BRANCH  26  31
ATOM     31  O   UNL     1     -28.861  25.863   3.315  0.00  0.00    -0.379 OA
ATOM     32  H   UNL     1     -28.418  25.092   3.702  0.00  0.00    +0.211 HD
ENDBRANCH  26  31
BRANCH  28  33
ATOM     33  O   UNL     1     -26.944  25.875   5.312  0.00  0.00    -0.379 OA
ATOM     34  H   UNL     1     -26.005  26.009   5.519  0.00  0.00    +0.211 HD
ENDBRANCH  28  33
BRANCH  27  36
ATOM     35  O   UNL     1     -27.146  27.320   7.758  0.00  0.00    -0.247 OA
ATOM     36  C   UNL     1     -28.100  27.859   7.216  0.00  0.00    +0.344 C 
BRANCH  36  37
ATOM     37  O   UNL     1     -28.805  28.884   7.755  0.00  0.00    -0.478 OA
ATOM     38  H   UNL     1     -28.970  29.657   7.250  0.00  0.00    +0.295 HD
ENDBRANCH  36  37
ENDBRANCH  27  36
ENDBRANCH  22  24
ENDBRANCH  19  22
TORSDOF 8
ENDMDL
MODEL 3
REMARK VINA RESULT:      -7.2      0.966      1.379
REMARK  Name = 53480451
REMARK  8 active torsions:
REMARK  status: ('A' for Active; 'I' for Inactive)
REMARK    1  A    between atoms: C_12  and  O_20
REMARK    2  A    between atoms: C_19  and  O_22
REMARK    3  A    between atoms: O_22  and  C_24
REMARK    4  A    between atoms: C_25  and  O_29
REMARK    5  A    between atoms: C_26  and  O_31
REMARK    6  A    between atoms: C_27  and  C_36
REMARK    7  A    between atoms: C_28  and  O_33
REMARK    8  A    between atoms: C_36  and  O_37
REMARK                            x       y       z     vdW  Elec       q    Type
REMARK                         _______ _______ _______ _____ _____    ______ ____
ROOT
ATOM      1  C   UNL     1     -33.603  19.977   0.519  0.00  0.00    +0.000 C 
ATOM      2  C   UNL     1     -32.468  20.195  -0.535  0.00  0.00    +0.000 C 
ATOM      3  C   UNL     1     -34.991  20.515   0.005  0.00  0.00    +0.000 C 
ATOM      4  C   UNL     1     -31.147  19.695   0.063  0.00  0.00    +0.002 C 
ATOM      5  C   UNL     1     -31.190  18.198   0.430  0.00  0.00    +0.025 C 
ATOM      6  C   UNL     1     -34.798  22.021  -0.364  0.00  0.00    +0.002 C 
ATOM      7  C   UNL     1     -33.636  18.517   1.046  0.00  0.00    +0.000 C 
ATOM      8  C   UNL     1     -32.261  18.003   1.511  0.00  0.00    +0.002 C 
ATOM      9  C   UNL     1     -32.372  21.668  -0.956  0.00  0.00    +0.000 C 
ATOM     10  C   UNL     1     -29.864  19.826  -0.753  0.00  0.00    +0.003 C 
ATOM     11  C   UNL     1     -33.712  22.229  -1.426  0.00  0.00    +0.000 C 
ATOM     12  C   UNL     1     -29.739  18.025   0.922  0.00  0.00    +0.110 C 
ATOM     13  C   UNL     1     -36.059  20.439   1.133  0.00  0.00    +0.002 C 
ATOM     14  C   UNL     1     -28.898  18.824  -0.093  0.00  0.00    +0.029 C 
ATOM     15  C   UNL     1     -36.112  22.714  -0.765  0.00  0.00    +0.030 C 
ATOM     16  C   UNL     1     -35.493  19.679  -1.200  0.00  0.00    +0.000 C 
ATOM     17  C   UNL     1     -31.482  17.251  -0.760  0.00  0.00    +0.002 C 
ATOM     18  C   UNL     1     -37.375  21.145   0.781  0.00  0.00    +0.030 C 
ATOM     19  C   UNL     1     -37.171  22.590   0.333  0.00  0.00    +0.118 C 
ENDROOT
BRANCH  12  20
ATOM     20  O   UNL     1     -29.320  16.677   1.026  0.00  0.00    -0.384 OA
ATOM     21  H   UNL     1     -29.803  16.242   1.745  0.00  0.00    +0.210 HD
ENDBRANCH  12  20
BRANCH  19  22
ATOM     22  O   UNL     1     -36.777  23.361   1.468  0.00  0.00    -0.331 OA
BRANCH  22  24
ATOM     23  O   UNL     1     -36.940  22.921   3.789  0.00  0.00    -0.317 OA
ATOM     24  C   UNL     1     -37.655  23.144   2.570  0.00  0.00    +0.266 C 
ATOM     25  C   UNL     1     -38.622  24.322   2.737  0.00  0.00    +0.196 C 
ATOM     26  C   UNL     1     -37.902  25.594   3.193  0.00  0.00    +0.172 C 
ATOM     27  C   UNL     1     -36.189  24.052   4.229  0.00  0.00    +0.245 C 
ATOM     28  C   UNL     1     -37.075  25.280   4.444  0.00  0.00    +0.178 C 
BRANCH  25  29
ATOM     29  O   UNL     1     -39.328  24.546   1.525  0.00  0.00    -0.378 OA
ATOM     30  H   UNL     1     -40.243  24.799   1.727  0.00  0.00    +0.211 HD
ENDBRANCH  25  29
BRANCH  26  31
ATOM     31  O   UNL     1     -37.060  26.097   2.154  0.00  0.00    -0.379 OA
ATOM     32  H   UNL     1     -36.229  25.598   2.142  0.00  0.00    +0.211 HD
ENDBRANCH  26  31
BRANCH  28  33
ATOM     33  O   UNL     1     -36.265  26.399   4.789  0.00  0.00    -0.379 OA
ATOM     34  H   UNL     1     -35.376  26.280   4.419  0.00  0.00    +0.211 HD
ENDBRANCH  28  33
BRANCH  27  36
ATOM     35  O   UNL     1     -35.967  22.581   6.129  0.00  0.00    -0.247 OA
ATOM     36  C   UNL     1     -35.612  23.583   5.525  0.00  0.00    +0.344 C 
BRANCH  36  37
ATOM     37  O   UNL     1     -34.636  24.422   5.947  0.00  0.00    -0.478 OA
ATOM     38  H   UNL     1     -34.341  24.390   6.837  0.00  0.00    +0.295 HD
ENDBRANCH  36  37
ENDBRANCH  27  36
ENDBRANCH  22  24
ENDBRANCH  19  22
TORSDOF 8
ENDMDL
MODEL 4
REMARK VINA RESULT:      -7.1      1.603      2.590
REMARK  Name = 53480451
REMARK  8 active torsions:
REMARK  status: ('A' for Active; 'I' for Inactive)
REMARK    1  A    between atoms: C_12  and  O_20
REMARK    2  A    between atoms: C_19  and  O_22
REMARK    3  A    between atoms: O_22  and  C_24
REMARK    4  A    between atoms: C_25  and  O_29
REMARK    5  A    between atoms: C_26  and  O_31
REMARK    6  A    between atoms: C_27  and  C_36
REMARK    7  A    between atoms: C_28  and  O_33
REMARK    8  A    between atoms: C_36  and  O_37
REMARK                            x       y       z     vdW  Elec       q    Type
REMARK                         _______ _______ _______ _____ _____    ______ ____
ROOT
ATOM      1  C   UNL     1     -32.505  20.014   0.640  0.00  0.00    +0.000 C 
ATOM      2  C   UNL     1     -31.421  19.948  -0.486  0.00  0.00    +0.000 C 
ATOM      3  C   UNL     1     -33.703  20.956   0.247  0.00  0.00    +0.000 C 
ATOM      4  C   UNL     1     -30.271  19.057  -0.003  0.00  0.00    +0.002 C 
ATOM      5  C   UNL     1     -30.728  17.619   0.318  0.00  0.00    +0.025 C 
ATOM      6  C   UNL     1     -33.101  22.360  -0.086  0.00  0.00    +0.002 C 
ATOM      7  C   UNL     1     -32.931  18.600   1.120  0.00  0.00    +0.000 C 
ATOM      8  C   UNL     1     -31.741  17.686   1.467  0.00  0.00    +0.002 C 
ATOM      9  C   UNL     1     -30.924  21.350  -0.864  0.00  0.00    +0.000 C 
ATOM     10  C   UNL     1     -29.057  18.853  -0.906  0.00  0.00    +0.003 C 
ATOM     11  C   UNL     1     -32.067  22.299  -1.217  0.00  0.00    +0.000 C 
ATOM     12  C   UNL     1     -29.364  17.007   0.696  0.00  0.00    +0.110 C 
ATOM     13  C   UNL     1     -34.676  21.134   1.447  0.00  0.00    +0.002 C 
ATOM     14  C   UNL     1     -28.389  17.581  -0.352  0.00  0.00    +0.029 C 
ATOM     15  C   UNL     1     -34.176  23.423  -0.367  0.00  0.00    +0.030 C 
ATOM     16  C   UNL     1     -34.499  20.366  -0.945  0.00  0.00    +0.000 C 
ATOM     17  C   UNL     1     -31.355  16.861  -0.879  0.00  0.00    +0.002 C 
ATOM     18  C   UNL     1     -35.747  22.208   1.216  0.00  0.00    +0.030 C 
ATOM     19  C   UNL     1     -35.156  23.553   0.801  0.00  0.00    +0.118 C 
ENDROOT
BRANCH  12  20
ATOM     20  O   UNL     1     -29.352  15.593   0.725  0.00  0.00    -0.384 OA
ATOM     21  H   UNL     1     -30.233  15.266   0.963  0.00  0.00    +0.210 HD
ENDBRANCH  12  20
BRANCH  19  22
ATOM     22  O   UNL     1     -34.486  24.116   1.929  0.00  0.00    -0.331 OA
BRANCH  22  24
ATOM     23  O   UNL     1     -36.158  25.783   2.114  0.00  0.00    -0.317 OA
ATOM     24  C   UNL     1     -34.755  25.511   2.047  0.00  0.00    +0.266 C 
ATOM     25  C   UNL     1     -34.048  26.101   3.272  0.00  0.00    +0.196 C 
ATOM     26  C   UNL     1     -34.646  25.585   4.583  0.00  0.00    +0.172 C 
ATOM     27  C   UNL     1     -36.789  25.261   3.284  0.00  0.00    +0.245 C 
ATOM     28  C   UNL     1     -36.162  25.811   4.566  0.00  0.00    +0.178 C 
BRANCH  25  29
ATOM     29  O   UNL     1     -32.655  25.828   3.208  0.00  0.00    -0.378 OA
ATOM     30  H   UNL     1     -32.512  24.983   2.753  0.00  0.00    +0.211 HD
ENDBRANCH  25  29
BRANCH  26  31
ATOM     31  O   UNL     1     -34.352  24.198   4.760  0.00  0.00    -0.379 OA
ATOM     32  H   UNL     1     -34.944  23.826   5.432  0.00  0.00    +0.211 HD
ENDBRANCH  26  31
BRANCH  28  33
ATOM     33  O   UNL     1     -36.763  25.189   5.696  0.00  0.00    -0.379 OA
ATOM     34  H   UNL     1     -36.389  24.301   5.812  0.00  0.00    +0.211 HD
ENDBRANCH  28  33
BRANCH  27  36
ATOM     35  O   UNL     1     -38.572  26.599   2.358  0.00  0.00    -0.247 OA
ATOM     36  C   UNL     1     -38.198  25.736   3.139  0.00  0.00    +0.344 C 
BRANCH  36  37
ATOM     37  O   UNL     1     -39.015  25.077   3.997  0.00  0.00    -0.478 OA
ATOM     38  H   UNL     1     -39.853  24.772   3.705  0.00  0.00    +0.295 HD
ENDBRANCH  36  37
ENDBRANCH  27  36
ENDBRANCH  22  24
ENDBRANCH  19  22
TORSDOF 8
ENDMDL
MODEL 5
REMARK VINA RESULT:      -6.7      1.791      2.505
REMARK  Name = 53480451
REMARK  8 active torsions:
REMARK  status: ('A' for Active; 'I' for Inactive)
REMARK    1  A    between atoms: C_12  and  O_20
REMARK    2  A    between atoms: C_19  and  O_22
REMARK    3  A    between atoms: O_22  and  C_24
REMARK    4  A    between atoms: C_25  and  O_29
REMARK    5  A    between atoms: C_26  and  O_31
REMARK    6  A    between atoms: C_27  and  C_36
REMARK    7  A    between atoms: C_28  and  O_33
REMARK    8  A    between atoms: C_36  and  O_37
REMARK                            x       y       z     vdW  Elec       q    Type
REMARK                         _______ _______ _______ _____ _____    ______ ____
ROOT
ATOM      1  C   UNL     1     -32.563  20.786   0.205  0.00  0.00    +0.000 C 
ATOM      2  C   UNL     1     -31.367  20.554  -0.774  0.00  0.00    +0.000 C 
ATOM      3  C   UNL     1     -33.581  21.850  -0.354  0.00  0.00    +0.000 C 
ATOM      4  C   UNL     1     -30.401  19.550  -0.134  0.00  0.00    +0.002 C 
ATOM      5  C   UNL     1     -31.065  18.189   0.156  0.00  0.00    +0.025 C 
ATOM      6  C   UNL     1     -32.776  23.160  -0.636  0.00  0.00    +0.002 C 
ATOM      7  C   UNL     1     -33.214  19.451   0.656  0.00  0.00    +0.000 C 
ATOM      8  C   UNL     1     -32.196  18.415   1.167  0.00  0.00    +0.002 C 
ATOM      9  C   UNL     1     -30.660  21.873  -1.115  0.00  0.00    +0.000 C 
ATOM     10  C   UNL     1     -29.119  19.173  -0.872  0.00  0.00    +0.003 C 
ATOM     11  C   UNL     1     -31.628  22.938  -1.628  0.00  0.00    +0.000 C 
ATOM     12  C   UNL     1     -29.842  17.434   0.715  0.00  0.00    +0.110 C 
ATOM     13  C   UNL     1     -34.665  22.183   0.710  0.00  0.00    +0.002 C 
ATOM     14  C   UNL     1     -28.683  17.851  -0.214  0.00  0.00    +0.029 C 
ATOM     15  C   UNL     1     -33.672  24.332  -1.071  0.00  0.00    +0.030 C 
ATOM     16  C   UNL     1     -34.291  21.317  -1.625  0.00  0.00    +0.000 C 
ATOM     17  C   UNL     1     -31.629  17.469  -1.094  0.00  0.00    +0.002 C 
ATOM     18  C   UNL     1     -35.561  23.367   0.325  0.00  0.00    +0.030 C 
ATOM     19  C   UNL     1     -34.765  24.618  -0.039  0.00  0.00    +0.118 C 
ENDROOT
BRANCH  12  20
ATOM     20  O   UNL     1     -30.006  16.029   0.773  0.00  0.00    -0.384 OA
ATOM     21  H   UNL     1     -30.655  15.751   0.109  0.00  0.00    +0.210 HD
ENDBRANCH  12  20
BRANCH  19  22
ATOM     22  O   UNL     1     -34.174  25.137   1.153  0.00  0.00    -0.331 OA
BRANCH  22  24
ATOM     23  O   UNL     1     -35.749  26.005   2.693  0.00  0.00    -0.317 OA
ATOM     24  C   UNL     1     -34.864  26.298   1.609  0.00  0.00    +0.266 C 
ATOM     25  C   UNL     1     -33.874  27.394   2.021  0.00  0.00    +0.196 C 
ATOM     26  C   UNL     1     -33.093  27.015   3.282  0.00  0.00    +0.172 C 
ATOM     27  C   UNL     1     -35.081  25.574   3.880  0.00  0.00    +0.245 C 
ATOM     28  C   UNL     1     -34.081  26.616   4.383  0.00  0.00    +0.178 C 
BRANCH  25  29
ATOM     29  O   UNL     1     -32.993  27.683   0.946  0.00  0.00    -0.378 OA
ATOM     30  H   UNL     1     -33.152  28.586   0.630  0.00  0.00    +0.211 HD
ENDBRANCH  25  29
BRANCH  26  31
ATOM     31  O   UNL     1     -32.190  25.941   3.012  0.00  0.00    -0.379 OA
ATOM     32  H   UNL     1     -32.337  25.227   3.651  0.00  0.00    +0.211 HD
ENDBRANCH  26  31
BRANCH  28  33
ATOM     33  O   UNL     1     -33.378  26.099   5.508  0.00  0.00    -0.379 OA
ATOM     34  H   UNL     1     -32.538  25.713   5.214  0.00  0.00    +0.211 HD
ENDBRANCH  28  33
BRANCH  27  36
ATOM     35  O   UNL     1     -36.819  24.368   5.041  0.00  0.00    -0.247 OA
ATOM     36  C   UNL     1     -36.204  25.407   4.851  0.00  0.00    +0.344 C 
BRANCH  36  37
ATOM     37  O   UNL     1     -36.455  26.571   5.498  0.00  0.00    -0.478 OA
ATOM     38  H   UNL     1     -35.773  27.207   5.602  0.00  0.00    +0.295 HD
ENDBRANCH  36  37
ENDBRANCH  27  36
ENDBRANCH  22  24
ENDBRANCH  19  22
TORSDOF 8
ENDMDL
MODEL 6
REMARK VINA RESULT:      -6.7      3.210      5.117
REMARK  Name = 53480451
REMARK  8 active torsions:
REMARK  status: ('A' for Active; 'I' for Inactive)
REMARK    1  A    between atoms: C_12  and  O_20
REMARK    2  A    between atoms: C_19  and  O_22
REMARK    3  A    between atoms: O_22  and  C_24
REMARK    4  A    between atoms: C_25  and  O_29
REMARK    5  A    between atoms: C_26  and  O_31
REMARK    6  A    between atoms: C_27  and  C_36
REMARK    7  A    between atoms: C_28  and  O_33
REMARK    8  A    between atoms: C_36  and  O_37
REMARK                            x       y       z     vdW  Elec       q    Type
REMARK                         _______ _______ _______ _____ _____    ______ ____
ROOT
ATOM      1  C   UNL     1     -35.160  22.262   1.863  0.00  0.00    +0.000 C 
ATOM      2  C   UNL     1     -35.788  22.168   0.434  0.00  0.00    +0.000 C 
ATOM      3  C   UNL     1     -35.789  23.435   2.705  0.00  0.00    +0.000 C 
ATOM      4  C   UNL     1     -35.086  21.042  -0.333  0.00  0.00    +0.002 C 
ATOM      5  C   UNL     1     -35.236  19.671   0.356  0.00  0.00    +0.025 C 
ATOM      6  C   UNL     1     -35.602  24.750   1.882  0.00  0.00    +0.002 C 
ATOM      7  C   UNL     1     -35.149  20.888   2.586  0.00  0.00    +0.000 C 
ATOM      8  C   UNL     1     -34.560  19.751   1.730  0.00  0.00    +0.002 C 
ATOM      9  C   UNL     1     -35.682  23.506  -0.311  0.00  0.00    +0.000 C 
ATOM     10  C   UNL     1     -35.488  20.762  -1.779  0.00  0.00    +0.003 C 
ATOM     11  C   UNL     1     -36.253  24.670   0.496  0.00  0.00    +0.000 C 
ATOM     12  C   UNL     1     -34.496  18.796  -0.676  0.00  0.00    +0.110 C 
ATOM     13  C   UNL     1     -35.032  23.610   4.052  0.00  0.00    +0.002 C 
ATOM     14  C   UNL     1     -34.973  19.334  -2.040  0.00  0.00    +0.029 C 
ATOM     15  C   UNL     1     -36.061  26.005   2.644  0.00  0.00    +0.030 C 
ATOM     16  C   UNL     1     -37.281  23.149   3.016  0.00  0.00    +0.000 C 
ATOM     17  C   UNL     1     -36.700  19.193   0.529  0.00  0.00    +0.002 C 
ATOM     18  C   UNL     1     -35.442  24.868   4.828  0.00  0.00    +0.030 C 
ATOM     19  C   UNL     1     -35.344  26.139   3.989  0.00  0.00    +0.118 C 
ENDROOT
BRANCH  12  20
ATOM     20  O   UNL     1     -34.731  17.408  -0.533  0.00  0.00    -0.384 OA
ATOM     21  H   UNL     1     -35.686  17.240  -0.520  0.00  0.00    +0.210 HD
ENDBRANCH  12  20
BRANCH  19  22
ATOM     22  O   UNL     1     -33.963  26.428   3.770  0.00  0.00    -0.331 OA
BRANCH  22  24
ATOM     23  O   UNL     1     -33.316  28.570   4.544  0.00  0.00    -0.317 OA
ATOM     24  C   UNL     1     -33.769  27.797   3.428  0.00  0.00    +0.266 C 
ATOM     25  C   UNL     1     -32.783  27.934   2.262  0.00  0.00    +0.196 C 
ATOM     26  C   UNL     1     -31.360  27.537   2.664  0.00  0.00    +0.172 C 
ATOM     27  C   UNL     1     -32.021  28.196   5.013  0.00  0.00    +0.245 C 
ATOM     28  C   UNL     1     -30.958  28.320   3.920  0.00  0.00    +0.178 C 
BRANCH  25  29
ATOM     29  O   UNL     1     -33.230  27.164   1.155  0.00  0.00    -0.378 OA
ATOM     30  H   UNL     1     -34.192  27.048   1.209  0.00  0.00    +0.211 HD
ENDBRANCH  25  29
BRANCH  26  31
ATOM     31  O   UNL     1     -31.278  26.132   2.908  0.00  0.00    -0.379 OA
ATOM     32  H   UNL     1     -32.151  25.797   3.164  0.00  0.00    +0.211 HD
ENDBRANCH  26  31
BRANCH  28  33
ATOM     33  O   UNL     1     -29.709  27.847   4.412  0.00  0.00    -0.379 OA
ATOM     34  H   UNL     1     -29.829  27.490   5.306  0.00  0.00    +0.211 HD
ENDBRANCH  28  33
BRANCH  27  36
ATOM     35  O   UNL     1     -32.258  30.299   6.173  0.00  0.00    -0.247 OA
ATOM     36  C   UNL     1     -31.768  29.181   6.108  0.00  0.00    +0.344 C 
BRANCH  36  37
ATOM     37  O   UNL     1     -30.917  28.667   7.028  0.00  0.00    -0.478 OA
ATOM     38  H   UNL     1     -30.617  29.199   7.740  0.00  0.00    +0.295 HD
ENDBRANCH  36  37
ENDBRANCH  27  36
ENDBRANCH  22  24
ENDBRANCH  19  22
TORSDOF 8
ENDMDL
MODEL 7
REMARK VINA RESULT:      -6.6      4.120      6.306
REMARK  Name = 53480451
REMARK  8 active torsions:
REMARK  status: ('A' for Active; 'I' for Inactive)
REMARK    1  A    between atoms: C_12  and  O_20
REMARK    2  A    between atoms: C_19  and  O_22
REMARK    3  A    between atoms: O_22  and  C_24
REMARK    4  A    between atoms: C_25  and  O_29
REMARK    5  A    between atoms: C_26  and  O_31
REMARK    6  A    between atoms: C_27  and  C_36
REMARK    7  A    between atoms: C_28  and  O_33
REMARK    8  A    between atoms: C_36  and  O_37
REMARK                            x       y       z     vdW  Elec       q    Type
REMARK                         _______ _______ _______ _____ _____    ______ ____
ROOT
ATOM      1  C   UNL     1     -34.919  24.907   2.183  0.00  0.00    +0.000 C 
ATOM      2  C   UNL     1     -34.734  23.960   0.952  0.00  0.00    +0.000 C 
ATOM      3  C   UNL     1     -34.944  26.423   1.759  0.00  0.00    +0.000 C 
ATOM      4  C   UNL     1     -34.667  22.514   1.456  0.00  0.00    +0.002 C 
ATOM      5  C   UNL     1     -35.943  22.088   2.211  0.00  0.00    +0.025 C 
ATOM      6  C   UNL     1     -33.621  26.709   0.978  0.00  0.00    +0.002 C 
ATOM      7  C   UNL     1     -36.111  24.472   3.078  0.00  0.00    +0.000 C 
ATOM      8  C   UNL     1     -36.082  22.979   3.452  0.00  0.00    +0.002 C 
ATOM      9  C   UNL     1     -33.482  24.332   0.145  0.00  0.00    +0.000 C 
ATOM     10  C   UNL     1     -34.452  21.384   0.453  0.00  0.00    +0.003 C 
ATOM     11  C   UNL     1     -33.461  25.806  -0.252  0.00  0.00    +0.000 C 
ATOM     12  C   UNL     1     -35.574  20.621   2.508  0.00  0.00    +0.110 C 
ATOM     13  C   UNL     1     -34.959  27.343   3.013  0.00  0.00    +0.002 C 
ATOM     14  C   UNL     1     -34.921  20.123   1.203  0.00  0.00    +0.029 C 
ATOM     15  C   UNL     1     -33.450  28.193   0.608  0.00  0.00    +0.030 C 
ATOM     16  C   UNL     1     -36.202  26.736   0.908  0.00  0.00    +0.000 C 
ATOM     17  C   UNL     1     -37.244  22.167   1.373  0.00  0.00    +0.002 C 
ATOM     18  C   UNL     1     -34.763  28.829   2.687  0.00  0.00    +0.030 C 
ATOM     19  C   UNL     1     -33.516  29.091   1.845  0.00  0.00    +0.118 C 
ENDROOT
BRANCH  12  20
ATOM     20  O   UNL     1     -36.670  19.817   2.902  0.00  0.00    -0.384 OA
ATOM     21  H   UNL     1     -36.343  19.008   3.326  0.00  0.00    +0.210 HD
ENDBRANCH  12  20
BRANCH  19  22
ATOM     22  O   UNL     1     -32.367  28.866   2.662  0.00  0.00    -0.331 OA
BRANCH  22  24
ATOM     23  O   UNL     1     -32.597  29.331   4.973  0.00  0.00    -0.317 OA
ATOM     24  C   UNL     1     -32.259  29.854   3.685  0.00  0.00    +0.266 C 
ATOM     25  C   UNL     1     -30.849  30.455   3.717  0.00  0.00    +0.196 C 
ATOM     26  C   UNL     1     -29.805  29.441   4.190  0.00  0.00    +0.172 C 
ATOM     27  C   UNL     1     -31.697  28.325   5.438  0.00  0.00    +0.245 C 
ATOM     28  C   UNL     1     -30.259  28.838   5.524  0.00  0.00    +0.178 C 
BRANCH  25  29
ATOM     29  O   UNL     1     -30.512  30.971   2.437  0.00  0.00    -0.378 OA
ATOM     30  H   UNL     1     -29.698  30.547   2.122  0.00  0.00    +0.211 HD
ENDBRANCH  25  29
BRANCH  26  31
ATOM     31  O   UNL     1     -29.624  28.411   3.216  0.00  0.00    -0.379 OA
ATOM     32  H   UNL     1     -29.492  28.812   2.343  0.00  0.00    +0.211 HD
ENDBRANCH  26  31
BRANCH  28  33
ATOM     33  O   UNL     1     -29.393  27.773   5.900  0.00  0.00    -0.379 OA
ATOM     34  H   UNL     1     -28.561  28.139   6.239  0.00  0.00    +0.211 HD
ENDBRANCH  28  33
BRANCH  27  36
ATOM     35  O   UNL     1     -32.954  27.064   7.068  0.00  0.00    -0.247 OA
ATOM     36  C   UNL     1     -32.228  28.010   6.799  0.00  0.00    +0.344 C 
BRANCH  36  37
ATOM     37  O   UNL     1     -31.794  28.920   7.705  0.00  0.00    -0.478 OA
ATOM     38  H   UNL     1     -32.402  29.515   8.100  0.00  0.00    +0.295 HD
ENDBRANCH  36  37
ENDBRANCH  27  36
ENDBRANCH  22  24
ENDBRANCH  19  22
TORSDOF 8
ENDMDL
MODEL 8
REMARK VINA RESULT:      -6.6      3.125      5.167
REMARK  Name = 53480451
REMARK  8 active torsions:
REMARK  status: ('A' for Active; 'I' for Inactive)
REMARK    1  A    between atoms: C_12  and  O_20
REMARK    2  A    between atoms: C_19  and  O_22
REMARK    3  A    between atoms: O_22  and  C_24
REMARK    4  A    between atoms: C_25  and  O_29
REMARK    5  A    between atoms: C_26  and  O_31
REMARK    6  A    between atoms: C_27  and  C_36
REMARK    7  A    between atoms: C_28  and  O_33
REMARK    8  A    between atoms: C_36  and  O_37
REMARK                            x       y       z     vdW  Elec       q    Type
REMARK                         _______ _______ _______ _____ _____    ______ ____
ROOT
ATOM      1  C   UNL     1     -37.388  20.223  -0.415  0.00  0.00    +0.000 C 
ATOM      2  C   UNL     1     -36.612  18.868  -0.506  0.00  0.00    +0.000 C 
ATOM      3  C   UNL     1     -36.417  21.460  -0.484  0.00  0.00    +0.000 C 
ATOM      4  C   UNL     1     -37.619  17.720  -0.377  0.00  0.00    +0.002 C 
ATOM      5  C   UNL     1     -38.691  17.743  -1.486  0.00  0.00    +0.025 C 
ATOM      6  C   UNL     1     -35.368  21.294   0.662  0.00  0.00    +0.002 C 
ATOM      7  C   UNL     1     -38.575  20.281  -1.413  0.00  0.00    +0.000 C 
ATOM      8  C   UNL     1     -39.491  19.045  -1.349  0.00  0.00    +0.002 C 
ATOM      9  C   UNL     1     -35.518  18.778   0.567  0.00  0.00    +0.000 C 
ATOM     10  C   UNL     1     -37.115  16.279  -0.397  0.00  0.00    +0.003 C 
ATOM     11  C   UNL     1     -34.581  19.983   0.548  0.00  0.00    +0.000 C 
ATOM     12  C   UNL     1     -39.467  16.467  -1.103  0.00  0.00    +0.110 C 
ATOM     13  C   UNL     1     -37.195  22.782  -0.224  0.00  0.00    +0.002 C 
ATOM     14  C   UNL     1     -38.367  15.450  -0.740  0.00  0.00    +0.029 C 
ATOM     15  C   UNL     1     -34.425  22.503   0.793  0.00  0.00    +0.030 C 
ATOM     16  C   UNL     1     -35.746  21.555  -1.879  0.00  0.00    +0.000 C 
ATOM     17  C   UNL     1     -38.130  17.632  -2.926  0.00  0.00    +0.002 C 
ATOM     18  C   UNL     1     -36.286  24.007  -0.058  0.00  0.00    +0.030 C 
ATOM     19  C   UNL     1     -35.205  23.803   1.001  0.00  0.00    +0.118 C 
ENDROOT
BRANCH  12  20
ATOM     20  O   UNL     1     -40.329  15.987  -2.118  0.00  0.00    -0.384 OA
ATOM     21  H   UNL     1     -40.541  16.708  -2.731  0.00  0.00    +0.210 HD
ENDBRANCH  12  20
BRANCH  19  22
ATOM     22  O   UNL     1     -35.830  23.788   2.284  0.00  0.00    -0.331 OA
BRANCH  22  24
ATOM     23  O   UNL     1     -34.106  24.898   3.469  0.00  0.00    -0.317 OA
ATOM     24  C   UNL     1     -34.865  23.693   3.329  0.00  0.00    +0.266 C 
ATOM     25  C   UNL     1     -35.535  23.337   4.661  0.00  0.00    +0.196 C 
ATOM     26  C   UNL     1     -36.409  24.479   5.185  0.00  0.00    +0.172 C 
ATOM     27  C   UNL     1     -34.884  26.020   3.887  0.00  0.00    +0.245 C 
ATOM     28  C   UNL     1     -35.580  25.767   5.225  0.00  0.00    +0.178 C 
BRANCH  25  29
ATOM     29  O   UNL     1     -36.291  22.143   4.521  0.00  0.00    -0.378 OA
ATOM     30  H   UNL     1     -35.933  21.618   3.788  0.00  0.00    +0.211 HD
ENDBRANCH  25  29
BRANCH  26  31
ATOM     31  O   UNL     1     -37.560  24.655   4.357  0.00  0.00    -0.379 OA
ATOM     32  H   UNL     1     -37.886  25.564   4.445  0.00  0.00    +0.211 HD
ENDBRANCH  26  31
BRANCH  28  33
ATOM     33  O   UNL     1     -36.413  26.876   5.547  0.00  0.00    -0.379 OA
ATOM     34  H   UNL     1     -36.665  27.337   4.731  0.00  0.00    +0.211 HD
ENDBRANCH  28  33
BRANCH  27  36
ATOM     35  O   UNL     1     -32.697  26.929   4.351  0.00  0.00    -0.247 OA
ATOM     36  C   UNL     1     -33.860  27.101   4.019  0.00  0.00    +0.344 C 
BRANCH  36  37
ATOM     37  O   UNL     1     -34.398  28.308   3.720  0.00  0.00    -0.478 OA
ATOM     38  H   UNL     1     -35.004  28.712   4.311  0.00  0.00    +0.295 HD
ENDBRANCH  36  37
ENDBRANCH  27  36
ENDBRANCH  22  24
ENDBRANCH  19  22
TORSDOF 8
ENDMDL
MODEL 9
REMARK VINA RESULT:      -6.6      2.728      7.903
REMARK  Name = 53480451
REMARK  8 active torsions:
REMARK  status: ('A' for Active; 'I' for Inactive)
REMARK    1  A    between atoms: C_12  and  O_20
REMARK    2  A    between atoms: C_19  and  O_22
REMARK    3  A    between atoms: O_22  and  C_24
REMARK    4  A    between atoms: C_25  and  O_29
REMARK    5  A    between atoms: C_26  and  O_31
REMARK    6  A    between atoms: C_27  and  C_36
REMARK    7  A    between atoms: C_28  and  O_33
REMARK    8  A    between atoms: C_36  and  O_37
REMARK                            x       y       z     vdW  Elec       q    Type
REMARK                         _______ _______ _______ _____ _____    ______ ____
ROOT
ATOM      1  C   UNL     1     -34.497  23.908   2.459  0.00  0.00    +0.000 C 
ATOM      2  C   UNL     1     -34.885  24.226   3.941  0.00  0.00    +0.000 C 
ATOM      3  C   UNL     1     -35.416  22.789   1.840  0.00  0.00    +0.000 C 
ATOM      4  C   UNL     1     -33.913  25.280   4.482  0.00  0.00    +0.002 C 
ATOM      5  C   UNL     1     -33.952  26.594   3.676  0.00  0.00    +0.025 C 
ATOM      6  C   UNL     1     -35.313  21.536   2.768  0.00  0.00    +0.002 C 
ATOM      7  C   UNL     1     -34.384  25.194   1.598  0.00  0.00    +0.000 C 
ATOM      8  C   UNL     1     -33.508  26.286   2.240  0.00  0.00    +0.002 C 
ATOM      9  C   UNL     1     -34.876  22.957   4.805  0.00  0.00    +0.000 C 
ATOM     10  C   UNL     1     -34.049  25.745   5.930  0.00  0.00    +0.003 C 
ATOM     11  C   UNL     1     -35.731  21.841   4.211  0.00  0.00    +0.000 C 
ATOM     12  C   UNL     1     -32.942  27.418   4.500  0.00  0.00    +0.110 C 
ATOM     13  C   UNL     1     -34.903  22.377   0.431  0.00  0.00    +0.002 C 
ATOM     14  C   UNL     1     -33.289  27.085   5.965  0.00  0.00    +0.029 C 
ATOM     15  C   UNL     1     -36.066  20.315   2.213  0.00  0.00    +0.030 C 
ATOM     16  C   UNL     1     -36.876  23.292   1.700  0.00  0.00    +0.000 C 
ATOM     17  C   UNL     1     -35.334  27.292   3.648  0.00  0.00    +0.002 C 
ATOM     18  C   UNL     1     -35.611  21.143  -0.144  0.00  0.00    +0.030 C 
ATOM     19  C   UNL     1     -35.586  19.949   0.807  0.00  0.00    +0.118 C 
ENDROOT
BRANCH  12  20
ATOM     20  O   UNL     1     -32.980  28.808   4.241  0.00  0.00    -0.384 OA
ATOM     21  H   UNL     1     -32.950  28.961   3.284  0.00  0.00    +0.210 HD
ENDBRANCH  12  20
BRANCH  19  22
ATOM     22  O   UNL     1     -34.248  19.454   0.871  0.00  0.00    -0.331 OA
BRANCH  22  24
ATOM     23  O   UNL     1     -32.779  19.850  -0.943  0.00  0.00    -0.317 OA
ATOM     24  C   UNL     1     -33.801  19.006  -0.406  0.00  0.00    +0.266 C 
ATOM     25  C   UNL     1     -33.301  17.558  -0.332  0.00  0.00    +0.196 C 
ATOM     26  C   UNL     1     -32.008  17.440   0.479  0.00  0.00    +0.172 C 
ATOM     27  C   UNL     1     -31.568  19.838  -0.187  0.00  0.00    +0.245 C 
ATOM     28  C   UNL     1     -30.978  18.432  -0.073  0.00  0.00    +0.178 C 
BRANCH  25  29
ATOM     29  O   UNL     1     -34.315  16.720   0.205  0.00  0.00    -0.378 OA
ATOM     30  H   UNL     1     -33.978  16.273   0.998  0.00  0.00    +0.211 HD
ENDBRANCH  25  29
BRANCH  26  31
ATOM     31  O   UNL     1     -32.254  17.699   1.862  0.00  0.00    -0.379 OA
ATOM     32  H   UNL     1     -31.435  17.573   2.365  0.00  0.00    +0.211 HD
ENDBRANCH  26  31
BRANCH  28  33
ATOM     33  O   UNL     1     -29.829  18.463   0.767  0.00  0.00    -0.379 OA
ATOM     34  H   UNL     1     -30.013  17.971   1.583  0.00  0.00    +0.211 HD
ENDBRANCH  28  33
BRANCH  27  36
ATOM     35  O   UNL     1     -30.612  21.942  -0.882  0.00  0.00    -0.247 OA
ATOM     36  C   UNL     1     -30.670  20.725  -0.986  0.00  0.00    +0.344 C 
BRANCH  36  37
ATOM     37  O   UNL     1     -29.922  19.997  -1.849  0.00  0.00    -0.478 OA
ATOM     38  H   UNL     1     -29.046  20.265  -2.053  0.00  0.00    +0.295 HD
ENDBRANCH  36  37
ENDBRANCH  27  36
ENDBRANCH  22  24
ENDBRANCH  19  22
TORSDOF 8
ENDMDL
