MODEL 1
REMARK VINA RESULT:      -6.2      0.000      0.000
REMARK  Name = 5232719
REMARK  3 active torsions:
REMARK  status: ('A' for Active; 'I' for Inactive)
REMARK    1  A    between atoms: O_1  and  P_3
REMARK    2  A    between atoms: O_1  and  C_13
REMARK    3  A    between atoms: C_16  and  S_18
REMARK                            x       y       z     vdW  Elec       q    Type
REMARK                         _______ _______ _______ _____ _____    ______ ____
ROOT
ATOM      1  O   UNL     1     -34.452  26.946   5.207  0.00  0.00    -0.400 OA
ENDROOT
BRANCH   1   3
ATOM      2  S   UNL     1     -32.964  26.211   2.690  0.00  0.00    +0.036 S 
ATOM      3  P   UNL     1     -33.246  27.382   4.212  0.00  0.00    +0.364 P 
ATOM      4  O   UNL     1     -33.633  28.926   3.896  0.00  0.00    -0.288 OA
ATOM      5  O   UNL     1     -32.014  27.561   5.254  0.00  0.00    -0.288 OA
ATOM      6  C   UNL     1     -31.480  29.857   4.596  0.00  0.00    +0.056 C 
ATOM      7  C   UNL     1     -32.578  29.804   3.512  0.00  0.00    +0.154 C 
ATOM      8  C   UNL     1     -30.953  28.434   4.876  0.00  0.00    +0.154 C 
ATOM      9  C   UNL     1     -30.325  30.743   4.111  0.00  0.00    +0.005 C 
ATOM     10  C   UNL     1     -32.063  30.453   5.891  0.00  0.00    +0.005 C 
ENDBRANCH   1   3
BRANCH   1  13
ATOM     11  N   UNL     1     -36.283  25.890   4.255  0.00  0.00    -0.301 NA
ATOM     12  N   UNL     1     -36.676  23.548   4.659  0.00  0.00    -0.343 NA
ATOM     13  C   UNL     1     -35.183  25.802   5.031  0.00  0.00    +0.276 C 
ATOM     14  C   UNL     1     -34.771  24.637   5.647  0.00  0.00    +0.155 C 
ATOM     15  C   UNL     1     -35.564  23.530   5.423  0.00  0.00    +0.110 C 
ATOM     16  C   UNL     1     -36.972  24.742   4.113  0.00  0.00    +0.170 C 
ATOM     17  C   UNL     1     -35.199  22.226   6.048  0.00  0.00    +0.063 C 
BRANCH  16  18
ATOM     18  S   UNL     1     -38.437  24.814   3.103  0.00  0.00    -0.017 S 
ATOM     19  C   UNL     1     -38.045  26.268   2.105  0.00  0.00    +0.087 C 
ENDBRANCH  16  18
ENDBRANCH   1  13
TORSDOF 3
ENDMDL
MODEL 2
REMARK VINA RESULT:      -5.7      1.460      2.444
REMARK  Name = 5232719
REMARK  3 active torsions:
REMARK  status: ('A' for Active; 'I' for Inactive)
REMARK    1  A    between atoms: O_1  and  P_3
REMARK    2  A    between atoms: O_1  and  C_13
REMARK    3  A    between atoms: C_16  and  S_18
REMARK                            x       y       z     vdW  Elec       q    Type
REMARK                         _______ _______ _______ _____ _____    ______ ____
ROOT
ATOM      1  O   UNL     1     -34.112  26.928   5.425  0.00  0.00    -0.400 OA
ENDROOT
BRANCH   1   3
ATOM      2  S   UNL     1     -32.782  26.357   2.779  0.00  0.00    +0.036 S 
ATOM      3  P   UNL     1     -33.028  27.475   4.347  0.00  0.00    +0.364 P 
ATOM      4  O   UNL     1     -33.557  28.990   4.100  0.00  0.00    -0.288 OA
ATOM      5  O   UNL     1     -31.733  27.732   5.291  0.00  0.00    -0.288 OA
ATOM      6  C   UNL     1     -31.432  30.074   4.649  0.00  0.00    +0.056 C 
ATOM      7  C   UNL     1     -32.607  29.955   3.655  0.00  0.00    +0.154 C 
ATOM      8  C   UNL     1     -30.776  28.692   4.851  0.00  0.00    +0.154 C 
ATOM      9  C   UNL     1     -30.392  31.057   4.095  0.00  0.00    +0.005 C 
ATOM     10  C   UNL     1     -31.952  30.599   6.001  0.00  0.00    +0.005 C 
ENDBRANCH   1   3
BRANCH   1  13
ATOM     11  N   UNL     1     -34.690  24.692   5.627  0.00  0.00    -0.301 NA
ATOM     12  N   UNL     1     -36.712  23.867   4.608  0.00  0.00    -0.343 NA
ATOM     13  C   UNL     1     -34.991  25.916   5.146  0.00  0.00    +0.276 C 
ATOM     14  C   UNL     1     -36.118  26.190   4.397  0.00  0.00    +0.155 C 
ATOM     15  C   UNL     1     -36.951  25.116   4.157  0.00  0.00    +0.110 C 
ATOM     16  C   UNL     1     -35.581  23.728   5.326  0.00  0.00    +0.170 C 
ATOM     17  C   UNL     1     -38.193  25.315   3.355  0.00  0.00    +0.063 C 
BRANCH  16  18
ATOM     18  S   UNL     1     -35.220  22.093   5.934  0.00  0.00    -0.017 S 
ATOM     19  C   UNL     1     -35.258  21.176   4.379  0.00  0.00    +0.087 C 
ENDBRANCH  16  18
ENDBRANCH   1  13
TORSDOF 3
ENDMDL
MODEL 3
REMARK VINA RESULT:      -5.7      1.669      2.299
REMARK  Name = 5232719
REMARK  3 active torsions:
REMARK  status: ('A' for Active; 'I' for Inactive)
REMARK    1  A    between atoms: O_1  and  P_3
REMARK    2  A    between atoms: O_1  and  C_13
REMARK    3  A    between atoms: C_16  and  S_18
REMARK                            x       y       z     vdW  Elec       q    Type
REMARK                         _______ _______ _______ _____ _____    ______ ____
ROOT
ATOM      1  O   UNL     1     -35.036  26.958   4.571  0.00  0.00    -0.400 OA
ENDROOT
BRANCH   1   3
ATOM      2  S   UNL     1     -32.821  26.247   2.652  0.00  0.00    +0.036 S 
ATOM      3  P   UNL     1     -34.078  27.528   3.391  0.00  0.00    +0.364 P 
ATOM      4  O   UNL     1     -35.168  28.167   2.372  0.00  0.00    -0.288 OA
ATOM      5  O   UNL     1     -33.464  28.860   4.088  0.00  0.00    -0.288 OA
ATOM      6  C   UNL     1     -34.161  30.397   2.316  0.00  0.00    +0.056 C 
ATOM      7  C   UNL     1     -34.729  29.211   1.507  0.00  0.00    +0.154 C 
ATOM      8  C   UNL     1     -33.018  29.907   3.230  0.00  0.00    +0.154 C 
ATOM      9  C   UNL     1     -33.621  31.462   1.351  0.00  0.00    +0.005 C 
ATOM     10  C   UNL     1     -35.278  31.017   3.176  0.00  0.00    +0.005 C 
ENDBRANCH   1   3
BRANCH   1  13
ATOM     11  N   UNL     1     -36.581  25.472   3.687  0.00  0.00    -0.301 NA
ATOM     12  N   UNL     1     -36.666  23.199   4.479  0.00  0.00    -0.343 NA
ATOM     13  C   UNL     1     -35.569  25.697   4.550  0.00  0.00    +0.276 C 
ATOM     14  C   UNL     1     -35.057  24.736   5.398  0.00  0.00    +0.155 C 
ATOM     15  C   UNL     1     -35.651  23.492   5.319  0.00  0.00    +0.110 C 
ATOM     16  C   UNL     1     -37.075  24.220   3.703  0.00  0.00    +0.170 C 
ATOM     17  C   UNL     1     -35.167  22.389   6.199  0.00  0.00    +0.063 C 
BRANCH  16  18
ATOM     18  S   UNL     1     -38.419  23.881   2.585  0.00  0.00    -0.017 S 
ATOM     19  C   UNL     1     -38.088  22.141   2.233  0.00  0.00    +0.087 C 
ENDBRANCH  16  18
ENDBRANCH   1  13
TORSDOF 3
ENDMDL
MODEL 4
REMARK VINA RESULT:      -5.6      2.303      2.977
REMARK  Name = 5232719
REMARK  3 active torsions:
REMARK  status: ('A' for Active; 'I' for Inactive)
REMARK    1  A    between atoms: O_1  and  P_3
REMARK    2  A    between atoms: O_1  and  C_13
REMARK    3  A    between atoms: C_16  and  S_18
REMARK                            x       y       z     vdW  Elec       q    Type
REMARK                         _______ _______ _______ _____ _____    ______ ____
ROOT
ATOM      1  O   UNL     1     -34.412  26.635   5.608  0.00  0.00    -0.400 OA
ENDROOT
BRANCH   1   3
ATOM      2  S   UNL     1     -31.900  28.298   5.497  0.00  0.00    +0.036 S 
ATOM      3  P   UNL     1     -33.311  27.298   4.616  0.00  0.00    +0.364 P 
ATOM      4  O   UNL     1     -32.866  26.015   3.727  0.00  0.00    -0.288 OA
ATOM      5  O   UNL     1     -34.259  28.105   3.573  0.00  0.00    -0.288 OA
ATOM      6  C   UNL     1     -33.346  27.051   1.562  0.00  0.00    +0.056 C 
ATOM      7  C   UNL     1     -32.337  26.266   2.427  0.00  0.00    +0.154 C 
ATOM      8  C   UNL     1     -33.736  28.364   2.273  0.00  0.00    +0.154 C 
ATOM      9  C   UNL     1     -32.710  27.375   0.203  0.00  0.00    +0.005 C 
ATOM     10  C   UNL     1     -34.607  26.194   1.337  0.00  0.00    +0.005 C 
ENDBRANCH   1   3
BRANCH   1  13
ATOM     11  N   UNL     1     -36.216  25.715   4.477  0.00  0.00    -0.301 NA
ATOM     12  N   UNL     1     -36.628  23.343   4.582  0.00  0.00    -0.343 NA
ATOM     13  C   UNL     1     -35.141  25.526   5.272  0.00  0.00    +0.276 C 
ATOM     14  C   UNL     1     -34.753  24.292   5.755  0.00  0.00    +0.155 C 
ATOM     15  C   UNL     1     -35.542  23.226   5.374  0.00  0.00    +0.110 C 
ATOM     16  C   UNL     1     -36.903  24.597   4.176  0.00  0.00    +0.170 C 
ATOM     17  C   UNL     1     -35.201  21.853   5.849  0.00  0.00    +0.063 C 
BRANCH  16  18
ATOM     18  S   UNL     1     -38.335  24.801   3.135  0.00  0.00    -0.017 S 
ATOM     19  C   UNL     1     -38.445  23.136   2.444  0.00  0.00    +0.087 C 
ENDBRANCH  16  18
ENDBRANCH   1  13
TORSDOF 3
ENDMDL
MODEL 5
REMARK VINA RESULT:      -5.4      5.377      6.918
REMARK  Name = 5232719
REMARK  3 active torsions:
REMARK  status: ('A' for Active; 'I' for Inactive)
REMARK    1  A    between atoms: O_1  and  P_3
REMARK    2  A    between atoms: O_1  and  C_13
REMARK    3  A    between atoms: C_16  and  S_18
REMARK                            x       y       z     vdW  Elec       q    Type
REMARK                         _______ _______ _______ _____ _____    ______ ____
ROOT
ATOM      1  O   UNL     1     -36.482  21.075   2.608  0.00  0.00    -0.400 OA
ENDROOT
BRANCH   1   3
ATOM      2  S   UNL     1     -36.842  23.295   0.599  0.00  0.00    +0.036 S 
ATOM      3  P   UNL     1     -36.407  22.682   2.389  0.00  0.00    +0.364 P 
ATOM      4  O   UNL     1     -37.345  23.215   3.602  0.00  0.00    -0.288 OA
ATOM      5  O   UNL     1     -34.922  23.017   2.953  0.00  0.00    -0.288 OA
ATOM      6  C   UNL     1     -35.658  24.703   4.568  0.00  0.00    +0.056 C 
ATOM      7  C   UNL     1     -37.114  24.537   4.081  0.00  0.00    +0.154 C 
ATOM      8  C   UNL     1     -34.682  24.339   3.430  0.00  0.00    +0.154 C 
ATOM      9  C   UNL     1     -35.425  26.158   4.995  0.00  0.00    +0.005 C 
ATOM     10  C   UNL     1     -35.411  23.777   5.774  0.00  0.00    +0.005 C 
ENDBRANCH   1   3
BRANCH   1  13
ATOM     11  N   UNL     1     -36.677  19.592   0.836  0.00  0.00    -0.301 NA
ATOM     12  N   UNL     1     -34.745  18.388   0.046  0.00  0.00    -0.343 NA
ATOM     13  C   UNL     1     -35.887  20.181   1.758  0.00  0.00    +0.276 C 
ATOM     14  C   UNL     1     -34.536  19.929   1.883  0.00  0.00    +0.155 C 
ATOM     15  C   UNL     1     -34.014  19.014   0.991  0.00  0.00    +0.110 C 
ATOM     16  C   UNL     1     -36.051  18.719   0.025  0.00  0.00    +0.170 C 
ATOM     17  C   UNL     1     -32.562  18.675   1.051  0.00  0.00    +0.063 C 
BRANCH  16  18
ATOM     18  S   UNL     1     -37.057  17.910  -1.202  0.00  0.00    -0.017 S 
ATOM     19  C   UNL     1     -37.734  16.568  -0.201  0.00  0.00    +0.087 C 
ENDBRANCH  16  18
ENDBRANCH   1  13
TORSDOF 3
ENDMDL
MODEL 6
REMARK VINA RESULT:      -5.2      3.144      7.125
REMARK  Name = 5232719
REMARK  3 active torsions:
REMARK  status: ('A' for Active; 'I' for Inactive)
REMARK    1  A    between atoms: O_1  and  P_3
REMARK    2  A    between atoms: O_1  and  C_13
REMARK    3  A    between atoms: C_16  and  S_18
REMARK                            x       y       z     vdW  Elec       q    Type
REMARK                         _______ _______ _______ _____ _____    ______ ____
ROOT
ATOM      1  O   UNL     1     -32.952  27.811   5.456  0.00  0.00    -0.400 OA
ENDROOT
BRANCH   1   3
ATOM      2  S   UNL     1     -32.283  27.247   2.571  0.00  0.00    +0.036 S 
ATOM      3  P   UNL     1     -33.382  26.957   4.144  0.00  0.00    +0.364 P 
ATOM      4  O   UNL     1     -33.432  25.450   4.745  0.00  0.00    -0.288 OA
ATOM      5  O   UNL     1     -34.961  27.315   4.028  0.00  0.00    -0.288 OA
ATOM      6  C   UNL     1     -35.731  24.992   4.039  0.00  0.00    +0.056 C 
ATOM      7  C   UNL     1     -34.267  24.504   4.081  0.00  0.00    +0.154 C 
ATOM      8  C   UNL     1     -35.802  26.377   3.362  0.00  0.00    +0.154 C 
ATOM      9  C   UNL     1     -36.581  23.991   3.245  0.00  0.00    +0.005 C 
ATOM     10  C   UNL     1     -36.281  25.093   5.475  0.00  0.00    +0.005 C 
ENDBRANCH   1   3
BRANCH   1  13
ATOM     11  N   UNL     1     -30.725  27.789   6.102  0.00  0.00    -0.301 NA
ATOM     12  N   UNL     1     -29.351  29.742   5.778  0.00  0.00    -0.343 NA
ATOM     13  C   UNL     1     -31.755  28.468   5.555  0.00  0.00    +0.276 C 
ATOM     14  C   UNL     1     -31.661  29.769   5.103  0.00  0.00    +0.155 C 
ATOM     15  C   UNL     1     -30.423  30.362   5.241  0.00  0.00    +0.110 C 
ATOM     16  C   UNL     1     -29.570  28.476   6.181  0.00  0.00    +0.170 C 
ATOM     17  C   UNL     1     -30.225  31.768   4.782  0.00  0.00    +0.063 C 
BRANCH  16  18
ATOM     18  S   UNL     1     -28.184  27.621   6.904  0.00  0.00    -0.017 S 
ATOM     19  C   UNL     1     -27.453  26.915   5.412  0.00  0.00    +0.087 C 
ENDBRANCH  16  18
ENDBRANCH   1  13
TORSDOF 3
ENDMDL
MODEL 7
REMARK VINA RESULT:      -5.1      3.272      6.092
REMARK  Name = 5232719
REMARK  3 active torsions:
REMARK  status: ('A' for Active; 'I' for Inactive)
REMARK    1  A    between atoms: O_1  and  P_3
REMARK    2  A    between atoms: O_1  and  C_13
REMARK    3  A    between atoms: C_16  and  S_18
REMARK                            x       y       z     vdW  Elec       q    Type
REMARK                         _______ _______ _______ _____ _____    ______ ____
ROOT
ATOM      1  O   UNL     1     -35.882  24.830   5.294  0.00  0.00    -0.400 OA
ENDROOT
BRANCH   1   3
ATOM      2  S   UNL     1     -35.255  21.917   5.755  0.00  0.00    +0.036 S 
ATOM      3  P   UNL     1     -35.782  23.373   4.585  0.00  0.00    +0.364 P 
ATOM      4  O   UNL     1     -37.237  23.262   3.873  0.00  0.00    -0.288 OA
ATOM      5  O   UNL     1     -34.822  23.696   3.316  0.00  0.00    -0.288 OA
ATOM      6  C   UNL     1     -36.368  22.834   1.626  0.00  0.00    +0.056 C 
ATOM      7  C   UNL     1     -37.350  22.409   2.737  0.00  0.00    +0.154 C 
ATOM      8  C   UNL     1     -34.927  22.844   2.178  0.00  0.00    +0.154 C 
ATOM      9  C   UNL     1     -36.459  21.843   0.457  0.00  0.00    +0.005 C 
ATOM     10  C   UNL     1     -36.737  24.243   1.123  0.00  0.00    +0.005 C 
ENDBRANCH   1   3
BRANCH   1  13
ATOM     11  N   UNL     1     -35.205  26.484   3.816  0.00  0.00    -0.301 NA
ATOM     12  N   UNL     1     -33.346  27.913   4.368  0.00  0.00    -0.343 NA
ATOM     13  C   UNL     1     -35.029  25.860   4.999  0.00  0.00    +0.276 C 
ATOM     14  C   UNL     1     -34.046  26.201   5.907  0.00  0.00    +0.155 C 
ATOM     15  C   UNL     1     -33.226  27.246   5.534  0.00  0.00    +0.110 C 
ATOM     16  C   UNL     1     -34.341  27.487   3.568  0.00  0.00    +0.170 C 
ATOM     17  C   UNL     1     -32.133  27.685   6.450  0.00  0.00    +0.063 C 
BRANCH  16  18
ATOM     18  S   UNL     1     -34.532  28.334   2.013  0.00  0.00    -0.017 S 
ATOM     19  C   UNL     1     -36.272  27.975   1.684  0.00  0.00    +0.087 C 
ENDBRANCH  16  18
ENDBRANCH   1  13
TORSDOF 3
ENDMDL
MODEL 8
REMARK VINA RESULT:      -5.1      3.399      4.773
REMARK  Name = 5232719
REMARK  3 active torsions:
REMARK  status: ('A' for Active; 'I' for Inactive)
REMARK    1  A    between atoms: O_1  and  P_3
REMARK    2  A    between atoms: O_1  and  C_13
REMARK    3  A    between atoms: C_16  and  S_18
REMARK                            x       y       z     vdW  Elec       q    Type
REMARK                         _______ _______ _______ _____ _____    ______ ____
ROOT
ATOM      1  O   UNL     1     -37.201  23.419   3.729  0.00  0.00    -0.400 OA
ENDROOT
BRANCH   1   3
ATOM      2  S   UNL     1     -35.414  22.285   5.877  0.00  0.00    +0.036 S 
ATOM      3  P   UNL     1     -35.909  23.718   4.664  0.00  0.00    +0.364 P 
ATOM      4  O   UNL     1     -34.808  24.165   3.558  0.00  0.00    -0.288 OA
ATOM      5  O   UNL     1     -36.308  25.148   5.322  0.00  0.00    -0.288 OA
ATOM      6  C   UNL     1     -34.280  26.314   4.604  0.00  0.00    +0.056 C 
ATOM      7  C   UNL     1     -33.740  25.003   3.992  0.00  0.00    +0.154 C 
ATOM      8  C   UNL     1     -35.246  25.990   5.763  0.00  0.00    +0.154 C 
ATOM      9  C   UNL     1     -33.107  27.150   5.135  0.00  0.00    +0.005 C 
ATOM     10  C   UNL     1     -35.024  27.120   3.522  0.00  0.00    +0.005 C 
ENDBRANCH   1   3
BRANCH   1  13
ATOM     11  N   UNL     1     -39.061  24.797   3.582  0.00  0.00    -0.301 NA
ATOM     12  N   UNL     1     -39.267  26.361   1.761  0.00  0.00    -0.343 NA
ATOM     13  C   UNL     1     -37.879  24.404   3.062  0.00  0.00    +0.276 C 
ATOM     14  C   UNL     1     -37.333  24.936   1.911  0.00  0.00    +0.155 C 
ATOM     15  C   UNL     1     -38.079  25.921   1.296  0.00  0.00    +0.110 C 
ATOM     16  C   UNL     1     -39.692  25.765   2.891  0.00  0.00    +0.170 C 
ATOM     17  C   UNL     1     -37.571  26.554   0.044  0.00  0.00    +0.063 C 
BRANCH  16  18
ATOM     18  S   UNL     1     -41.261  26.309   3.536  0.00  0.00    -0.017 S 
ATOM     19  C   UNL     1     -42.102  26.709   1.989  0.00  0.00    +0.087 C 
ENDBRANCH  16  18
ENDBRANCH   1  13
TORSDOF 3
ENDMDL
MODEL 9
REMARK VINA RESULT:      -5.0      4.729      6.460
REMARK  Name = 5232719
REMARK  3 active torsions:
REMARK  status: ('A' for Active; 'I' for Inactive)
REMARK    1  A    between atoms: O_1  and  P_3
REMARK    2  A    between atoms: O_1  and  C_13
REMARK    3  A    between atoms: C_16  and  S_18
REMARK                            x       y       z     vdW  Elec       q    Type
REMARK                         _______ _______ _______ _____ _____    ______ ____
ROOT
ATOM      1  O   UNL     1     -35.349  24.960   2.535  0.00  0.00    -0.400 OA
ENDROOT
BRANCH   1   3
ATOM      2  S   UNL     1     -36.395  27.639   1.627  0.00  0.00    +0.036 S 
ATOM      3  P   UNL     1     -36.675  25.768   2.062  0.00  0.00    +0.364 P 
ATOM      4  O   UNL     1     -37.230  24.807   0.877  0.00  0.00    -0.288 OA
ATOM      5  O   UNL     1     -37.708  25.428   3.267  0.00  0.00    -0.288 OA
ATOM      6  C   UNL     1     -39.471  24.535   1.824  0.00  0.00    +0.056 C 
ATOM      7  C   UNL     1     -38.623  24.868   0.578  0.00  0.00    +0.154 C 
ATOM      8  C   UNL     1     -39.102  25.490   2.978  0.00  0.00    +0.154 C 
ATOM      9  C   UNL     1     -40.960  24.692   1.486  0.00  0.00    +0.005 C 
ATOM     10  C   UNL     1     -39.203  23.080   2.255  0.00  0.00    +0.005 C 
ENDBRANCH   1   3
BRANCH   1  13
ATOM     11  N   UNL     1     -35.536  22.674   2.198  0.00  0.00    -0.301 NA
ATOM     12  N   UNL     1     -35.503  21.167   4.078  0.00  0.00    -0.343 NA
ATOM     13  C   UNL     1     -35.397  23.699   3.064  0.00  0.00    +0.276 C 
ATOM     14  C   UNL     1     -35.305  23.539   4.433  0.00  0.00    +0.155 C 
ATOM     15  C   UNL     1     -35.365  22.237   4.887  0.00  0.00    +0.110 C 
ATOM     16  C   UNL     1     -35.581  21.453   2.764  0.00  0.00    +0.170 C 
ATOM     17  C   UNL     1     -35.276  21.965   6.352  0.00  0.00    +0.063 C 
BRANCH  16  18
ATOM     18  S   UNL     1     -35.773  20.070   1.658  0.00  0.00    -0.017 S 
ATOM     19  C   UNL     1     -34.050  19.542   1.533  0.00  0.00    +0.087 C 
ENDBRANCH  16  18
ENDBRANCH   1  13
TORSDOF 3
ENDMDL
