MODEL 1
REMARK VINA RESULT:      -6.6      0.000      0.000
REMARK  Name = 5413011
REMARK  5 active torsions:
REMARK  status: ('A' for Active; 'I' for Inactive)
REMARK    1  A    between atoms: C_4  and  C_15
REMARK    2  A    between atoms: C_12  and  O_13
REMARK    3  A    between atoms: C_15  and  C_17
REMARK    4  A    between atoms: C_17  and  O_18
REMARK    5  A    between atoms: O_18  and  N_21
REMARK                            x       y       z     vdW  Elec       q    Type
REMARK                         _______ _______ _______ _____ _____    ______ ____
ROOT
ATOM      1  O   UNL     1     -34.818  24.567   5.918  0.00  0.00    -0.421 OA
ATOM      2  O   UNL     1     -36.005  22.635   5.829  0.00  0.00    -0.245 OA
ATOM      3  C   UNL     1     -34.460  24.408   3.113  0.00  0.00    -0.016 A 
ATOM      4  C   UNL     1     -35.138  23.435   3.760  0.00  0.00    +0.061 A 
ATOM      5  C   UNL     1     -33.880  25.524   3.887  0.00  0.00    +0.031 A 
ATOM      6  C   UNL     1     -34.081  25.566   5.263  0.00  0.00    +0.151 A 
ATOM      7  C   UNL     1     -35.361  23.493   5.233  0.00  0.00    +0.342 A 
ATOM      8  C   UNL     1     -34.263  24.438   1.618  0.00  0.00    +0.031 C 
ATOM      9  C   UNL     1     -33.119  26.559   3.321  0.00  0.00    +0.006 C 
ATOM     10  C   UNL     1     -33.567  26.586   6.068  0.00  0.00    +0.074 C 
ATOM     11  C   UNL     1     -32.596  27.590   4.112  0.00  0.00    +0.037 C 
ATOM     12  C   UNL     1     -32.821  27.604   5.485  0.00  0.00    +0.137 C 
ENDROOT
BRANCH  12  13
ATOM     13  O   UNL     1     -32.313  28.606   6.251  0.00  0.00    -0.505 OA
ATOM     14  H   UNL     1     -32.823  28.967   6.949  0.00  0.00    +0.292 HD
ENDBRANCH  12  13
BRANCH   4  15
ATOM     15  C   UNL     1     -35.724  22.211   3.104  0.00  0.00    +0.144 C 
BRANCH  15  17
ATOM     16  O   UNL     1     -37.127  22.545   1.137  0.00  0.00    -0.248 OA
ATOM     17  C   UNL     1     -36.980  22.568   2.352  0.00  0.00    +0.345 C 
BRANCH  17  18
ATOM     18  O   UNL     1     -37.934  22.911   3.269  0.00  0.00    -0.336 OA
BRANCH  18  21
ATOM     19  O   UNL     1     -40.409  22.434   1.893  0.00  0.00    -0.267 OA
ATOM     20  O   UNL     1     -37.681  25.757   3.554  0.00  0.00    -0.267 OA
ATOM     21  N   UNL     1     -38.814  23.889   2.757  0.00  0.00    -0.054 N 
ATOM     22  C   UNL     1     -40.610  24.837   1.687  0.00  0.00    +0.066 C 
ATOM     23  C   UNL     1     -39.705  25.940   2.238  0.00  0.00    +0.066 C 
ATOM     24  C   UNL     1     -39.962  23.548   2.114  0.00  0.00    +0.287 C 
ATOM     25  C   UNL     1     -38.593  25.216   2.946  0.00  0.00    +0.287 C 
ENDBRANCH  18  21
ENDBRANCH  17  18
ENDBRANCH  15  17
ENDBRANCH   4  15
TORSDOF 5
ENDMDL
MODEL 2
REMARK VINA RESULT:      -6.5      3.183      7.227
REMARK  Name = 5413011
REMARK  5 active torsions:
REMARK  status: ('A' for Active; 'I' for Inactive)
REMARK    1  A    between atoms: C_4  and  C_15
REMARK    2  A    between atoms: C_12  and  O_13
REMARK    3  A    between atoms: C_15  and  C_17
REMARK    4  A    between atoms: C_17  and  O_18
REMARK    5  A    between atoms: O_18  and  N_21
REMARK                            x       y       z     vdW  Elec       q    Type
REMARK                         _______ _______ _______ _____ _____    ______ ____
ROOT
ATOM      1  O   UNL     1     -35.877  24.139   4.604  0.00  0.00    -0.421 OA
ATOM      2  O   UNL     1     -35.587  26.178   5.557  0.00  0.00    -0.245 OA
ATOM      3  C   UNL     1     -34.359  25.024   2.384  0.00  0.00    -0.016 A 
ATOM      4  C   UNL     1     -34.605  25.869   3.409  0.00  0.00    +0.061 A 
ATOM      5  C   UNL     1     -34.922  23.659   2.419  0.00  0.00    +0.031 A 
ATOM      6  C   UNL     1     -35.660  23.263   3.529  0.00  0.00    +0.151 A 
ATOM      7  C   UNL     1     -35.386  25.434   4.602  0.00  0.00    +0.342 A 
ATOM      8  C   UNL     1     -33.518  25.386   1.185  0.00  0.00    +0.031 C 
ATOM      9  C   UNL     1     -34.767  22.721   1.386  0.00  0.00    +0.006 C 
ATOM     10  C   UNL     1     -36.226  21.990   3.642  0.00  0.00    +0.074 C 
ATOM     11  C   UNL     1     -35.328  21.440   1.482  0.00  0.00    +0.037 C 
ATOM     12  C   UNL     1     -36.056  21.075   2.610  0.00  0.00    +0.137 C 
ENDROOT
BRANCH  12  13
ATOM     13  O   UNL     1     -36.599  19.832   2.701  0.00  0.00    -0.505 OA
ATOM     14  H   UNL     1     -37.479  19.683   2.417  0.00  0.00    +0.292 HD
ENDBRANCH  12  13
BRANCH   4  15
ATOM     15  C   UNL     1     -34.147  27.303   3.472  0.00  0.00    +0.144 C 
BRANCH  15  17
ATOM     16  O   UNL     1     -31.728  26.994   3.469  0.00  0.00    -0.248 OA
ATOM     17  C   UNL     1     -32.747  27.385   4.022  0.00  0.00    +0.345 C 
BRANCH  17  18
ATOM     18  O   UNL     1     -32.814  27.988   5.248  0.00  0.00    -0.336 OA
BRANCH  18  21
ATOM     19  O   UNL     1     -33.260  30.738   4.553  0.00  0.00    -0.267 OA
ATOM     20  O   UNL     1     -30.171  27.835   6.362  0.00  0.00    -0.267 OA
ATOM     21  N   UNL     1     -31.884  29.045   5.355  0.00  0.00    -0.054 N 
ATOM     22  C   UNL     1     -30.966  31.144   5.208  0.00  0.00    +0.066 C 
ATOM     23  C   UNL     1     -29.940  30.180   5.809  0.00  0.00    +0.066 C 
ATOM     24  C   UNL     1     -32.202  30.314   4.989  0.00  0.00    +0.287 C 
ATOM     25  C   UNL     1     -30.651  28.857   5.896  0.00  0.00    +0.287 C 
ENDBRANCH  18  21
ENDBRANCH  17  18
ENDBRANCH  15  17
ENDBRANCH   4  15
TORSDOF 5
ENDMDL
MODEL 3
REMARK VINA RESULT:      -6.5      4.115      6.495
REMARK  Name = 5413011
REMARK  5 active torsions:
REMARK  status: ('A' for Active; 'I' for Inactive)
REMARK    1  A    between atoms: C_4  and  C_15
REMARK    2  A    between atoms: C_12  and  O_13
REMARK    3  A    between atoms: C_15  and  C_17
REMARK    4  A    between atoms: C_17  and  O_18
REMARK    5  A    between atoms: O_18  and  N_21
REMARK                            x       y       z     vdW  Elec       q    Type
REMARK                         _______ _______ _______ _____ _____    ______ ____
ROOT
ATOM      1  O   UNL     1     -34.079  19.169   1.926  0.00  0.00    -0.421 OA
ATOM      2  O   UNL     1     -35.995  20.229   2.522  0.00  0.00    -0.245 OA
ATOM      3  C   UNL     1     -33.389  21.422   0.357  0.00  0.00    -0.016 A 
ATOM      4  C   UNL     1     -34.560  21.405   1.028  0.00  0.00    +0.061 A 
ATOM      5  C   UNL     1     -32.500  20.244   0.419  0.00  0.00    +0.031 A 
ATOM      6  C   UNL     1     -32.875  19.158   1.204  0.00  0.00    +0.151 A 
ATOM      7  C   UNL     1     -34.950  20.244   1.878  0.00  0.00    +0.342 A 
ATOM      8  C   UNL     1     -32.910  22.596  -0.462  0.00  0.00    +0.031 C 
ATOM      9  C   UNL     1     -31.286  20.140  -0.278  0.00  0.00    +0.006 C 
ATOM     10  C   UNL     1     -32.092  18.006   1.318  0.00  0.00    +0.074 C 
ATOM     11  C   UNL     1     -30.488  18.993  -0.175  0.00  0.00    +0.037 C 
ATOM     12  C   UNL     1     -30.892  17.927   0.624  0.00  0.00    +0.137 C 
ENDROOT
BRANCH  12  13
ATOM     13  O   UNL     1     -30.116  16.814   0.722  0.00  0.00    -0.505 OA
ATOM     14  H   UNL     1     -29.376  16.808   1.296  0.00  0.00    +0.292 HD
ENDBRANCH  12  13
BRANCH   4  15
ATOM     15  C   UNL     1     -35.586  22.509   1.000  0.00  0.00    +0.144 C 
BRANCH  15  17
ATOM     16  O   UNL     1     -34.976  24.849   1.318  0.00  0.00    -0.248 OA
ATOM     17  C   UNL     1     -35.085  23.712   1.757  0.00  0.00    +0.345 C 
BRANCH  17  18
ATOM     18  O   UNL     1     -34.786  23.311   3.029  0.00  0.00    -0.336 OA
BRANCH  18  21
ATOM     19  O   UNL     1     -32.955  25.304   3.989  0.00  0.00    -0.267 OA
ATOM     20  O   UNL     1     -37.334  23.886   4.222  0.00  0.00    -0.267 OA
ATOM     21  N   UNL     1     -35.065  24.326   3.970  0.00  0.00    -0.054 N 
ATOM     22  C   UNL     1     -34.761  26.109   5.384  0.00  0.00    +0.066 C 
ATOM     23  C   UNL     1     -36.216  25.639   5.461  0.00  0.00    +0.066 C 
ATOM     24  C   UNL     1     -34.115  25.216   4.360  0.00  0.00    +0.287 C 
ATOM     25  C   UNL     1     -36.312  24.505   4.477  0.00  0.00    +0.287 C 
ENDBRANCH  18  21
ENDBRANCH  17  18
ENDBRANCH  15  17
ENDBRANCH   4  15
TORSDOF 5
ENDMDL
MODEL 4
REMARK VINA RESULT:      -6.5      3.685      7.085
REMARK  Name = 5413011
REMARK  5 active torsions:
REMARK  status: ('A' for Active; 'I' for Inactive)
REMARK    1  A    between atoms: C_4  and  C_15
REMARK    2  A    between atoms: C_12  and  O_13
REMARK    3  A    between atoms: C_15  and  C_17
REMARK    4  A    between atoms: C_17  and  O_18
REMARK    5  A    between atoms: O_18  and  N_21
REMARK                            x       y       z     vdW  Elec       q    Type
REMARK                         _______ _______ _______ _____ _____    ______ ____
ROOT
ATOM      1  O   UNL     1     -34.123  25.076   5.889  0.00  0.00    -0.421 OA
ATOM      2  O   UNL     1     -33.367  27.216   5.901  0.00  0.00    -0.245 OA
ATOM      3  C   UNL     1     -34.281  25.208   3.066  0.00  0.00    -0.016 A 
ATOM      4  C   UNL     1     -33.878  26.290   3.767  0.00  0.00    +0.061 A 
ATOM      5  C   UNL     1     -34.673  23.980   3.788  0.00  0.00    +0.031 A 
ATOM      6  C   UNL     1     -34.578  23.957   5.176  0.00  0.00    +0.151 A 
ATOM      7  C   UNL     1     -33.766  26.253   5.253  0.00  0.00    +0.342 A 
ATOM      8  C   UNL     1     -34.347  25.165   1.559  0.00  0.00    +0.031 C 
ATOM      9  C   UNL     1     -35.150  22.820   3.160  0.00  0.00    +0.006 C 
ATOM     10  C   UNL     1     -34.927  22.836   5.934  0.00  0.00    +0.074 C 
ATOM     11  C   UNL     1     -35.505  21.688   3.904  0.00  0.00    +0.037 C 
ATOM     12  C   UNL     1     -35.392  21.696   5.291  0.00  0.00    +0.137 C 
ENDROOT
BRANCH  12  13
ATOM     13  O   UNL     1     -35.738  20.595   6.012  0.00  0.00    -0.505 OA
ATOM     14  H   UNL     1     -36.156  20.692   6.844  0.00  0.00    +0.292 HD
ENDBRANCH  12  13
BRANCH   4  15
ATOM     15  C   UNL     1     -33.512  27.621   3.162  0.00  0.00    +0.144 C 
BRANCH  15  17
ATOM     16  O   UNL     1     -31.304  26.728   2.642  0.00  0.00    -0.248 OA
ATOM     17  C   UNL     1     -32.035  27.681   2.876  0.00  0.00    +0.345 C 
BRANCH  17  18
ATOM     18  O   UNL     1     -31.655  28.994   2.910  0.00  0.00    -0.336 OA
BRANCH  18  21
ATOM     19  O   UNL     1     -29.429  28.426   4.634  0.00  0.00    -0.267 OA
ATOM     20  O   UNL     1     -33.370  30.798   4.342  0.00  0.00    -0.267 OA
ATOM     21  N   UNL     1     -31.480  29.447   4.236  0.00  0.00    -0.054 N 
ATOM     22  C   UNL     1     -30.565  29.737   6.322  0.00  0.00    +0.066 C 
ATOM     23  C   UNL     1     -31.874  30.525   6.225  0.00  0.00    +0.066 C 
ATOM     24  C   UNL     1     -30.385  29.109   4.966  0.00  0.00    +0.287 C 
ATOM     25  C   UNL     1     -32.363  30.299   4.821  0.00  0.00    +0.287 C 
ENDBRANCH  18  21
ENDBRANCH  17  18
ENDBRANCH  15  17
ENDBRANCH   4  15
TORSDOF 5
ENDMDL
MODEL 5
REMARK VINA RESULT:      -6.4      2.401      6.440
REMARK  Name = 5413011
REMARK  5 active torsions:
REMARK  status: ('A' for Active; 'I' for Inactive)
REMARK    1  A    between atoms: C_4  and  C_15
REMARK    2  A    between atoms: C_12  and  O_13
REMARK    3  A    between atoms: C_15  and  C_17
REMARK    4  A    between atoms: C_17  and  O_18
REMARK    5  A    between atoms: O_18  and  N_21
REMARK                            x       y       z     vdW  Elec       q    Type
REMARK                         _______ _______ _______ _____ _____    ______ ____
ROOT
ATOM      1  O   UNL     1     -37.376  24.098   2.388  0.00  0.00    -0.421 OA
ATOM      2  O   UNL     1     -37.656  26.104   3.414  0.00  0.00    -0.245 OA
ATOM      3  C   UNL     1     -35.760  23.277   4.564  0.00  0.00    -0.016 A 
ATOM      4  C   UNL     1     -36.279  24.524   4.546  0.00  0.00    +0.061 A 
ATOM      5  C   UNL     1     -36.012  22.371   3.424  0.00  0.00    +0.031 A 
ATOM      6  C   UNL     1     -36.813  22.813   2.377  0.00  0.00    +0.151 A 
ATOM      7  C   UNL     1     -37.148  24.986   3.426  0.00  0.00    +0.342 A 
ATOM      8  C   UNL     1     -34.933  22.731   5.701  0.00  0.00    +0.031 C 
ATOM      9  C   UNL     1     -35.481  21.075   3.321  0.00  0.00    +0.006 C 
ATOM     10  C   UNL     1     -37.101  22.019   1.263  0.00  0.00    +0.074 C 
ATOM     11  C   UNL     1     -35.758  20.266   2.212  0.00  0.00    +0.037 C 
ATOM     12  C   UNL     1     -36.569  20.738   1.184  0.00  0.00    +0.137 C 
ENDROOT
BRANCH  12  13
ATOM     13  O   UNL     1     -36.837  19.950   0.108  0.00  0.00    -0.505 OA
ATOM     14  H   UNL     1     -36.194  19.840  -0.564  0.00  0.00    +0.292 HD
ENDBRANCH  12  13
BRANCH   4  15
ATOM     15  C   UNL     1     -36.049  25.568   5.609  0.00  0.00    +0.144 C 
BRANCH  15  17
ATOM     16  O   UNL     1     -33.691  25.897   6.133  0.00  0.00    -0.248 OA
ATOM     17  C   UNL     1     -34.677  26.173   5.464  0.00  0.00    +0.345 C 
BRANCH  17  18
ATOM     18  O   UNL     1     -34.725  27.078   4.440  0.00  0.00    -0.336 OA
BRANCH  18  21
ATOM     19  O   UNL     1     -33.817  25.390   2.302  0.00  0.00    -0.267 OA
ATOM     20  O   UNL     1     -32.702  29.078   4.830  0.00  0.00    -0.267 OA
ATOM     21  N   UNL     1     -33.486  27.164   3.768  0.00  0.00    -0.054 N 
ATOM     22  C   UNL     1     -31.767  26.675   2.327  0.00  0.00    +0.066 C 
ATOM     23  C   UNL     1     -31.397  27.900   3.166  0.00  0.00    +0.066 C 
ATOM     24  C   UNL     1     -33.156  26.303   2.770  0.00  0.00    +0.287 C 
ATOM     25  C   UNL     1     -32.596  28.154   4.039  0.00  0.00    +0.287 C 
ENDBRANCH  18  21
ENDBRANCH  17  18
ENDBRANCH  15  17
ENDBRANCH   4  15
TORSDOF 5
ENDMDL
MODEL 6
REMARK VINA RESULT:      -6.3      3.490      6.223
REMARK  Name = 5413011
REMARK  5 active torsions:
REMARK  status: ('A' for Active; 'I' for Inactive)
REMARK    1  A    between atoms: C_4  and  C_15
REMARK    2  A    between atoms: C_12  and  O_13
REMARK    3  A    between atoms: C_15  and  C_17
REMARK    4  A    between atoms: C_17  and  O_18
REMARK    5  A    between atoms: O_18  and  N_21
REMARK                            x       y       z     vdW  Elec       q    Type
REMARK                         _______ _______ _______ _____ _____    ______ ____
ROOT
ATOM      1  O   UNL     1     -34.151  25.224   5.479  0.00  0.00    -0.421 OA
ATOM      2  O   UNL     1     -33.487  27.390   5.341  0.00  0.00    -0.245 OA
ATOM      3  C   UNL     1     -34.495  25.211   2.668  0.00  0.00    -0.016 A 
ATOM      4  C   UNL     1     -34.094  26.341   3.291  0.00  0.00    +0.061 A 
ATOM      5  C   UNL     1     -34.788  24.006   3.471  0.00  0.00    +0.031 A 
ATOM      6  C   UNL     1     -34.603  24.054   4.849  0.00  0.00    +0.151 A 
ATOM      7  C   UNL     1     -33.886  26.381   4.766  0.00  0.00    +0.342 A 
ATOM      8  C   UNL     1     -34.656  25.091   1.173  0.00  0.00    +0.031 C 
ATOM      9  C   UNL     1     -35.255  22.798   2.930  0.00  0.00    +0.006 C 
ATOM     10  C   UNL     1     -34.856  22.959   5.681  0.00  0.00    +0.074 C 
ATOM     11  C   UNL     1     -35.514  21.691   3.749  0.00  0.00    +0.037 C 
ATOM     12  C   UNL     1     -35.313  21.772   5.123  0.00  0.00    +0.137 C 
ENDROOT
BRANCH  12  13
ATOM     13  O   UNL     1     -35.565  20.695   5.915  0.00  0.00    -0.505 OA
ATOM     14  H   UNL     1     -34.999  20.501   6.636  0.00  0.00    +0.292 HD
ENDBRANCH  12  13
BRANCH   4  15
ATOM     15  C   UNL     1     -33.825  27.654   2.602  0.00  0.00    +0.144 C 
BRANCH  15  17
ATOM     16  O   UNL     1     -35.991  28.216   1.634  0.00  0.00    -0.248 OA
ATOM     17  C   UNL     1     -35.102  28.438   2.445  0.00  0.00    +0.345 C 
BRANCH  17  18
ATOM     18  O   UNL     1     -35.099  29.435   3.380  0.00  0.00    -0.336 OA
BRANCH  18  21
ATOM     19  O   UNL     1     -36.801  31.260   1.959  0.00  0.00    -0.267 OA
ATOM     20  O   UNL     1     -32.523  30.690   3.575  0.00  0.00    -0.267 OA
ATOM     21  N   UNL     1     -34.720  30.672   2.814  0.00  0.00    -0.054 N 
ATOM     22  C   UNL     1     -34.847  32.657   1.667  0.00  0.00    +0.066 C 
ATOM     23  C   UNL     1     -33.426  32.468   2.204  0.00  0.00    +0.066 C 
ATOM     24  C   UNL     1     -35.612  31.456   2.154  0.00  0.00    +0.287 C 
ATOM     25  C   UNL     1     -33.465  31.170   2.964  0.00  0.00    +0.287 C 
ENDBRANCH  18  21
ENDBRANCH  17  18
ENDBRANCH  15  17
ENDBRANCH   4  15
TORSDOF 5
ENDMDL
MODEL 7
REMARK VINA RESULT:      -6.3      3.584      8.072
REMARK  Name = 5413011
REMARK  5 active torsions:
REMARK  status: ('A' for Active; 'I' for Inactive)
REMARK    1  A    between atoms: C_4  and  C_15
REMARK    2  A    between atoms: C_12  and  O_13
REMARK    3  A    between atoms: C_15  and  C_17
REMARK    4  A    between atoms: C_17  and  O_18
REMARK    5  A    between atoms: O_18  and  N_21
REMARK                            x       y       z     vdW  Elec       q    Type
REMARK                         _______ _______ _______ _____ _____    ______ ____
ROOT
ATOM      1  O   UNL     1     -34.460  24.913   2.181  0.00  0.00    -0.421 OA
ATOM      2  O   UNL     1     -33.726  26.939   1.469  0.00  0.00    -0.245 OA
ATOM      3  C   UNL     1     -34.101  25.785   4.850  0.00  0.00    -0.016 A 
ATOM      4  C   UNL     1     -33.784  26.607   3.827  0.00  0.00    +0.061 A 
ATOM      5  C   UNL     1     -34.595  24.423   4.560  0.00  0.00    +0.031 A 
ATOM      6  C   UNL     1     -34.759  24.036   3.234  0.00  0.00    +0.151 A 
ATOM      7  C   UNL     1     -33.976  26.190   2.409  0.00  0.00    +0.342 A 
ATOM      8  C   UNL     1     -33.994  26.177   6.303  0.00  0.00    +0.031 C 
ATOM      9  C   UNL     1     -34.906  23.475   5.547  0.00  0.00    +0.006 C 
ATOM     10  C   UNL     1     -35.222  22.767   2.873  0.00  0.00    +0.074 C 
ATOM     11  C   UNL     1     -35.370  22.199   5.203  0.00  0.00    +0.037 C 
ATOM     12  C   UNL     1     -35.529  21.846   3.866  0.00  0.00    +0.137 C 
ENDROOT
BRANCH  12  13
ATOM     13  O   UNL     1     -35.980  20.606   3.536  0.00  0.00    -0.505 OA
ATOM     14  H   UNL     1     -36.292  20.437   2.669  0.00  0.00    +0.292 HD
ENDBRANCH  12  13
BRANCH   4  15
ATOM     15  C   UNL     1     -33.212  27.993   3.982  0.00  0.00    +0.144 C 
BRANCH  15  17
ATOM     16  O   UNL     1     -30.858  27.519   3.556  0.00  0.00    -0.248 OA
ATOM     17  C   UNL     1     -31.741  27.923   4.301  0.00  0.00    +0.345 C 
BRANCH  17  18
ATOM     18  O   UNL     1     -31.565  28.403   5.568  0.00  0.00    -0.336 OA
BRANCH  18  21
ATOM     19  O   UNL     1     -31.057  31.178   5.029  0.00  0.00    -0.267 OA
ATOM     20  O   UNL     1     -29.118  27.298   6.587  0.00  0.00    -0.267 OA
ATOM     21  N   UNL     1     -30.329  29.074   5.699  0.00  0.00    -0.054 N 
ATOM     22  C   UNL     1     -28.753  30.741   5.629  0.00  0.00    +0.066 C 
ATOM     23  C   UNL     1     -28.109  29.453   6.146  0.00  0.00    +0.066 C 
ATOM     24  C   UNL     1     -30.200  30.394   5.408  0.00  0.00    +0.287 C 
ATOM     25  C   UNL     1     -29.227  28.448   6.189  0.00  0.00    +0.287 C 
ENDBRANCH  18  21
ENDBRANCH  17  18
ENDBRANCH  15  17
ENDBRANCH   4  15
TORSDOF 5
ENDMDL
MODEL 8
REMARK VINA RESULT:      -6.2      1.658      2.357
REMARK  Name = 5413011
REMARK  5 active torsions:
REMARK  status: ('A' for Active; 'I' for Inactive)
REMARK    1  A    between atoms: C_4  and  C_15
REMARK    2  A    between atoms: C_12  and  O_13
REMARK    3  A    between atoms: C_15  and  C_17
REMARK    4  A    between atoms: C_17  and  O_18
REMARK    5  A    between atoms: O_18  and  N_21
REMARK                            x       y       z     vdW  Elec       q    Type
REMARK                         _______ _______ _______ _____ _____    ______ ____
ROOT
ATOM      1  O   UNL     1     -34.838  24.551   5.953  0.00  0.00    -0.421 OA
ATOM      2  O   UNL     1     -36.014  22.611   6.043  0.00  0.00    -0.245 OA
ATOM      3  C   UNL     1     -34.617  24.218   3.150  0.00  0.00    -0.016 A 
ATOM      4  C   UNL     1     -35.255  23.285   3.888  0.00  0.00    +0.061 A 
ATOM      5  C   UNL     1     -34.008  25.384   3.823  0.00  0.00    +0.031 A 
ATOM      6  C   UNL     1     -34.141  25.510   5.202  0.00  0.00    +0.151 A 
ATOM      7  C   UNL     1     -35.406  23.433   5.364  0.00  0.00    +0.342 A 
ATOM      8  C   UNL     1     -34.495  24.157   1.647  0.00  0.00    +0.031 C 
ATOM      9  C   UNL     1     -33.284  26.384   3.157  0.00  0.00    +0.006 C 
ATOM     10  C   UNL     1     -33.596  26.581   5.916  0.00  0.00    +0.074 C 
ATOM     11  C   UNL     1     -32.730  27.464   3.855  0.00  0.00    +0.037 C 
ATOM     12  C   UNL     1     -32.887  27.563   5.235  0.00  0.00    +0.137 C 
ENDROOT
BRANCH  12  13
ATOM     13  O   UNL     1     -32.349  28.613   5.911  0.00  0.00    -0.505 OA
ATOM     14  H   UNL     1     -32.041  29.363   5.443  0.00  0.00    +0.292 HD
ENDBRANCH  12  13
BRANCH   4  15
ATOM     15  C   UNL     1     -35.864  22.020   3.339  0.00  0.00    +0.144 C 
BRANCH  15  17
ATOM     16  O   UNL     1     -37.969  23.235   3.143  0.00  0.00    -0.248 OA
ATOM     17  C   UNL     1     -37.263  22.281   2.845  0.00  0.00    +0.345 C 
BRANCH  17  18
ATOM     18  O   UNL     1     -37.602  21.268   1.992  0.00  0.00    -0.336 OA
BRANCH  18  21
ATOM     19  O   UNL     1     -36.820  22.395  -0.531  0.00  0.00    -0.267 OA
ATOM     20  O   UNL     1     -40.467  21.082   1.961  0.00  0.00    -0.267 OA
ATOM     21  N   UNL     1     -38.464  21.721   0.969  0.00  0.00    -0.054 N 
ATOM     22  C   UNL     1     -39.180  22.644  -1.007  0.00  0.00    +0.066 C 
ATOM     23  C   UNL     1     -40.391  22.208  -0.180  0.00  0.00    +0.066 C 
ATOM     24  C   UNL     1     -37.983  22.246  -0.188  0.00  0.00    +0.287 C 
ATOM     25  C   UNL     1     -39.813  21.588   1.063  0.00  0.00    +0.287 C 
ENDBRANCH  18  21
ENDBRANCH  17  18
ENDBRANCH  15  17
ENDBRANCH   4  15
TORSDOF 5
ENDMDL
MODEL 9
REMARK VINA RESULT:      -6.1      4.044      6.577
REMARK  Name = 5413011
REMARK  5 active torsions:
REMARK  status: ('A' for Active; 'I' for Inactive)
REMARK    1  A    between atoms: C_4  and  C_15
REMARK    2  A    between atoms: C_12  and  O_13
REMARK    3  A    between atoms: C_15  and  C_17
REMARK    4  A    between atoms: C_17  and  O_18
REMARK    5  A    between atoms: O_18  and  N_21
REMARK                            x       y       z     vdW  Elec       q    Type
REMARK                         _______ _______ _______ _____ _____    ______ ____
ROOT
ATOM      1  O   UNL     1     -32.260  21.645  -0.524  0.00  0.00    -0.421 OA
ATOM      2  O   UNL     1     -33.366  23.586  -0.924  0.00  0.00    -0.245 OA
ATOM      3  C   UNL     1     -34.442  20.797   1.068  0.00  0.00    -0.016 A 
ATOM      4  C   UNL     1     -34.465  22.019   0.493  0.00  0.00    +0.061 A 
ATOM      5  C   UNL     1     -33.256  19.934   0.889  0.00  0.00    +0.031 A 
ATOM      6  C   UNL     1     -32.207  20.388   0.097  0.00  0.00    +0.151 A 
ATOM      7  C   UNL     1     -33.343  22.493  -0.366  0.00  0.00    +0.342 A 
ATOM      8  C   UNL     1     -35.577  20.236   1.889  0.00  0.00    +0.031 C 
ATOM      9  C   UNL     1     -33.110  18.670   1.481  0.00  0.00    +0.006 C 
ATOM     10  C   UNL     1     -31.051  19.634  -0.124  0.00  0.00    +0.074 C 
ATOM     11  C   UNL     1     -31.958  17.901   1.271  0.00  0.00    +0.037 C 
ATOM     12  C   UNL     1     -30.930  18.383   0.467  0.00  0.00    +0.137 C 
ENDROOT
BRANCH  12  13
ATOM     13  O   UNL     1     -29.812  17.634   0.265  0.00  0.00    -0.505 OA
ATOM     14  H   UNL     1     -29.888  16.758  -0.057  0.00  0.00    +0.292 HD
ENDBRANCH  12  13
BRANCH   4  15
ATOM     15  C   UNL     1     -35.580  23.022   0.647  0.00  0.00    +0.144 C 
BRANCH  15  17
ATOM     16  O   UNL     1     -35.234  25.352   1.276  0.00  0.00    -0.248 OA
ATOM     17  C   UNL     1     -35.146  24.159   1.534  0.00  0.00    +0.345 C 
BRANCH  17  18
ATOM     18  O   UNL     1     -34.646  23.623   2.688  0.00  0.00    -0.336 OA
BRANCH  18  21
ATOM     19  O   UNL     1     -37.065  23.540   4.234  0.00  0.00    -0.267 OA
ATOM     20  O   UNL     1     -32.917  25.530   3.961  0.00  0.00    -0.267 OA
ATOM     21  N   UNL     1     -34.957  24.425   3.808  0.00  0.00    -0.054 N 
ATOM     22  C   UNL     1     -36.128  25.334   5.561  0.00  0.00    +0.066 C 
ATOM     23  C   UNL     1     -34.751  25.995   5.471  0.00  0.00    +0.066 C 
ATOM     24  C   UNL     1     -36.141  24.306   4.463  0.00  0.00    +0.287 C 
ATOM     25  C   UNL     1     -34.060  25.305   4.326  0.00  0.00    +0.287 C 
ENDBRANCH  18  21
ENDBRANCH  17  18
ENDBRANCH  15  17
ENDBRANCH   4  15
TORSDOF 5
ENDMDL
