MODEL 1
REMARK VINA RESULT:      -5.7      0.000      0.000
REMARK  Name = 5364216
REMARK  9 active torsions:
REMARK  status: ('A' for Active; 'I' for Inactive)
REMARK    1  A    between atoms: N_2  and  C_18
REMARK    2  A    between atoms: C_3  and  C_5
REMARK    3  A    between atoms: C_6  and  C_11
REMARK    4  A    between atoms: C_18  and  C_19
REMARK    5  A    between atoms: C_18  and  C_25
REMARK    6  A    between atoms: C_19  and  S_20
REMARK    7  A    between atoms: S_20  and  C_22
REMARK    8  A    between atoms: C_22  and  S_23
REMARK    9  A    between atoms: C_25  and  O_26
REMARK                            x       y       z     vdW  Elec       q    Type
REMARK                         _______ _______ _______ _____ _____    ______ ____
ROOT
ATOM      1  O   UNK A   0     -32.550  26.656   7.113  0.00  0.00    -0.270 OA
ATOM      2  N   UNK A   1     -32.839  28.027   5.261  0.00  0.00    -0.299 N 
ATOM      3  C   UNK A   0     -33.135  26.947   6.074  0.00  0.00    +0.246 C 
ATOM      4  H   UNK A   1     -33.372  28.170   4.445  0.00  0.00    +0.150 HD
ENDROOT
BRANCH   3   5
ATOM      5  C   UNK A   0     -34.270  26.144   5.541  0.00  0.00    +0.058 C 
ATOM      6  C   UNK A   0     -34.028  25.117   4.725  0.00  0.00    +0.011 C 
BRANCH   6  11
ATOM      7  O   UNK A   0     -35.247  25.712   2.246  0.00  0.00    -0.267 OA
ATOM      8  O   UNK A   0     -38.080  22.103   2.452  0.00  0.00    -0.247 OA
ATOM      9  N   UNK A   0     -36.595  22.463   4.165  0.00  0.00    -0.310 N 
ATOM     10  N   UNK A   0     -36.661  23.911   2.342  0.00  0.00    -0.275 N 
ATOM     11  C   UNK A   0     -35.081  24.296   4.170  0.00  0.00    +0.068 A 
ATOM     12  C   UNK A   0     -35.582  23.190   4.758  0.00  0.00    +0.042 A 
ATOM     13  C   UNK A   0     -35.653  24.716   2.843  0.00  0.00    +0.262 A 
ATOM     14  C   UNK A   0     -35.140  22.609   6.077  0.00  0.00    +0.050 C 
ATOM     15  C   UNK A   0     -37.178  22.776   2.952  0.00  0.00    +0.327 A 
ATOM     16  H   UNK A   0     -36.924  21.665   4.639  0.00  0.00    +0.170 HD
ATOM     17  H   UNK A   0     -37.049  24.166   1.474  0.00  0.00    +0.173 HD
ENDBRANCH   6  11
ENDBRANCH   3   5
BRANCH   2  18
ATOM     18  C   UNK A   1     -31.771  28.951   5.568  0.00  0.00    +0.114 C 
BRANCH  18  19
ATOM     19  C   UNK A   1     -30.456  28.493   4.934  0.00  0.00    +0.115 C 
BRANCH  19  20
ATOM     20  S   UNK A   1     -29.094  28.493   6.147  0.00  0.00    +0.055 S 
ATOM     21  O   UNK A   1     -29.021  27.112   6.718  0.00  0.00    -0.255 OA
BRANCH  20  22
ATOM     22  C   UNK A   1     -27.771  28.658   4.908  0.00  0.00    +0.149 C 
BRANCH  22  23
ATOM     23  S   UNK A   1     -28.223  27.833   3.358  0.00  0.00    -0.125 S 
ATOM     24  C   UNK A   1     -27.368  26.263   3.631  0.00  0.00    +0.070 C 
ENDBRANCH  22  23
ENDBRANCH  20  22
ENDBRANCH  19  20
ENDBRANCH  18  19
BRANCH  18  25
ATOM     25  C   UNK A   1     -32.157  30.362   5.117  0.00  0.00    +0.158 C 
BRANCH  25  26
ATOM     26  O   UNK A   1     -33.384  30.340   4.399  0.00  0.00    -0.380 OA
ATOM     27  H   UNK A   1     -33.520  31.196   3.963  0.00  0.00    +0.211 HD
ENDBRANCH  25  26
ENDBRANCH  18  25
ENDBRANCH   2  18
TORSDOF 9
ENDMDL
MODEL 2
REMARK VINA RESULT:      -5.7      1.279      1.494
REMARK  Name = 5364216
REMARK  9 active torsions:
REMARK  status: ('A' for Active; 'I' for Inactive)
REMARK    1  A    between atoms: N_2  and  C_18
REMARK    2  A    between atoms: C_3  and  C_5
REMARK    3  A    between atoms: C_6  and  C_11
REMARK    4  A    between atoms: C_18  and  C_19
REMARK    5  A    between atoms: C_18  and  C_25
REMARK    6  A    between atoms: C_19  and  S_20
REMARK    7  A    between atoms: S_20  and  C_22
REMARK    8  A    between atoms: C_22  and  S_23
REMARK    9  A    between atoms: C_25  and  O_26
REMARK                            x       y       z     vdW  Elec       q    Type
REMARK                         _______ _______ _______ _____ _____    ______ ____
ROOT
ATOM      1  O   UNK A   0     -32.664  26.768   7.134  0.00  0.00    -0.270 OA
ATOM      2  N   UNK A   1     -32.681  27.879   5.095  0.00  0.00    -0.299 N 
ATOM      3  C   UNK A   0     -33.134  26.949   6.015  0.00  0.00    +0.246 C 
ATOM      4  H   UNK A   1     -33.131  27.942   4.221  0.00  0.00    +0.150 HD
ENDROOT
BRANCH   3   5
ATOM      5  C   UNK A   0     -34.283  26.162   5.490  0.00  0.00    +0.058 C 
ATOM      6  C   UNK A   0     -34.057  25.100   4.714  0.00  0.00    +0.011 C 
BRANCH   6  11
ATOM      7  O   UNK A   0     -35.326  25.734   2.270  0.00  0.00    -0.267 OA
ATOM      8  O   UNK A   0     -38.168  22.133   2.483  0.00  0.00    -0.247 OA
ATOM      9  N   UNK A   0     -36.645  22.463   4.170  0.00  0.00    -0.310 N 
ATOM     10  N   UNK A   0     -36.744  23.937   2.370  0.00  0.00    -0.275 N 
ATOM     11  C   UNK A   0     -35.125  24.291   4.169  0.00  0.00    +0.068 A 
ATOM     12  C   UNK A   0     -35.618  23.178   4.752  0.00  0.00    +0.042 A 
ATOM     13  C   UNK A   0     -35.723  24.731   2.860  0.00  0.00    +0.262 A 
ATOM     14  C   UNK A   0     -35.151  22.577   6.053  0.00  0.00    +0.050 C 
ATOM     15  C   UNK A   0     -37.252  22.795   2.974  0.00  0.00    +0.327 A 
ATOM     16  H   UNK A   0     -36.967  21.660   4.639  0.00  0.00    +0.170 HD
ATOM     17  H   UNK A   0     -37.149  24.206   1.513  0.00  0.00    +0.173 HD
ENDBRANCH   6  11
ENDBRANCH   3   5
BRANCH   2  18
ATOM     18  C   UNK A   1     -31.570  28.759   5.374  0.00  0.00    +0.114 C 
BRANCH  18  19
ATOM     19  C   UNK A   1     -30.542  28.713   4.242  0.00  0.00    +0.115 C 
BRANCH  19  20
ATOM     20  S   UNK A   1     -28.840  28.884   4.877  0.00  0.00    +0.055 S 
ATOM     21  O   UNK A   1     -28.611  30.342   5.117  0.00  0.00    -0.255 OA
BRANCH  20  22
ATOM     22  C   UNK A   1     -29.184  28.097   6.481  0.00  0.00    +0.149 C 
BRANCH  22  23
ATOM     23  S   UNK A   1     -27.689  28.021   7.503  0.00  0.00    -0.125 S 
ATOM     24  C   UNK A   1     -27.247  26.293   7.204  0.00  0.00    +0.070 C 
ENDBRANCH  22  23
ENDBRANCH  20  22
ENDBRANCH  19  20
ENDBRANCH  18  19
BRANCH  18  25
ATOM     25  C   UNK A   1     -32.080  30.182   5.619  0.00  0.00    +0.158 C 
BRANCH  25  26
ATOM     26  O   UNK A   1     -33.131  30.499   4.715  0.00  0.00    -0.380 OA
ATOM     27  H   UNK A   1     -33.470  29.683   4.314  0.00  0.00    +0.211 HD
ENDBRANCH  25  26
ENDBRANCH  18  25
ENDBRANCH   2  18
TORSDOF 9
ENDMDL
MODEL 3
REMARK VINA RESULT:      -5.6      1.950      2.333
REMARK  Name = 5364216
REMARK  9 active torsions:
REMARK  status: ('A' for Active; 'I' for Inactive)
REMARK    1  A    between atoms: N_2  and  C_18
REMARK    2  A    between atoms: C_3  and  C_5
REMARK    3  A    between atoms: C_6  and  C_11
REMARK    4  A    between atoms: C_18  and  C_19
REMARK    5  A    between atoms: C_18  and  C_25
REMARK    6  A    between atoms: C_19  and  S_20
REMARK    7  A    between atoms: S_20  and  C_22
REMARK    8  A    between atoms: C_22  and  S_23
REMARK    9  A    between atoms: C_25  and  O_26
REMARK                            x       y       z     vdW  Elec       q    Type
REMARK                         _______ _______ _______ _____ _____    ______ ____
ROOT
ATOM      1  O   UNK A   0     -32.558  26.732   7.099  0.00  0.00    -0.270 OA
ATOM      2  N   UNK A   1     -32.621  27.929   5.111  0.00  0.00    -0.299 N 
ATOM      3  C   UNK A   0     -33.055  26.962   6.001  0.00  0.00    +0.246 C 
ATOM      4  H   UNK A   1     -33.092  28.031   4.251  0.00  0.00    +0.150 HD
ENDROOT
BRANCH   3   5
ATOM      5  C   UNK A   0     -34.219  26.201   5.471  0.00  0.00    +0.058 C 
ATOM      6  C   UNK A   0     -34.015  25.097   4.750  0.00  0.00    +0.011 C 
BRANCH   6  11
ATOM      7  O   UNK A   0     -35.298  25.783   2.328  0.00  0.00    -0.267 OA
ATOM      8  O   UNK A   0     -38.185  22.217   2.517  0.00  0.00    -0.247 OA
ATOM      9  N   UNK A   0     -36.643  22.502   4.194  0.00  0.00    -0.310 N 
ATOM     10  N   UNK A   0     -36.739  24.004   2.416  0.00  0.00    -0.275 N 
ATOM     11  C   UNK A   0     -35.098  24.310   4.204  0.00  0.00    +0.068 A 
ATOM     12  C   UNK A   0     -35.601  23.195   4.775  0.00  0.00    +0.042 A 
ATOM     13  C   UNK A   0     -35.703  24.777   2.908  0.00  0.00    +0.262 A 
ATOM     14  C   UNK A   0     -35.129  22.570   6.063  0.00  0.00    +0.050 C 
ATOM     15  C   UNK A   0     -37.257  22.860   3.009  0.00  0.00    +0.327 A 
ATOM     16  H   UNK A   0     -36.971  21.697   4.654  0.00  0.00    +0.170 HD
ATOM     17  H   UNK A   0     -37.148  24.290   1.567  0.00  0.00    +0.173 HD
ENDBRANCH   6  11
ENDBRANCH   3   5
BRANCH   2  18
ATOM     18  C   UNK A   1     -31.500  28.794   5.400  0.00  0.00    +0.114 C 
BRANCH  18  19
ATOM     19  C   UNK A   1     -30.997  29.477   4.126  0.00  0.00    +0.115 C 
BRANCH  19  20
ATOM     20  S   UNK A   1     -30.084  28.312   3.060  0.00  0.00    +0.055 S 
ATOM     21  O   UNK A   1     -30.589  26.942   3.383  0.00  0.00    -0.255 OA
BRANCH  20  22
ATOM     22  C   UNK A   1     -30.875  28.852   1.512  0.00  0.00    +0.149 C 
BRANCH  22  23
ATOM     23  S   UNK A   1     -32.602  28.304   1.438  0.00  0.00    -0.125 S 
ATOM     24  C   UNK A   1     -32.381  26.868   0.362  0.00  0.00    +0.070 C 
ENDBRANCH  22  23
ENDBRANCH  20  22
ENDBRANCH  19  20
ENDBRANCH  18  19
BRANCH  18  25
ATOM     25  C   UNK A   1     -31.891  29.813   6.473  0.00  0.00    +0.158 C 
BRANCH  25  26
ATOM     26  O   UNK A   1     -31.344  29.447   7.734  0.00  0.00    -0.380 OA
ATOM     27  H   UNK A   1     -31.433  28.490   7.860  0.00  0.00    +0.211 HD
ENDBRANCH  25  26
ENDBRANCH  18  25
ENDBRANCH   2  18
TORSDOF 9
ENDMDL
MODEL 4
REMARK VINA RESULT:      -5.6      2.143      3.005
REMARK  Name = 5364216
REMARK  9 active torsions:
REMARK  status: ('A' for Active; 'I' for Inactive)
REMARK    1  A    between atoms: N_2  and  C_18
REMARK    2  A    between atoms: C_3  and  C_5
REMARK    3  A    between atoms: C_6  and  C_11
REMARK    4  A    between atoms: C_18  and  C_19
REMARK    5  A    between atoms: C_18  and  C_25
REMARK    6  A    between atoms: C_19  and  S_20
REMARK    7  A    between atoms: S_20  and  C_22
REMARK    8  A    between atoms: C_22  and  S_23
REMARK    9  A    between atoms: C_25  and  O_26
REMARK                            x       y       z     vdW  Elec       q    Type
REMARK                         _______ _______ _______ _____ _____    ______ ____
ROOT
ATOM      1  O   UNK A   0     -32.522  26.691   7.132  0.00  0.00    -0.270 OA
ATOM      2  N   UNK A   1     -32.631  27.971   5.198  0.00  0.00    -0.299 N 
ATOM      3  C   UNK A   0     -33.042  26.964   6.056  0.00  0.00    +0.246 C 
ATOM      4  H   UNK A   1     -33.120  28.106   4.353  0.00  0.00    +0.150 HD
ENDROOT
BRANCH   3   5
ATOM      5  C   UNK A   0     -34.215  26.221   5.518  0.00  0.00    +0.058 C 
ATOM      6  C   UNK A   0     -34.023  25.125   4.783  0.00  0.00    +0.011 C 
BRANCH   6  11
ATOM      7  O   UNK A   0     -35.302  25.851   2.371  0.00  0.00    -0.267 OA
ATOM      8  O   UNK A   0     -38.226  22.313   2.524  0.00  0.00    -0.247 OA
ATOM      9  N   UNK A   0     -36.678  22.564   4.202  0.00  0.00    -0.310 N 
ATOM     10  N   UNK A   0     -36.761  24.086   2.441  0.00  0.00    -0.275 N 
ATOM     11  C   UNK A   0     -35.115  24.355   4.230  0.00  0.00    +0.068 A 
ATOM     12  C   UNK A   0     -35.628  23.239   4.790  0.00  0.00    +0.042 A 
ATOM     13  C   UNK A   0     -35.716  24.843   2.940  0.00  0.00    +0.262 A 
ATOM     14  C   UNK A   0     -35.162  22.594   6.069  0.00  0.00    +0.050 C 
ATOM     15  C   UNK A   0     -37.290  22.941   3.021  0.00  0.00    +0.327 A 
ATOM     16  H   UNK A   0     -37.014  21.757   4.653  0.00  0.00    +0.170 HD
ATOM     17  H   UNK A   0     -37.169  24.387   1.596  0.00  0.00    +0.173 HD
ENDBRANCH   6  11
ENDBRANCH   3   5
BRANCH   2  18
ATOM     18  C   UNK A   1     -31.507  28.827   5.500  0.00  0.00    +0.114 C 
BRANCH  18  19
ATOM     19  C   UNK A   1     -30.963  29.479   4.227  0.00  0.00    +0.115 C 
BRANCH  19  20
ATOM     20  S   UNK A   1     -31.158  31.292   4.269  0.00  0.00    +0.055 S 
ATOM     21  O   UNK A   1     -29.794  31.871   4.473  0.00  0.00    -0.255 OA
BRANCH  20  22
ATOM     22  C   UNK A   1     -31.579  31.453   2.506  0.00  0.00    +0.149 C 
BRANCH  22  23
ATOM     23  S   UNK A   1     -33.206  32.225   2.293  0.00  0.00    -0.125 S 
ATOM     24  C   UNK A   1     -34.170  31.112   3.342  0.00  0.00    +0.070 C 
ENDBRANCH  22  23
ENDBRANCH  20  22
ENDBRANCH  19  20
ENDBRANCH  18  19
BRANCH  18  25
ATOM     25  C   UNK A   1     -31.912  29.871   6.543  0.00  0.00    +0.158 C 
BRANCH  25  26
ATOM     26  O   UNK A   1     -31.517  29.457   7.845  0.00  0.00    -0.380 OA
ATOM     27  H   UNK A   1     -30.553  29.353   7.873  0.00  0.00    +0.211 HD
ENDBRANCH  25  26
ENDBRANCH  18  25
ENDBRANCH   2  18
TORSDOF 9
ENDMDL
MODEL 5
REMARK VINA RESULT:      -5.5      4.211      8.490
REMARK  Name = 5364216
REMARK  9 active torsions:
REMARK  status: ('A' for Active; 'I' for Inactive)
REMARK    1  A    between atoms: N_2  and  C_18
REMARK    2  A    between atoms: C_3  and  C_5
REMARK    3  A    between atoms: C_6  and  C_11
REMARK    4  A    between atoms: C_18  and  C_19
REMARK    5  A    between atoms: C_18  and  C_25
REMARK    6  A    between atoms: C_19  and  S_20
REMARK    7  A    between atoms: S_20  and  C_22
REMARK    8  A    between atoms: C_22  and  S_23
REMARK    9  A    between atoms: C_25  and  O_26
REMARK                            x       y       z     vdW  Elec       q    Type
REMARK                         _______ _______ _______ _____ _____    ______ ____
ROOT
ATOM      1  O   UNK A   0     -35.933  23.362   5.911  0.00  0.00    -0.270 OA
ATOM      2  N   UNK A   1     -36.237  23.938   3.682  0.00  0.00    -0.299 N 
ATOM      3  C   UNK A   0     -35.842  24.167   4.990  0.00  0.00    +0.246 C 
ATOM      4  H   UNK A   1     -36.120  24.656   3.017  0.00  0.00    +0.150 HD
ENDROOT
BRANCH   3   5
ATOM      5  C   UNK A   0     -35.282  25.534   5.170  0.00  0.00    +0.058 C 
ATOM      6  C   UNK A   0     -34.032  25.793   4.781  0.00  0.00    +0.011 C 
BRANCH   6  11
ATOM      7  O   UNK A   0     -32.650  26.555   7.124  0.00  0.00    -0.267 OA
ATOM      8  O   UNK A   0     -31.658  30.743   5.521  0.00  0.00    -0.247 OA
ATOM      9  N   UNK A   0     -32.852  29.289   4.203  0.00  0.00    -0.310 N 
ATOM     10  N   UNK A   0     -32.150  28.645   6.328  0.00  0.00    -0.275 N 
ATOM     11  C   UNK A   0     -33.424  27.098   4.925  0.00  0.00    +0.068 A 
ATOM     12  C   UNK A   0     -33.451  28.066   3.985  0.00  0.00    +0.042 A 
ATOM     13  C   UNK A   0     -32.716  27.387   6.221  0.00  0.00    +0.262 A 
ATOM     14  C   UNK A   0     -34.102  27.966   2.629  0.00  0.00    +0.050 C 
ATOM     15  C   UNK A   0     -32.183  29.640   5.360  0.00  0.00    +0.327 A 
ATOM     16  H   UNK A   0     -32.903  29.959   3.484  0.00  0.00    +0.170 HD
ATOM     17  H   UNK A   0     -31.680  28.854   7.167  0.00  0.00    +0.173 HD
ENDBRANCH   6  11
ENDBRANCH   3   5
BRANCH   2  18
ATOM     18  C   UNK A   1     -36.817  22.683   3.263  0.00  0.00    +0.114 C 
BRANCH  18  19
ATOM     19  C   UNK A   1     -37.676  22.873   2.010  0.00  0.00    +0.115 C 
BRANCH  19  20
ATOM     20  S   UNK A   1     -39.208  23.789   2.384  0.00  0.00    +0.055 S 
ATOM     21  O   UNK A   1     -39.042  24.374   3.750  0.00  0.00    -0.255 OA
BRANCH  20  22
ATOM     22  C   UNK A   1     -38.911  25.109   1.167  0.00  0.00    +0.149 C 
BRANCH  22  23
ATOM     23  S   UNK A   1     -40.329  26.235   1.068  0.00  0.00    -0.125 S 
ATOM     24  C   UNK A   1     -41.653  25.009   1.182  0.00  0.00    +0.070 C 
ENDBRANCH  22  23
ENDBRANCH  20  22
ENDBRANCH  19  20
ENDBRANCH  18  19
BRANCH  18  25
ATOM     25  C   UNK A   1     -35.712  21.647   3.041  0.00  0.00    +0.158 C 
BRANCH  25  26
ATOM     26  O   UNK A   1     -35.563  20.821   4.188  0.00  0.00    -0.380 OA
ATOM     27  H   UNK A   1     -36.249  20.135   4.184  0.00  0.00    +0.211 HD
ENDBRANCH  25  26
ENDBRANCH  18  25
ENDBRANCH   2  18
TORSDOF 9
ENDMDL
MODEL 6
REMARK VINA RESULT:      -5.4      1.537      2.363
REMARK  Name = 5364216
REMARK  9 active torsions:
REMARK  status: ('A' for Active; 'I' for Inactive)
REMARK    1  A    between atoms: N_2  and  C_18
REMARK    2  A    between atoms: C_3  and  C_5
REMARK    3  A    between atoms: C_6  and  C_11
REMARK    4  A    between atoms: C_18  and  C_19
REMARK    5  A    between atoms: C_18  and  C_25
REMARK    6  A    between atoms: C_19  and  S_20
REMARK    7  A    between atoms: S_20  and  C_22
REMARK    8  A    between atoms: C_22  and  S_23
REMARK    9  A    between atoms: C_25  and  O_26
REMARK                            x       y       z     vdW  Elec       q    Type
REMARK                         _______ _______ _______ _____ _____    ______ ____
ROOT
ATOM      1  O   UNK A   0     -33.016  26.757   7.039  0.00  0.00    -0.270 OA
ATOM      2  N   UNK A   1     -32.630  27.924   5.069  0.00  0.00    -0.299 N 
ATOM      3  C   UNK A   0     -33.245  26.961   5.851  0.00  0.00    +0.246 C 
ATOM      4  H   UNK A   1     -32.888  28.004   4.121  0.00  0.00    +0.150 HD
ENDROOT
BRANCH   3   5
ATOM      5  C   UNK A   0     -34.242  26.171   5.078  0.00  0.00    +0.058 C 
ATOM      6  C   UNK A   0     -33.966  24.910   4.738  0.00  0.00    +0.011 C 
BRANCH   6  11
ATOM      7  O   UNK A   0     -35.829  23.205   6.004  0.00  0.00    -0.267 OA
ATOM      8  O   UNK A   0     -37.552  21.670   2.034  0.00  0.00    -0.247 OA
ATOM      9  N   UNK A   0     -35.857  23.218   1.998  0.00  0.00    -0.310 N 
ATOM     10  N   UNK A   0     -36.694  22.438   4.026  0.00  0.00    -0.275 N 
ATOM     11  C   UNK A   0     -34.886  24.085   3.988  0.00  0.00    +0.068 A 
ATOM     12  C   UNK A   0     -34.953  24.039   2.640  0.00  0.00    +0.042 A 
ATOM     13  C   UNK A   0     -35.830  23.217   4.775  0.00  0.00    +0.262 A 
ATOM     14  C   UNK A   0     -34.100  24.832   1.683  0.00  0.00    +0.050 C 
ATOM     15  C   UNK A   0     -36.757  22.390   2.640  0.00  0.00    +0.327 A 
ATOM     16  H   UNK A   0     -35.861  23.224   1.014  0.00  0.00    +0.170 HD
ATOM     17  H   UNK A   0     -37.323  21.864   4.521  0.00  0.00    +0.173 HD
ENDBRANCH   6  11
ENDBRANCH   3   5
BRANCH   2  18
ATOM     18  C   UNK A   1     -31.621  28.814   5.596  0.00  0.00    +0.114 C 
BRANCH  18  19
ATOM     19  C   UNK A   1     -30.331  28.718   4.778  0.00  0.00    +0.115 C 
BRANCH  19  20
ATOM     20  S   UNK A   1     -28.929  28.166   5.806  0.00  0.00    +0.055 S 
ATOM     21  O   UNK A   1     -28.306  27.003   5.100  0.00  0.00    -0.255 OA
BRANCH  20  22
ATOM     22  C   UNK A   1     -27.902  29.633   5.484  0.00  0.00    +0.149 C 
BRANCH  22  23
ATOM     23  S   UNK A   1     -27.082  30.198   6.999  0.00  0.00    -0.125 S 
ATOM     24  C   UNK A   1     -28.283  29.581   8.201  0.00  0.00    +0.070 C 
ENDBRANCH  22  23
ENDBRANCH  20  22
ENDBRANCH  19  20
ENDBRANCH  18  19
BRANCH  18  25
ATOM     25  C   UNK A   1     -32.160  30.246   5.639  0.00  0.00    +0.158 C 
BRANCH  25  26
ATOM     26  O   UNK A   1     -33.141  30.442   4.628  0.00  0.00    -0.380 OA
ATOM     27  H   UNK A   1     -33.262  29.618   4.130  0.00  0.00    +0.211 HD
ENDBRANCH  25  26
ENDBRANCH  18  25
ENDBRANCH   2  18
TORSDOF 9
ENDMDL
MODEL 7
REMARK VINA RESULT:      -5.3      4.218      8.084
REMARK  Name = 5364216
REMARK  9 active torsions:
REMARK  status: ('A' for Active; 'I' for Inactive)
REMARK    1  A    between atoms: N_2  and  C_18
REMARK    2  A    between atoms: C_3  and  C_5
REMARK    3  A    between atoms: C_6  and  C_11
REMARK    4  A    between atoms: C_18  and  C_19
REMARK    5  A    between atoms: C_18  and  C_25
REMARK    6  A    between atoms: C_19  and  S_20
REMARK    7  A    between atoms: S_20  and  C_22
REMARK    8  A    between atoms: C_22  and  S_23
REMARK    9  A    between atoms: C_25  and  O_26
REMARK                            x       y       z     vdW  Elec       q    Type
REMARK                         _______ _______ _______ _____ _____    ______ ____
ROOT
ATOM      1  O   UNK A   0     -36.025  23.446   5.654  0.00  0.00    -0.270 OA
ATOM      2  N   UNK A   1     -36.316  23.855   3.387  0.00  0.00    -0.299 N 
ATOM      3  C   UNK A   0     -35.915  24.175   4.674  0.00  0.00    +0.246 C 
ATOM      4  H   UNK A   1     -36.183  24.516   2.669  0.00  0.00    +0.150 HD
ENDROOT
BRANCH   3   5
ATOM      5  C   UNK A   0     -35.324  25.539   4.748  0.00  0.00    +0.058 C 
ATOM      6  C   UNK A   0     -34.045  25.724   4.416  0.00  0.00    +0.011 C 
BRANCH   6  11
ATOM      7  O   UNK A   0     -33.796  27.364   2.128  0.00  0.00    -0.267 OA
ATOM      8  O   UNK A   0     -31.618  30.703   4.409  0.00  0.00    -0.247 OA
ATOM      9  N   UNK A   0     -32.273  28.814   5.539  0.00  0.00    -0.310 N 
ATOM     10  N   UNK A   0     -32.712  29.034   3.262  0.00  0.00    -0.275 N 
ATOM     11  C   UNK A   0     -33.406  27.020   4.465  0.00  0.00    +0.068 A 
ATOM     12  C   UNK A   0     -32.873  27.572   5.576  0.00  0.00    +0.042 A 
ATOM     13  C   UNK A   0     -33.333  27.801   3.180  0.00  0.00    +0.262 A 
ATOM     14  C   UNK A   0     -32.852  26.953   6.950  0.00  0.00    +0.050 C 
ATOM     15  C   UNK A   0     -32.161  29.597   4.405  0.00  0.00    +0.327 A 
ATOM     16  H   UNK A   0     -31.900  29.168   6.378  0.00  0.00    +0.170 HD
ATOM     17  H   UNK A   0     -32.655  29.563   2.433  0.00  0.00    +0.173 HD
ENDBRANCH   6  11
ENDBRANCH   3   5
BRANCH   2  18
ATOM     18  C   UNK A   1     -36.925  22.585   3.065  0.00  0.00    +0.114 C 
BRANCH  18  19
ATOM     19  C   UNK A   1     -37.838  22.714   1.843  0.00  0.00    +0.115 C 
BRANCH  19  20
ATOM     20  S   UNK A   1     -39.452  23.436   2.290  0.00  0.00    +0.055 S 
ATOM     21  O   UNK A   1     -39.227  24.287   3.500  0.00  0.00    -0.255 OA
BRANCH  20  22
ATOM     22  C   UNK A   1     -39.548  24.533   0.841  0.00  0.00    +0.149 C 
BRANCH  22  23
ATOM     23  S   UNK A   1     -39.343  26.269   1.324  0.00  0.00    -0.125 S 
ATOM     24  C   UNK A   1     -37.554  26.401   1.102  0.00  0.00    +0.070 C 
ENDBRANCH  22  23
ENDBRANCH  20  22
ENDBRANCH  19  20
ENDBRANCH  18  19
BRANCH  18  25
ATOM     25  C   UNK A   1     -35.840  21.527   2.852  0.00  0.00    +0.158 C 
BRANCH  25  26
ATOM     26  O   UNK A   1     -35.599  20.808   4.055  0.00  0.00    -0.380 OA
ATOM     27  H   UNK A   1     -36.271  21.045   4.713  0.00  0.00    +0.211 HD
ENDBRANCH  25  26
ENDBRANCH  18  25
ENDBRANCH   2  18
TORSDOF 9
ENDMDL
MODEL 8
REMARK VINA RESULT:      -5.3      3.699      7.772
REMARK  Name = 5364216
REMARK  9 active torsions:
REMARK  status: ('A' for Active; 'I' for Inactive)
REMARK    1  A    between atoms: N_2  and  C_18
REMARK    2  A    between atoms: C_3  and  C_5
REMARK    3  A    between atoms: C_6  and  C_11
REMARK    4  A    between atoms: C_18  and  C_19
REMARK    5  A    between atoms: C_18  and  C_25
REMARK    6  A    between atoms: C_19  and  S_20
REMARK    7  A    between atoms: S_20  and  C_22
REMARK    8  A    between atoms: C_22  and  S_23
REMARK    9  A    between atoms: C_25  and  O_26
REMARK                            x       y       z     vdW  Elec       q    Type
REMARK                         _______ _______ _______ _____ _____    ______ ____
ROOT
ATOM      1  O   UNK A   0     -37.196  25.136   4.855  0.00  0.00    -0.270 OA
ATOM      2  N   UNK A   1     -35.183  23.977   4.860  0.00  0.00    -0.299 N 
ATOM      3  C   UNK A   0     -35.970  25.117   4.895  0.00  0.00    +0.246 C 
ATOM      4  H   UNK A   1     -34.204  24.074   4.897  0.00  0.00    +0.150 HD
ENDROOT
BRANCH   3   5
ATOM      5  C   UNK A   0     -35.149  26.356   4.983  0.00  0.00    +0.058 C 
ATOM      6  C   UNK A   0     -33.824  26.282   4.846  0.00  0.00    +0.011 C 
BRANCH   6  11
ATOM      7  O   UNK A   0     -32.653  27.132   7.272  0.00  0.00    -0.267 OA
ATOM      8  O   UNK A   0     -30.531  30.709   5.325  0.00  0.00    -0.247 OA
ATOM      9  N   UNK A   0     -31.821  29.325   4.024  0.00  0.00    -0.310 N 
ATOM     10  N   UNK A   0     -31.590  28.917   6.305  0.00  0.00    -0.275 N 
ATOM     11  C   UNK A   0     -32.967  27.444   4.920  0.00  0.00    +0.068 A 
ATOM     12  C   UNK A   0     -32.642  28.227   3.869  0.00  0.00    +0.042 A 
ATOM     13  C   UNK A   0     -32.403  27.798   6.269  0.00  0.00    +0.262 A 
ATOM     14  C   UNK A   0     -33.100  28.035   2.446  0.00  0.00    +0.050 C 
ATOM     15  C   UNK A   0     -31.262  29.723   5.223  0.00  0.00    +0.327 A 
ATOM     16  H   UNK A   0     -31.618  29.862   3.225  0.00  0.00    +0.170 HD
ATOM     17  H   UNK A   0     -31.208  29.165   7.179  0.00  0.00    +0.173 HD
ENDBRANCH   6  11
ENDBRANCH   3   5
BRANCH   2  18
ATOM     18  C   UNK A   1     -35.753  22.653   4.771  0.00  0.00    +0.114 C 
BRANCH  18  19
ATOM     19  C   UNK A   1     -35.214  21.911   3.545  0.00  0.00    +0.115 C 
BRANCH  19  20
ATOM     20  S   UNK A   1     -35.500  22.858   2.013  0.00  0.00    +0.055 S 
ATOM     21  O   UNK A   1     -34.489  23.961   1.990  0.00  0.00    -0.255 OA
BRANCH  20  22
ATOM     22  C   UNK A   1     -34.921  21.542   0.897  0.00  0.00    +0.149 C 
BRANCH  22  23
ATOM     23  S   UNK A   1     -34.760  19.965   1.777  0.00  0.00    -0.125 S 
ATOM     24  C   UNK A   1     -34.180  18.947   0.401  0.00  0.00    +0.070 C 
ENDBRANCH  22  23
ENDBRANCH  20  22
ENDBRANCH  19  20
ENDBRANCH  18  19
BRANCH  18  25
ATOM     25  C   UNK A   1     -35.483  21.880   6.065  0.00  0.00    +0.158 C 
BRANCH  25  26
ATOM     26  O   UNK A   1     -35.143  20.529   5.779  0.00  0.00    -0.380 OA
ATOM     27  H   UNK A   1     -35.896  19.955   5.990  0.00  0.00    +0.211 HD
ENDBRANCH  25  26
ENDBRANCH  18  25
ENDBRANCH   2  18
TORSDOF 9
ENDMDL
MODEL 9
REMARK VINA RESULT:      -5.3      4.223      6.994
REMARK  Name = 5364216
REMARK  9 active torsions:
REMARK  status: ('A' for Active; 'I' for Inactive)
REMARK    1  A    between atoms: N_2  and  C_18
REMARK    2  A    between atoms: C_3  and  C_5
REMARK    3  A    between atoms: C_6  and  C_11
REMARK    4  A    between atoms: C_18  and  C_19
REMARK    5  A    between atoms: C_18  and  C_25
REMARK    6  A    between atoms: C_19  and  S_20
REMARK    7  A    between atoms: S_20  and  C_22
REMARK    8  A    between atoms: C_22  and  S_23
REMARK    9  A    between atoms: C_25  and  O_26
REMARK                            x       y       z     vdW  Elec       q    Type
REMARK                         _______ _______ _______ _____ _____    ______ ____
ROOT
ATOM      1  O   UNK A   0     -36.434  22.111   2.079  0.00  0.00    -0.270 OA
ATOM      2  N   UNK A   1     -36.695  23.044   4.189  0.00  0.00    -0.299 N 
ATOM      3  C   UNK A   0     -37.121  22.676   2.924  0.00  0.00    +0.246 C 
ATOM      4  H   UNK A   1     -37.330  23.496   4.792  0.00  0.00    +0.150 HD
ENDROOT
BRANCH   3   5
ATOM      5  C   UNK A   0     -38.541  23.052   2.684  0.00  0.00    +0.058 C 
ATOM      6  C   UNK A   0     -38.827  24.076   1.878  0.00  0.00    +0.011 C 
BRANCH   6  11
ATOM      7  O   UNK A   0     -39.970  26.358   3.090  0.00  0.00    -0.267 OA
ATOM      8  O   UNK A   0     -44.000  25.825   0.952  0.00  0.00    -0.247 OA
ATOM      9  N   UNK A   0     -42.310  24.322   0.553  0.00  0.00    -0.310 N 
ATOM     10  N   UNK A   0     -41.982  26.098   2.024  0.00  0.00    -0.275 N 
ATOM     11  C   UNK A   0     -40.183  24.496   1.601  0.00  0.00    +0.068 A 
ATOM     12  C   UNK A   0     -41.026  23.861   0.759  0.00  0.00    +0.042 A 
ATOM     13  C   UNK A   0     -40.680  25.727   2.309  0.00  0.00    +0.262 A 
ATOM     14  C   UNK A   0     -40.714  22.623  -0.042  0.00  0.00    +0.050 C 
ATOM     15  C   UNK A   0     -42.848  25.441   1.160  0.00  0.00    +0.327 A 
ATOM     16  H   UNK A   0     -42.882  23.821  -0.071  0.00  0.00    +0.170 HD
ATOM     17  H   UNK A   0     -42.327  26.903   2.475  0.00  0.00    +0.173 HD
ENDBRANCH   6  11
ENDBRANCH   3   5
BRANCH   2  18
ATOM     18  C   UNK A   1     -35.351  22.789   4.653  0.00  0.00    +0.114 C 
BRANCH  18  19
ATOM     19  C   UNK A   1     -34.528  24.078   4.668  0.00  0.00    +0.115 C 
BRANCH  19  20
ATOM     20  S   UNK A   1     -35.588  25.550   4.478  0.00  0.00    +0.055 S 
ATOM     21  O   UNK A   1     -36.186  25.830   5.820  0.00  0.00    -0.255 OA
BRANCH  20  22
ATOM     22  C   UNK A   1     -34.211  26.713   4.223  0.00  0.00    +0.149 C 
BRANCH  22  23
ATOM     23  S   UNK A   1     -34.549  27.829   2.835  0.00  0.00    -0.125 S 
ATOM     24  C   UNK A   1     -36.069  27.057   2.234  0.00  0.00    +0.070 C 
ENDBRANCH  22  23
ENDBRANCH  20  22
ENDBRANCH  19  20
ENDBRANCH  18  19
BRANCH  18  25
ATOM     25  C   UNK A   1     -35.392  22.126   6.032  0.00  0.00    +0.158 C 
BRANCH  25  26
ATOM     26  O   UNK A   1     -35.429  20.710   5.906  0.00  0.00    -0.380 OA
ATOM     27  H   UNK A   1     -35.820  20.324   6.705  0.00  0.00    +0.211 HD
ENDBRANCH  25  26
ENDBRANCH  18  25
ENDBRANCH   2  18
TORSDOF 9
ENDMDL
