MODEL 1
REMARK VINA RESULT:      -6.1      0.000      0.000
REMARK  Name = 5281524
REMARK  9 active torsions:
REMARK  status: ('A' for Active; 'I' for Inactive)
REMARK    1  A    between atoms: C_4  and  C_14
REMARK    2  A    between atoms: C_4  and  O_17
REMARK    3  A    between atoms: C_7  and  O_21
REMARK    4  A    between atoms: C_8  and  O_28
REMARK    5  A    between atoms: C_11  and  O_19
REMARK    6  A    between atoms: O_21  and  C_23
REMARK    7  A    between atoms: C_23  and  C_24
REMARK    8  A    between atoms: O_28  and  C_30
REMARK    9  A    between atoms: C_30  and  C_31
REMARK                            x       y       z     vdW  Elec       q    Type
REMARK                         _______ _______ _______ _____ _____    ______ ____
ROOT
ATOM      1  O   UNL     1     -36.298  22.967   3.175  0.00  0.00    -0.290 OA
ATOM      2  C   UNL     1     -35.790  26.054   1.638  0.00  0.00    +0.050 C 
ATOM      3  C   UNL     1     -35.167  27.079   2.639  0.00  0.00    +0.069 C 
ATOM      4  C   UNL     1     -34.935  28.358   1.789  0.00  0.00    +0.092 C 
ATOM      5  C   UNL     1     -36.513  26.960   0.589  0.00  0.00    +0.007 C 
ATOM      6  C   UNL     1     -36.220  28.411   0.962  0.00  0.00    +0.027 C 
ATOM      7  C   UNL     1     -33.961  26.597   3.466  0.00  0.00    +0.174 C 
ATOM      8  C   UNL     1     -36.820  25.132   2.337  0.00  0.00    +0.228 C 
ATOM      9  C   UNL     1     -34.764  25.191   0.872  0.00  0.00    +0.004 C 
ATOM     10  C   UNL     1     -34.074  25.231   4.175  0.00  0.00    +0.078 C 
ATOM     11  C   UNL     1     -35.476  24.750   4.592  0.00  0.00    +0.146 C 
ATOM     12  C   UNL     1     -36.217  24.184   3.365  0.00  0.00    +0.214 C 
ATOM     13  C   UNL     1     -35.332  23.640   5.646  0.00  0.00    +0.037 C 
ENDROOT
BRANCH   4  14
ATOM     14  C   UNL     1     -34.749  29.649   2.582  0.00  0.00    +0.025 C 
ATOM     15  C   UNL     1     -35.861  30.642   2.260  0.00  0.00    +0.002 C 
ATOM     16  C   UNL     1     -33.380  30.259   2.293  0.00  0.00    +0.002 C 
ENDBRANCH   4  14
BRANCH   4  17
ATOM     17  O   UNL     1     -33.833  28.214   0.899  0.00  0.00    -0.387 OA
ATOM     18  H   UNL     1     -34.087  28.528   0.016  0.00  0.00    +0.210 HD
ENDBRANCH   4  17
BRANCH  11  19
ATOM     19  O   UNL     1     -36.198  25.801   5.205  0.00  0.00    -0.380 OA
ATOM     20  H   UNL     1     -36.479  26.439   4.530  0.00  0.00    +0.211 HD
ENDBRANCH  11  19
BRANCH   7  21
ATOM     21  O   UNL     1     -33.717  27.581   4.480  0.00  0.00    -0.449 OA
BRANCH  21  23
ATOM     22  O   UNL     1     -31.466  27.742   4.021  0.00  0.00    -0.245 OA
ATOM     23  C   UNL     1     -32.408  27.795   4.799  0.00  0.00    +0.337 C 
BRANCH  23  24
ATOM     24  C   UNL     1     -32.290  28.102   6.256  0.00  0.00    +0.049 C 
ATOM     25  C   UNL     1     -32.695  27.046   7.241  0.00  0.00    +0.037 C 
ATOM     26  C   UNL     1     -31.851  29.337   6.563  0.00  0.00    -0.024 C 
ATOM     27  C   UNL     1     -31.470  30.425   5.610  0.00  0.00    +0.031 C 
ENDBRANCH  23  24
ENDBRANCH  21  23
ENDBRANCH   7  21
BRANCH   8  28
ATOM     28  O   UNL     1     -37.846  25.879   2.973  0.00  0.00    -0.442 OA
BRANCH  28  30
ATOM     29  O   UNL     1     -39.577  24.800   4.040  0.00  0.00    -0.245 OA
ATOM     30  C   UNL     1     -39.072  25.281   3.035  0.00  0.00    +0.337 C 
BRANCH  30  31
ATOM     31  C   UNL     1     -39.714  25.295   1.685  0.00  0.00    +0.050 C 
ATOM     32  C   UNL     1     -40.076  26.620   1.083  0.00  0.00    +0.037 C 
ATOM     33  C   UNL     1     -39.943  24.090   1.131  0.00  0.00    -0.024 C 
ATOM     34  C   UNL     1     -39.627  22.750   1.716  0.00  0.00    +0.031 C 
ENDBRANCH  30  31
ENDBRANCH  28  30
ENDBRANCH   8  28
TORSDOF 9
ENDMDL
MODEL 2
REMARK VINA RESULT:      -6.0      3.465      8.033
REMARK  Name = 5281524
REMARK  9 active torsions:
REMARK  status: ('A' for Active; 'I' for Inactive)
REMARK    1  A    between atoms: C_4  and  C_14
REMARK    2  A    between atoms: C_4  and  O_17
REMARK    3  A    between atoms: C_7  and  O_21
REMARK    4  A    between atoms: C_8  and  O_28
REMARK    5  A    between atoms: C_11  and  O_19
REMARK    6  A    between atoms: O_21  and  C_23
REMARK    7  A    between atoms: C_23  and  C_24
REMARK    8  A    between atoms: O_28  and  C_30
REMARK    9  A    between atoms: C_30  and  C_31
REMARK                            x       y       z     vdW  Elec       q    Type
REMARK                         _______ _______ _______ _____ _____    ______ ____
ROOT
ATOM      1  O   UNL     1     -37.370  25.836   2.276  0.00  0.00    -0.290 OA
ATOM      2  C   UNL     1     -35.257  23.590   0.650  0.00  0.00    +0.050 C 
ATOM      3  C   UNL     1     -35.847  22.144   0.689  0.00  0.00    +0.069 C 
ATOM      4  C   UNL     1     -34.839  21.293  -0.133  0.00  0.00    +0.092 C 
ATOM      5  C   UNL     1     -33.721  23.355   0.485  0.00  0.00    +0.007 C 
ATOM      6  C   UNL     1     -33.502  21.849   0.355  0.00  0.00    +0.027 C 
ATOM      7  C   UNL     1     -37.328  21.986   0.300  0.00  0.00    +0.174 C 
ATOM      8  C   UNL     1     -35.535  24.352   1.970  0.00  0.00    +0.228 C 
ATOM      9  C   UNL     1     -35.723  24.447  -0.547  0.00  0.00    +0.004 C 
ATOM     10  C   UNL     1     -38.348  22.946   0.950  0.00  0.00    +0.078 C 
ATOM     11  C   UNL     1     -38.021  23.505   2.346  0.00  0.00    +0.146 C 
ATOM     12  C   UNL     1     -37.006  24.658   2.219  0.00  0.00    +0.214 C 
ATOM     13  C   UNL     1     -39.312  24.044   2.985  0.00  0.00    +0.037 C 
ENDROOT
BRANCH   4  14
ATOM     14  C   UNL     1     -34.914  19.786   0.094  0.00  0.00    +0.025 C 
ATOM     15  C   UNL     1     -34.216  19.404   1.396  0.00  0.00    +0.002 C 
ATOM     16  C   UNL     1     -34.300  19.037  -1.087  0.00  0.00    +0.002 C 
ENDBRANCH   4  14
BRANCH   4  17
ATOM     17  O   UNL     1     -34.947  21.543  -1.531  0.00  0.00    -0.387 OA
ATOM     18  H   UNL     1     -35.066  22.494  -1.682  0.00  0.00    +0.210 HD
ENDBRANCH   4  17
BRANCH  11  19
ATOM     19  O   UNL     1     -37.547  22.477   3.194  0.00  0.00    -0.380 OA
ATOM     20  H   UNL     1     -37.748  22.699   4.116  0.00  0.00    +0.211 HD
ENDBRANCH  11  19
BRANCH   7  21
ATOM     21  O   UNL     1     -37.722  20.652   0.646  0.00  0.00    -0.449 OA
BRANCH  21  23
ATOM     22  O   UNL     1     -39.897  20.410  -0.070  0.00  0.00    -0.245 OA
ATOM     23  C   UNL     1     -38.714  20.107  -0.116  0.00  0.00    +0.337 C 
BRANCH  23  24
ATOM     24  C   UNL     1     -38.137  19.068  -1.022  0.00  0.00    +0.049 C 
ATOM     25  C   UNL     1     -37.849  17.710  -0.455  0.00  0.00    +0.037 C 
ATOM     26  C   UNL     1     -37.892  19.461  -2.285  0.00  0.00    -0.024 C 
ATOM     27  C   UNL     1     -38.134  20.814  -2.876  0.00  0.00    +0.031 C 
ENDBRANCH  23  24
ENDBRANCH  21  23
ENDBRANCH   7  21
BRANCH   8  28
ATOM     28  O   UNL     1     -35.033  23.650   3.096  0.00  0.00    -0.442 OA
BRANCH  28  30
ATOM     29  O   UNL     1     -33.371  24.964   3.997  0.00  0.00    -0.245 OA
ATOM     30  C   UNL     1     -34.461  24.414   4.073  0.00  0.00    +0.337 C 
BRANCH  30  31
ATOM     31  C   UNL     1     -35.364  24.477   5.263  0.00  0.00    +0.050 C 
ATOM     32  C   UNL     1     -35.988  25.796   5.611  0.00  0.00    +0.037 C 
ATOM     33  C   UNL     1     -35.516  23.329   5.948  0.00  0.00    -0.024 C 
ATOM     34  C   UNL     1     -34.883  22.007   5.650  0.00  0.00    +0.031 C 
ENDBRANCH  30  31
ENDBRANCH  28  30
ENDBRANCH   8  28
TORSDOF 9
ENDMDL
MODEL 3
REMARK VINA RESULT:      -5.9      3.169      5.996
REMARK  Name = 5281524
REMARK  9 active torsions:
REMARK  status: ('A' for Active; 'I' for Inactive)
REMARK    1  A    between atoms: C_4  and  C_14
REMARK    2  A    between atoms: C_4  and  O_17
REMARK    3  A    between atoms: C_7  and  O_21
REMARK    4  A    between atoms: C_8  and  O_28
REMARK    5  A    between atoms: C_11  and  O_19
REMARK    6  A    between atoms: O_21  and  C_23
REMARK    7  A    between atoms: C_23  and  C_24
REMARK    8  A    between atoms: O_28  and  C_30
REMARK    9  A    between atoms: C_30  and  C_31
REMARK                            x       y       z     vdW  Elec       q    Type
REMARK                         _______ _______ _______ _____ _____    ______ ____
ROOT
ATOM      1  O   UNL     1     -34.911  24.319  -1.752  0.00  0.00    -0.290 OA
ATOM      2  C   UNL     1     -35.875  22.979   1.319  0.00  0.00    +0.050 C 
ATOM      3  C   UNL     1     -35.108  23.667   2.492  0.00  0.00    +0.069 C 
ATOM      4  C   UNL     1     -35.701  23.021   3.774  0.00  0.00    +0.092 C 
ATOM      5  C   UNL     1     -36.263  21.583   1.903  0.00  0.00    +0.007 C 
ATOM      6  C   UNL     1     -35.798  21.553   3.358  0.00  0.00    +0.027 C 
ATOM      7  C   UNL     1     -35.057  25.206   2.481  0.00  0.00    +0.174 C 
ATOM      8  C   UNL     1     -34.968  22.797   0.076  0.00  0.00    +0.228 C 
ATOM      9  C   UNL     1     -37.184  23.682   0.900  0.00  0.00    +0.004 C 
ATOM     10  C   UNL     1     -34.658  25.903   1.163  0.00  0.00    +0.078 C 
ATOM     11  C   UNL     1     -33.733  25.141   0.197  0.00  0.00    +0.146 C 
ATOM     12  C   UNL     1     -34.550  24.100  -0.592  0.00  0.00    +0.214 C 
ATOM     13  C   UNL     1     -33.108  26.140  -0.791  0.00  0.00    +0.037 C 
ENDROOT
BRANCH   4  14
ATOM     14  C   UNL     1     -34.856  23.170   5.036  0.00  0.00    +0.025 C 
ATOM     15  C   UNL     1     -34.704  21.826   5.742  0.00  0.00    +0.002 C 
ATOM     16  C   UNL     1     -35.475  24.205   5.973  0.00  0.00    +0.002 C 
ENDBRANCH   4  14
BRANCH   4  17
ATOM     17  O   UNL     1     -37.014  23.497   4.053  0.00  0.00    -0.387 OA
ATOM     18  H   UNL     1     -36.993  24.062   4.842  0.00  0.00    +0.210 HD
ENDBRANCH   4  17
BRANCH  11  19
ATOM     19  O   UNL     1     -32.661  24.545   0.904  0.00  0.00    -0.380 OA
ATOM     20  H   UNL     1     -32.664  23.588   0.749  0.00  0.00    +0.211 HD
ENDBRANCH  11  19
BRANCH   7  21
ATOM     21  O   UNL     1     -34.108  25.610   3.477  0.00  0.00    -0.449 OA
BRANCH  21  23
ATOM     22  O   UNL     1     -35.361  27.344   4.328  0.00  0.00    -0.245 OA
ATOM     23  C   UNL     1     -34.289  26.857   4.001  0.00  0.00    +0.337 C 
BRANCH  23  24
ATOM     24  C   UNL     1     -32.970  27.550   4.112  0.00  0.00    +0.049 C 
ATOM     25  C   UNL     1     -32.355  28.115   2.866  0.00  0.00    +0.037 C 
ATOM     26  C   UNL     1     -32.424  27.580   5.342  0.00  0.00    -0.024 C 
ATOM     27  C   UNL     1     -32.991  27.000   6.599  0.00  0.00    +0.031 C 
ENDBRANCH  23  24
ENDBRANCH  21  23
ENDBRANCH   7  21
BRANCH   8  28
ATOM     28  O   UNL     1     -33.793  22.064   0.388  0.00  0.00    -0.442 OA
BRANCH  28  30
ATOM     29  O   UNL     1     -34.221  20.591  -1.329  0.00  0.00    -0.245 OA
ATOM     30  C   UNL     1     -33.493  21.026  -0.448  0.00  0.00    +0.337 C 
BRANCH  30  31
ATOM     31  C   UNL     1     -32.136  20.490  -0.126  0.00  0.00    +0.050 C 
ATOM     32  C   UNL     1     -30.944  21.144  -0.761  0.00  0.00    +0.037 C 
ATOM     33  C   UNL     1     -32.104  19.427   0.699  0.00  0.00    -0.024 C 
ATOM     34  C   UNL     1     -33.271  18.730   1.322  0.00  0.00    +0.031 C 
ENDBRANCH  30  31
ENDBRANCH  28  30
ENDBRANCH   8  28
TORSDOF 9
ENDMDL
MODEL 4
REMARK VINA RESULT:      -5.9      3.177      6.014
REMARK  Name = 5281524
REMARK  9 active torsions:
REMARK  status: ('A' for Active; 'I' for Inactive)
REMARK    1  A    between atoms: C_4  and  C_14
REMARK    2  A    between atoms: C_4  and  O_17
REMARK    3  A    between atoms: C_7  and  O_21
REMARK    4  A    between atoms: C_8  and  O_28
REMARK    5  A    between atoms: C_11  and  O_19
REMARK    6  A    between atoms: O_21  and  C_23
REMARK    7  A    between atoms: C_23  and  C_24
REMARK    8  A    between atoms: O_28  and  C_30
REMARK    9  A    between atoms: C_30  and  C_31
REMARK                            x       y       z     vdW  Elec       q    Type
REMARK                         _______ _______ _______ _____ _____    ______ ____
ROOT
ATOM      1  O   UNL     1     -35.024  24.172  -1.829  0.00  0.00    -0.290 OA
ATOM      2  C   UNL     1     -35.943  22.987   1.318  0.00  0.00    +0.050 C 
ATOM      3  C   UNL     1     -35.130  23.705   2.442  0.00  0.00    +0.069 C 
ATOM      4  C   UNL     1     -35.706  23.128   3.765  0.00  0.00    +0.092 C 
ATOM      5  C   UNL     1     -36.349  21.627   1.971  0.00  0.00    +0.007 C 
ATOM      6  C   UNL     1     -35.848  21.647   3.414  0.00  0.00    +0.027 C 
ATOM      7  C   UNL     1     -35.042  25.240   2.364  0.00  0.00    +0.174 C 
ATOM      8  C   UNL     1     -35.072  22.730   0.063  0.00  0.00    +0.228 C 
ATOM      9  C   UNL     1     -37.245  23.705   0.902  0.00  0.00    +0.004 C 
ATOM     10  C   UNL     1     -34.660  25.871   1.008  0.00  0.00    +0.078 C 
ATOM     11  C   UNL     1     -33.778  25.046   0.054  0.00  0.00    +0.146 C 
ATOM     12  C   UNL     1     -34.640  23.993  -0.670  0.00  0.00    +0.214 C 
ATOM     13  C   UNL     1     -33.155  25.987  -0.991  0.00  0.00    +0.037 C 
ENDROOT
BRANCH   4  14
ATOM     14  C   UNL     1     -34.826  23.309   4.998  0.00  0.00    +0.025 C 
ATOM     15  C   UNL     1     -34.649  21.983   5.731  0.00  0.00    +0.002 C 
ATOM     16  C   UNL     1     -35.422  24.363   5.928  0.00  0.00    +0.002 C 
ENDBRANCH   4  14
BRANCH   4  17
ATOM     17  O   UNL     1     -36.999  23.648   4.054  0.00  0.00    -0.387 OA
ATOM     18  H   UNL     1     -37.661  22.945   3.956  0.00  0.00    +0.210 HD
ENDBRANCH   4  17
BRANCH  11  19
ATOM     19  O   UNL     1     -32.704  24.454   0.759  0.00  0.00    -0.380 OA
ATOM     20  H   UNL     1     -32.560  23.552   0.433  0.00  0.00    +0.211 HD
ENDBRANCH  11  19
BRANCH   7  21
ATOM     21  O   UNL     1     -34.059  25.662   3.319  0.00  0.00    -0.449 OA
BRANCH  21  23
ATOM     22  O   UNL     1     -35.290  27.441   4.106  0.00  0.00    -0.245 OA
ATOM     23  C   UNL     1     -34.222  26.918   3.826  0.00  0.00    +0.337 C 
BRANCH  23  24
ATOM     24  C   UNL     1     -32.887  27.572   3.983  0.00  0.00    +0.049 C 
ATOM     25  C   UNL     1     -32.217  28.125   2.760  0.00  0.00    +0.037 C 
ATOM     26  C   UNL     1     -32.380  27.579   5.230  0.00  0.00    -0.024 C 
ATOM     27  C   UNL     1     -33.004  27.009   6.464  0.00  0.00    +0.031 C 
ENDBRANCH  23  24
ENDBRANCH  21  23
ENDBRANCH   7  21
BRANCH   8  28
ATOM     28  O   UNL     1     -33.908  21.982   0.378  0.00  0.00    -0.442 OA
BRANCH  28  30
ATOM     29  O   UNL     1     -34.220  20.563  -1.409  0.00  0.00    -0.245 OA
ATOM     30  C   UNL     1     -33.739  20.816  -0.314  0.00  0.00    +0.337 C 
BRANCH  30  31
ATOM     31  C   UNL     1     -32.877  19.880   0.471  0.00  0.00    +0.050 C 
ATOM     32  C   UNL     1     -33.535  18.977   1.472  0.00  0.00    +0.037 C 
ATOM     33  C   UNL     1     -31.555  19.954   0.227  0.00  0.00    -0.024 C 
ATOM     34  C   UNL     1     -30.863  20.863  -0.736  0.00  0.00    +0.031 C 
ENDBRANCH  30  31
ENDBRANCH  28  30
ENDBRANCH   8  28
TORSDOF 9
ENDMDL
MODEL 5
REMARK VINA RESULT:      -5.8      4.141      8.342
REMARK  Name = 5281524
REMARK  9 active torsions:
REMARK  status: ('A' for Active; 'I' for Inactive)
REMARK    1  A    between atoms: C_4  and  C_14
REMARK    2  A    between atoms: C_4  and  O_17
REMARK    3  A    between atoms: C_7  and  O_21
REMARK    4  A    between atoms: C_8  and  O_28
REMARK    5  A    between atoms: C_11  and  O_19
REMARK    6  A    between atoms: O_21  and  C_23
REMARK    7  A    between atoms: C_23  and  C_24
REMARK    8  A    between atoms: O_28  and  C_30
REMARK    9  A    between atoms: C_30  and  C_31
REMARK                            x       y       z     vdW  Elec       q    Type
REMARK                         _______ _______ _______ _____ _____    ______ ____
ROOT
ATOM      1  O   UNL     1     -39.101  23.926   1.524  0.00  0.00    -0.290 OA
ATOM      2  C   UNL     1     -35.861  23.094   0.543  0.00  0.00    +0.050 C 
ATOM      3  C   UNL     1     -35.682  21.543   0.471  0.00  0.00    +0.069 C 
ATOM      4  C   UNL     1     -34.231  21.345  -0.047  0.00  0.00    +0.092 C 
ATOM      5  C   UNL     1     -34.408  23.620   0.776  0.00  0.00    +0.007 C 
ATOM      6  C   UNL     1     -33.475  22.411   0.746  0.00  0.00    +0.027 C 
ATOM      7  C   UNL     1     -36.773  20.751  -0.273  0.00  0.00    +0.174 C 
ATOM      8  C   UNL     1     -36.768  23.506   1.729  0.00  0.00    +0.228 C 
ATOM      9  C   UNL     1     -36.384  23.745  -0.755  0.00  0.00    +0.004 C 
ATOM     10  C   UNL     1     -38.245  21.056   0.074  0.00  0.00    +0.078 C 
ATOM     11  C   UNL     1     -38.560  21.566   1.492  0.00  0.00    +0.146 C 
ATOM     12  C   UNL     1     -38.219  23.065   1.592  0.00  0.00    +0.214 C 
ATOM     13  C   UNL     1     -40.061  21.375   1.770  0.00  0.00    +0.037 C 
ENDROOT
BRANCH   4  14
ATOM     14  C   UNL     1     -33.630  19.963   0.194  0.00  0.00    +0.025 C 
ATOM     15  C   UNL     1     -33.907  19.500   1.621  0.00  0.00    +0.002 C 
ATOM     16  C   UNL     1     -32.130  19.977  -0.086  0.00  0.00    +0.002 C 
ENDBRANCH   4  14
BRANCH   4  17
ATOM     17  O   UNL     1     -34.114  21.650  -1.434  0.00  0.00    -0.387 OA
ATOM     18  H   UNL     1     -34.071  22.612  -1.552  0.00  0.00    +0.210 HD
ENDBRANCH   4  17
BRANCH  11  19
ATOM     19  O   UNL     1     -37.867  20.801   2.459  0.00  0.00    -0.380 OA
ATOM     20  H   UNL     1     -38.501  20.272   2.968  0.00  0.00    +0.211 HD
ENDBRANCH  11  19
BRANCH   7  21
ATOM     21  O   UNL     1     -36.553  19.361  -0.001  0.00  0.00    -0.449 OA
BRANCH  21  23
ATOM     22  O   UNL     1     -36.097  18.841  -2.197  0.00  0.00    -0.245 OA
ATOM     23  C   UNL     1     -36.517  18.539  -1.089  0.00  0.00    +0.337 C 
BRANCH  23  24
ATOM     24  C   UNL     1     -37.080  17.203  -0.728  0.00  0.00    +0.049 C 
ATOM     25  C   UNL     1     -38.569  17.028  -0.750  0.00  0.00    +0.037 C 
ATOM     26  C   UNL     1     -36.182  16.264  -0.377  0.00  0.00    -0.024 C 
ATOM     27  C   UNL     1     -34.695  16.412  -0.311  0.00  0.00    +0.031 C 
ENDBRANCH  23  24
ENDBRANCH  21  23
ENDBRANCH   7  21
BRANCH   8  28
ATOM     28  O   UNL     1     -36.271  23.015   2.964  0.00  0.00    -0.442 OA
BRANCH  28  30
ATOM     29  O   UNL     1     -37.358  24.429   4.420  0.00  0.00    -0.245 OA
ATOM     30  C   UNL     1     -36.343  23.873   4.025  0.00  0.00    +0.337 C 
BRANCH  30  31
ATOM     31  C   UNL     1     -34.989  24.040   4.636  0.00  0.00    +0.050 C 
ATOM     32  C   UNL     1     -34.076  25.085   4.067  0.00  0.00    +0.037 C 
ATOM     33  C   UNL     1     -34.692  23.199   5.645  0.00  0.00    -0.024 C 
ATOM     34  C   UNL     1     -35.563  22.125   6.213  0.00  0.00    +0.031 C 
ENDBRANCH  30  31
ENDBRANCH  28  30
ENDBRANCH   8  28
TORSDOF 9
ENDMDL
MODEL 6
REMARK VINA RESULT:      -5.8      4.589      8.904
REMARK  Name = 5281524
REMARK  9 active torsions:
REMARK  status: ('A' for Active; 'I' for Inactive)
REMARK    1  A    between atoms: C_4  and  C_14
REMARK    2  A    between atoms: C_4  and  O_17
REMARK    3  A    between atoms: C_7  and  O_21
REMARK    4  A    between atoms: C_8  and  O_28
REMARK    5  A    between atoms: C_11  and  O_19
REMARK    6  A    between atoms: O_21  and  C_23
REMARK    7  A    between atoms: C_23  and  C_24
REMARK    8  A    between atoms: O_28  and  C_30
REMARK    9  A    between atoms: C_30  and  C_31
REMARK                            x       y       z     vdW  Elec       q    Type
REMARK                         _______ _______ _______ _____ _____    ______ ____
ROOT
ATOM      1  O   UNL     1     -38.692  23.792   1.111  0.00  0.00    -0.290 OA
ATOM      2  C   UNL     1     -35.694  22.262   0.201  0.00  0.00    +0.050 C 
ATOM      3  C   UNL     1     -35.796  20.710   0.343  0.00  0.00    +0.069 C 
ATOM      4  C   UNL     1     -34.426  20.184  -0.167  0.00  0.00    +0.092 C 
ATOM      5  C   UNL     1     -34.163  22.542   0.334  0.00  0.00    +0.007 C 
ATOM      6  C   UNL     1     -33.461  21.192   0.458  0.00  0.00    +0.027 C 
ATOM      7  C   UNL     1     -37.040  20.036  -0.265  0.00  0.00    +0.174 C 
ATOM      8  C   UNL     1     -36.464  22.988   1.334  0.00  0.00    +0.228 C 
ATOM      9  C   UNL     1     -36.147  22.818  -1.166  0.00  0.00    +0.004 C 
ATOM     10  C   UNL     1     -38.420  20.647   0.060  0.00  0.00    +0.078 C 
ATOM     11  C   UNL     1     -38.580  21.390   1.398  0.00  0.00    +0.146 C 
ATOM     12  C   UNL     1     -37.974  22.802   1.283  0.00  0.00    +0.214 C 
ATOM     13  C   UNL     1     -40.078  21.514   1.726  0.00  0.00    +0.037 C 
ENDROOT
BRANCH   4  14
ATOM     14  C   UNL     1     -34.070  18.761   0.254  0.00  0.00    +0.025 C 
ATOM     15  C   UNL     1     -33.311  18.768   1.578  0.00  0.00    +0.002 C 
ATOM     16  C   UNL     1     -33.251  18.072  -0.833  0.00  0.00    +0.002 C 
ENDBRANCH   4  14
BRANCH   4  17
ATOM     17  O   UNL     1     -34.315  20.274  -1.584  0.00  0.00    -0.387 OA
ATOM     18  H   UNL     1     -33.623  20.914  -1.815  0.00  0.00    +0.210 HD
ENDBRANCH   4  17
BRANCH  11  19
ATOM     19  O   UNL     1     -37.994  20.648   2.451  0.00  0.00    -0.380 OA
ATOM     20  H   UNL     1     -38.693  20.268   3.006  0.00  0.00    +0.211 HD
ENDBRANCH  11  19
BRANCH   7  21
ATOM     21  O   UNL     1     -37.059  18.678   0.194  0.00  0.00    -0.449 OA
BRANCH  21  23
ATOM     22  O   UNL     1     -38.929  17.744  -0.771  0.00  0.00    -0.245 OA
ATOM     23  C   UNL     1     -37.719  17.789  -0.603  0.00  0.00    +0.337 C 
BRANCH  23  24
ATOM     24  C   UNL     1     -36.735  16.863  -1.243  0.00  0.00    +0.049 C 
ATOM     25  C   UNL     1     -36.196  15.725  -0.429  0.00  0.00    +0.037 C 
ATOM     26  C   UNL     1     -36.391  17.158  -2.510  0.00  0.00    -0.024 C 
ATOM     27  C   UNL     1     -36.882  18.301  -3.340  0.00  0.00    +0.031 C 
ENDBRANCH  23  24
ENDBRANCH  21  23
ENDBRANCH   7  21
BRANCH   8  28
ATOM     28  O   UNL     1     -36.011  22.584   2.616  0.00  0.00    -0.442 OA
BRANCH  28  30
ATOM     29  O   UNL     1     -37.352  23.842   4.002  0.00  0.00    -0.245 OA
ATOM     30  C   UNL     1     -36.250  23.457   3.639  0.00  0.00    +0.337 C 
BRANCH  30  31
ATOM     31  C   UNL     1     -34.956  23.884   4.255  0.00  0.00    +0.050 C 
ATOM     32  C   UNL     1     -34.122  24.897   3.528  0.00  0.00    +0.037 C 
ATOM     33  C   UNL     1     -34.632  23.286   5.417  0.00  0.00    -0.024 C 
ATOM     34  C   UNL     1     -35.421  22.249   6.151  0.00  0.00    +0.031 C 
ENDBRANCH  30  31
ENDBRANCH  28  30
ENDBRANCH   8  28
TORSDOF 9
ENDMDL
MODEL 7
REMARK VINA RESULT:      -5.7      1.337      1.667
REMARK  Name = 5281524
REMARK  9 active torsions:
REMARK  status: ('A' for Active; 'I' for Inactive)
REMARK    1  A    between atoms: C_4  and  C_14
REMARK    2  A    between atoms: C_4  and  O_17
REMARK    3  A    between atoms: C_7  and  O_21
REMARK    4  A    between atoms: C_8  and  O_28
REMARK    5  A    between atoms: C_11  and  O_19
REMARK    6  A    between atoms: O_21  and  C_23
REMARK    7  A    between atoms: C_23  and  C_24
REMARK    8  A    between atoms: O_28  and  C_30
REMARK    9  A    between atoms: C_30  and  C_31
REMARK                            x       y       z     vdW  Elec       q    Type
REMARK                         _______ _______ _______ _____ _____    ______ ____
ROOT
ATOM      1  O   UNL     1     -35.841  23.739   2.992  0.00  0.00    -0.290 OA
ATOM      2  C   UNL     1     -34.719  26.755   1.651  0.00  0.00    +0.050 C 
ATOM      3  C   UNL     1     -34.286  27.741   2.783  0.00  0.00    +0.069 C 
ATOM      4  C   UNL     1     -33.748  28.986   2.026  0.00  0.00    +0.092 C 
ATOM      5  C   UNL     1     -35.082  27.700   0.461  0.00  0.00    +0.007 C 
ATOM      6  C   UNL     1     -34.777  29.129   0.905  0.00  0.00    +0.027 C 
ATOM      7  C   UNL     1     -33.367  27.176   3.882  0.00  0.00    +0.174 C 
ATOM      8  C   UNL     1     -35.962  25.927   2.064  0.00  0.00    +0.228 C 
ATOM      9  C   UNL     1     -33.607  25.803   1.161  0.00  0.00    +0.004 C 
ATOM     10  C   UNL     1     -33.763  25.833   4.531  0.00  0.00    +0.078 C 
ATOM     11  C   UNL     1     -35.259  25.471   4.581  0.00  0.00    +0.146 C 
ATOM     12  C   UNL     1     -35.712  24.948   3.204  0.00  0.00    +0.214 C 
ATOM     13  C   UNL     1     -35.471  24.367   5.630  0.00  0.00    +0.037 C 
ENDROOT
BRANCH   4  14
ATOM     14  C   UNL     1     -33.662  30.268   2.850  0.00  0.00    +0.025 C 
ATOM     15  C   UNL     1     -35.055  30.841   3.097  0.00  0.00    +0.002 C 
ATOM     16  C   UNL     1     -32.775  31.294   2.149  0.00  0.00    +0.002 C 
ENDBRANCH   4  14
BRANCH   4  17
ATOM     17  O   UNL     1     -32.473  28.743   1.439  0.00  0.00    -0.387 OA
ATOM     18  H   UNL     1     -32.460  29.097   0.536  0.00  0.00    +0.210 HD
ENDBRANCH   4  17
BRANCH  11  19
ATOM     19  O   UNL     1     -36.024  26.584   5.002  0.00  0.00    -0.380 OA
ATOM     20  H   UNL     1     -35.634  27.398   4.648  0.00  0.00    +0.211 HD
ENDBRANCH  11  19
BRANCH   7  21
ATOM     21  O   UNL     1     -33.306  28.152   4.932  0.00  0.00    -0.449 OA
BRANCH  21  23
ATOM     22  O   UNL     1     -31.756  27.308   6.410  0.00  0.00    -0.245 OA
ATOM     23  C   UNL     1     -32.147  28.182   5.650  0.00  0.00    +0.337 C 
BRANCH  23  24
ATOM     24  C   UNL     1     -31.418  29.457   5.373  0.00  0.00    +0.049 C 
ATOM     25  C   UNL     1     -31.884  30.706   6.060  0.00  0.00    +0.037 C 
ATOM     26  C   UNL     1     -30.406  29.375   4.490  0.00  0.00    -0.024 C 
ATOM     27  C   UNL     1     -29.935  28.155   3.763  0.00  0.00    +0.031 C 
ENDBRANCH  23  24
ENDBRANCH  21  23
ENDBRANCH   7  21
BRANCH   8  28
ATOM     28  O   UNL     1     -37.050  26.761   2.428  0.00  0.00    -0.442 OA
BRANCH  28  30
ATOM     29  O   UNL     1     -39.071  25.837   3.029  0.00  0.00    -0.245 OA
ATOM     30  C   UNL     1     -38.298  26.261   2.183  0.00  0.00    +0.337 C 
BRANCH  30  31
ATOM     31  C   UNL     1     -38.582  26.302   0.716  0.00  0.00    +0.050 C 
ATOM     32  C   UNL     1     -38.739  27.642   0.059  0.00  0.00    +0.037 C 
ATOM     33  C   UNL     1     -38.706  25.108   0.108  0.00  0.00    -0.024 C 
ATOM     34  C   UNL     1     -38.590  23.756   0.736  0.00  0.00    +0.031 C 
ENDBRANCH  30  31
ENDBRANCH  28  30
ENDBRANCH   8  28
TORSDOF 9
ENDMDL
MODEL 8
REMARK VINA RESULT:      -5.5      1.927      2.872
REMARK  Name = 5281524
REMARK  9 active torsions:
REMARK  status: ('A' for Active; 'I' for Inactive)
REMARK    1  A    between atoms: C_4  and  C_14
REMARK    2  A    between atoms: C_4  and  O_17
REMARK    3  A    between atoms: C_7  and  O_21
REMARK    4  A    between atoms: C_8  and  O_28
REMARK    5  A    between atoms: C_11  and  O_19
REMARK    6  A    between atoms: O_21  and  C_23
REMARK    7  A    between atoms: C_23  and  C_24
REMARK    8  A    between atoms: O_28  and  C_30
REMARK    9  A    between atoms: C_30  and  C_31
REMARK                            x       y       z     vdW  Elec       q    Type
REMARK                         _______ _______ _______ _____ _____    ______ ____
ROOT
ATOM      1  O   UNL     1     -35.621  21.046   3.931  0.00  0.00    -0.290 OA
ATOM      2  C   UNL     1     -35.753  23.432   1.392  0.00  0.00    +0.050 C 
ATOM      3  C   UNL     1     -35.638  24.875   1.979  0.00  0.00    +0.069 C 
ATOM      4  C   UNL     1     -35.635  25.801   0.731  0.00  0.00    +0.092 C 
ATOM      5  C   UNL     1     -36.506  23.645   0.040  0.00  0.00    +0.007 C 
ATOM      6  C   UNL     1     -36.713  25.148  -0.135  0.00  0.00    +0.027 C 
ATOM      7  C   UNL     1     -34.512  25.123   2.999  0.00  0.00    +0.174 C 
ATOM      8  C   UNL     1     -36.583  22.507   2.318  0.00  0.00    +0.228 C 
ATOM      9  C   UNL     1     -34.404  22.756   1.067  0.00  0.00    +0.004 C 
ATOM     10  C   UNL     1     -34.353  24.114   4.155  0.00  0.00    +0.078 C 
ATOM     11  C   UNL     1     -35.610  23.363   4.632  0.00  0.00    +0.146 C 
ATOM     12  C   UNL     1     -35.926  22.211   3.660  0.00  0.00    +0.214 C 
ATOM     13  C   UNL     1     -35.343  22.779   6.030  0.00  0.00    +0.037 C 
ENDROOT
BRANCH   4  14
ATOM     14  C   UNL     1     -35.970  27.265   0.999  0.00  0.00    +0.025 C 
ATOM     15  C   UNL     1     -37.446  27.422   1.353  0.00  0.00    +0.002 C 
ATOM     16  C   UNL     1     -35.612  28.124  -0.211  0.00  0.00    +0.002 C 
ENDBRANCH   4  14
BRANCH   4  17
ATOM     17  O   UNL     1     -34.398  25.744   0.029  0.00  0.00    -0.387 OA
ATOM     18  H   UNL     1     -34.392  24.968  -0.554  0.00  0.00    +0.210 HD
ENDBRANCH   4  17
BRANCH  11  19
ATOM     19  O   UNL     1     -36.700  24.255   4.766  0.00  0.00    -0.380 OA
ATOM     20  H   UNL     1     -37.510  23.827   4.449  0.00  0.00    +0.211 HD
ENDBRANCH  11  19
BRANCH   7  21
ATOM     21  O   UNL     1     -34.744  26.410   3.589  0.00  0.00    -0.449 OA
BRANCH  21  23
ATOM     22  O   UNL     1     -33.368  27.240   5.237  0.00  0.00    -0.245 OA
ATOM     23  C   UNL     1     -33.640  27.057   4.059  0.00  0.00    +0.337 C 
BRANCH  23  24
ATOM     24  C   UNL     1     -32.804  27.523   2.911  0.00  0.00    +0.049 C 
ATOM     25  C   UNL     1     -31.769  26.588   2.360  0.00  0.00    +0.037 C 
ATOM     26  C   UNL     1     -33.039  28.777   2.485  0.00  0.00    -0.024 C 
ATOM     27  C   UNL     1     -34.039  29.747   3.031  0.00  0.00    +0.031 C 
ENDBRANCH  23  24
ENDBRANCH  21  23
ENDBRANCH   7  21
BRANCH   8  28
ATOM     28  O   UNL     1     -37.875  23.038   2.566  0.00  0.00    -0.442 OA
BRANCH  28  30
ATOM     29  O   UNL     1     -39.121  21.143   2.168  0.00  0.00    -0.245 OA
ATOM     30  C   UNL     1     -38.923  22.342   2.032  0.00  0.00    +0.337 C 
BRANCH  30  31
ATOM     31  C   UNL     1     -39.797  23.264   1.245  0.00  0.00    +0.050 C 
ATOM     32  C   UNL     1     -40.135  22.890  -0.168  0.00  0.00    +0.037 C 
ATOM     33  C   UNL     1     -40.187  24.387   1.877  0.00  0.00    -0.024 C 
ATOM     34  C   UNL     1     -39.842  24.807   3.269  0.00  0.00    +0.031 C 
ENDBRANCH  30  31
ENDBRANCH  28  30
ENDBRANCH   8  28
TORSDOF 9
ENDMDL
MODEL 9
REMARK VINA RESULT:      -5.5      2.396      6.646
REMARK  Name = 5281524
REMARK  9 active torsions:
REMARK  status: ('A' for Active; 'I' for Inactive)
REMARK    1  A    between atoms: C_4  and  C_14
REMARK    2  A    between atoms: C_4  and  O_17
REMARK    3  A    between atoms: C_7  and  O_21
REMARK    4  A    between atoms: C_8  and  O_28
REMARK    5  A    between atoms: C_11  and  O_19
REMARK    6  A    between atoms: O_21  and  C_23
REMARK    7  A    between atoms: C_23  and  C_24
REMARK    8  A    between atoms: O_28  and  C_30
REMARK    9  A    between atoms: C_30  and  C_31
REMARK                            x       y       z     vdW  Elec       q    Type
REMARK                         _______ _______ _______ _____ _____    ______ ____
ROOT
ATOM      1  O   UNL     1     -33.761  29.088   3.944  0.00  0.00    -0.290 OA
ATOM      2  C   UNL     1     -34.928  27.143   1.296  0.00  0.00    +0.050 C 
ATOM      3  C   UNL     1     -34.877  25.624   1.657  0.00  0.00    +0.069 C 
ATOM      4  C   UNL     1     -35.494  24.913   0.421  0.00  0.00    +0.092 C 
ATOM      5  C   UNL     1     -34.862  27.152  -0.265  0.00  0.00    +0.007 C 
ATOM      6  C   UNL     1     -34.862  25.697  -0.729  0.00  0.00    +0.027 C 
ATOM      7  C   UNL     1     -35.456  25.214   3.023  0.00  0.00    +0.174 C 
ATOM      8  C   UNL     1     -33.712  27.906   1.879  0.00  0.00    +0.228 C 
ATOM      9  C   UNL     1     -36.231  27.863   1.706  0.00  0.00    +0.004 C 
ATOM     10  C   UNL     1     -35.018  26.024   4.262  0.00  0.00    +0.078 C 
ATOM     11  C   UNL     1     -33.630  26.688   4.233  0.00  0.00    +0.146 C 
ATOM     12  C   UNL     1     -33.690  27.982   3.400  0.00  0.00    +0.214 C 
ATOM     13  C   UNL     1     -33.213  27.038   5.672  0.00  0.00    +0.037 C 
ENDROOT
BRANCH   4  14
ATOM     14  C   UNL     1     -35.182  23.424   0.297  0.00  0.00    +0.025 C 
ATOM     15  C   UNL     1     -33.685  23.205   0.100  0.00  0.00    +0.002 C 
ATOM     16  C   UNL     1     -35.973  22.807  -0.854  0.00  0.00    +0.002 C 
ENDBRANCH   4  14
BRANCH   4  17
ATOM     17  O   UNL     1     -36.906  25.083   0.358  0.00  0.00    -0.387 OA
ATOM     18  H   UNL     1     -37.238  24.734  -0.485  0.00  0.00    +0.210 HD
ENDBRANCH   4  17
BRANCH  11  19
ATOM     19  O   UNL     1     -32.659  25.785   3.738  0.00  0.00    -0.380 OA
ATOM     20  H   UNL     1     -33.069  25.193   3.089  0.00  0.00    +0.211 HD
ENDBRANCH  11  19
BRANCH   7  21
ATOM     21  O   UNL     1     -35.082  23.850   3.255  0.00  0.00    -0.449 OA
BRANCH  21  23
ATOM     22  O   UNL     1     -37.247  23.342   3.853  0.00  0.00    -0.245 OA
ATOM     23  C   UNL     1     -36.077  23.025   3.692  0.00  0.00    +0.337 C 
BRANCH  23  24
ATOM     24  C   UNL     1     -35.520  21.664   3.957  0.00  0.00    +0.049 C 
ATOM     25  C   UNL     1     -35.410  20.705   2.809  0.00  0.00    +0.037 C 
ATOM     26  C   UNL     1     -35.189  21.403   5.235  0.00  0.00    -0.024 C 
ATOM     27  C   UNL     1     -35.316  22.322   6.408  0.00  0.00    +0.031 C 
ENDBRANCH  23  24
ENDBRANCH  21  23
ENDBRANCH   7  21
BRANCH   8  28
ATOM     28  O   UNL     1     -32.484  27.342   1.447  0.00  0.00    -0.442 OA
BRANCH  28  30
ATOM     29  O   UNL     1     -31.554  29.405   1.019  0.00  0.00    -0.245 OA
ATOM     30  C   UNL     1     -31.446  28.216   1.285  0.00  0.00    +0.337 C 
BRANCH  30  31
ATOM     31  C   UNL     1     -30.147  27.503   1.477  0.00  0.00    +0.050 C 
ATOM     32  C   UNL     1     -29.586  26.724   0.324  0.00  0.00    +0.037 C 
ATOM     33  C   UNL     1     -29.598  27.600   2.703  0.00  0.00    -0.024 C 
ATOM     34  C   UNL     1     -30.145  28.337   3.883  0.00  0.00    +0.031 C 
ENDBRANCH  30  31
ENDBRANCH  28  30
ENDBRANCH   8  28
TORSDOF 9
ENDMDL
