MODEL 1
REMARK VINA RESULT:      -5.7      0.000      0.000
REMARK  Name = 198367
REMARK  2 active torsions:
REMARK  status: ('A' for Active; 'I' for Inactive)
REMARK    1  A    between atoms: C_9  and  C_15
REMARK    2  A    between atoms: C_15  and  O_16
REMARK                            x       y       z     vdW  Elec       q    Type
REMARK                         _______ _______ _______ _____ _____    ______ ____
ROOT
ATOM      1  S   UNL     1     -38.190  24.421   2.846  0.00  0.00    +0.103 S 
ATOM      2  O   UNL     1     -37.894  25.405   1.821  0.00  0.00    -0.146 OA
ATOM      3  O   UNL     1     -39.384  24.552   3.663  0.00  0.00    -0.146 OA
ATOM      4  N   UNL     1     -36.228  22.204   3.402  0.00  0.00    -0.290 N 
ATOM      5  N   UNL     1     -38.167  22.935   2.176  0.00  0.00    -0.106 NA
ATOM      6  C   UNL     1     -36.834  24.493   3.975  0.00  0.00    +0.143 C 
ATOM      7  C   UNL     1     -36.007  23.379   4.127  0.00  0.00    +0.069 C 
ATOM      8  C   UNL     1     -36.628  25.673   4.691  0.00  0.00    +0.022 C 
ATOM      9  C   UNL     1     -37.261  22.074   2.509  0.00  0.00    +0.229 C 
ATOM     10  C   UNL     1     -34.942  23.471   5.030  0.00  0.00    +0.016 C 
ATOM     11  C   UNL     1     -35.562  25.744   5.586  0.00  0.00    +0.001 C 
ATOM     12  C   UNL     1     -34.721  24.646   5.755  0.00  0.00    +0.001 C 
ATOM     13  H   UNL     1     -35.621  21.441   3.539  0.00  0.00    +0.154 HD
ENDROOT
BRANCH   9  15
ATOM     14  O   UNL     1     -37.904  20.626   0.738  0.00  0.00    -0.242 OA
ATOM     15  C   UNL     1     -37.375  20.761   1.808  0.00  0.00    +0.372 C 
BRANCH  15  16
ATOM     16  O   UNL     1     -36.802  19.821   2.572  0.00  0.00    -0.475 OA
ATOM     17  H   UNL     1     -37.200  19.567   3.382  0.00  0.00    +0.296 HD
ENDBRANCH  15  16
ENDBRANCH   9  15
TORSDOF 2
ENDMDL
MODEL 2
REMARK VINA RESULT:      -5.7      1.877      3.002
REMARK  Name = 198367
REMARK  2 active torsions:
REMARK  status: ('A' for Active; 'I' for Inactive)
REMARK    1  A    between atoms: C_9  and  C_15
REMARK    2  A    between atoms: C_15  and  O_16
REMARK                            x       y       z     vdW  Elec       q    Type
REMARK                         _______ _______ _______ _____ _____    ______ ____
ROOT
ATOM      1  S   UNL     1     -35.823  21.957   2.779  0.00  0.00    +0.103 S 
ATOM      2  O   UNL     1     -35.514  20.880   3.701  0.00  0.00    -0.146 OA
ATOM      3  O   UNL     1     -34.964  22.210   1.634  0.00  0.00    -0.146 OA
ATOM      4  N   UNL     1     -38.149  23.787   3.339  0.00  0.00    -0.290 N 
ATOM      5  N   UNL     1     -37.359  21.785   2.259  0.00  0.00    -0.106 NA
ATOM      6  C   UNL     1     -35.773  23.436   3.743  0.00  0.00    +0.143 C 
ATOM      7  C   UNL     1     -36.938  24.183   3.915  0.00  0.00    +0.069 C 
ATOM      8  C   UNL     1     -34.556  23.818   4.310  0.00  0.00    +0.022 C 
ATOM      9  C   UNL     1     -38.265  22.652   2.577  0.00  0.00    +0.229 C 
ATOM     10  C   UNL     1     -36.863  25.349   4.685  0.00  0.00    +0.016 C 
ATOM     11  C   UNL     1     -34.501  24.981   5.073  0.00  0.00    +0.001 C 
ATOM     12  C   UNL     1     -35.652  25.746   5.260  0.00  0.00    +0.001 C 
ATOM     13  H   UNL     1     -38.948  24.343   3.485  0.00  0.00    +0.154 HD
ENDROOT
BRANCH   9  15
ATOM     14  O   UNL     1     -40.346  23.194   1.567  0.00  0.00    -0.242 OA
ATOM     15  C   UNL     1     -39.620  22.354   2.025  0.00  0.00    +0.372 C 
BRANCH  15  16
ATOM     16  O   UNL     1     -39.845  21.038   2.140  0.00  0.00    -0.475 OA
ATOM     17  H   UNL     1     -39.864  20.638   2.988  0.00  0.00    +0.296 HD
ENDBRANCH  15  16
ENDBRANCH   9  15
TORSDOF 2
ENDMDL
MODEL 3
REMARK VINA RESULT:      -5.4      8.831     10.558
REMARK  Name = 198367
REMARK  2 active torsions:
REMARK  status: ('A' for Active; 'I' for Inactive)
REMARK    1  A    between atoms: C_9  and  C_15
REMARK    2  A    between atoms: C_15  and  O_16
REMARK                            x       y       z     vdW  Elec       q    Type
REMARK                         _______ _______ _______ _____ _____    ______ ____
ROOT
ATOM      1  S   UNL     1     -43.158  29.135   4.487  0.00  0.00    +0.103 S 
ATOM      2  O   UNL     1     -43.510  29.965   3.350  0.00  0.00    -0.146 OA
ATOM      3  O   UNL     1     -41.855  28.496   4.551  0.00  0.00    -0.146 OA
ATOM      4  N   UNL     1     -45.201  28.592   6.632  0.00  0.00    -0.290 N 
ATOM      5  N   UNL     1     -43.397  29.986   5.857  0.00  0.00    -0.106 NA
ATOM      6  C   UNL     1     -44.333  27.817   4.492  0.00  0.00    +0.143 C 
ATOM      7  C   UNL     1     -45.220  27.692   5.562  0.00  0.00    +0.069 C 
ATOM      8  C   UNL     1     -44.338  26.928   3.417  0.00  0.00    +0.022 C 
ATOM      9  C   UNL     1     -44.317  29.639   6.698  0.00  0.00    +0.229 C 
ATOM     10  C   UNL     1     -46.137  26.636   5.534  0.00  0.00    +0.016 C 
ATOM     11  C   UNL     1     -45.259  25.883   3.407  0.00  0.00    +0.001 C 
ATOM     12  C   UNL     1     -46.157  25.737   4.463  0.00  0.00    +0.001 C 
ATOM     13  H   UNL     1     -45.844  28.468   7.367  0.00  0.00    +0.154 HD
ENDROOT
BRANCH   9  15
ATOM     14  O   UNL     1     -45.398  31.136   8.193  0.00  0.00    -0.242 OA
ATOM     15  C   UNL     1     -44.411  30.516   7.902  0.00  0.00    +0.372 C 
BRANCH  15  16
ATOM     16  O   UNL     1     -43.239  30.474   8.551  0.00  0.00    -0.475 OA
ATOM     17  H   UNL     1     -42.874  31.258   8.911  0.00  0.00    +0.296 HD
ENDBRANCH  15  16
ENDBRANCH   9  15
TORSDOF 2
ENDMDL
MODEL 4
REMARK VINA RESULT:      -5.4      2.781      4.584
REMARK  Name = 198367
REMARK  2 active torsions:
REMARK  status: ('A' for Active; 'I' for Inactive)
REMARK    1  A    between atoms: C_9  and  C_15
REMARK    2  A    between atoms: C_15  and  O_16
REMARK                            x       y       z     vdW  Elec       q    Type
REMARK                         _______ _______ _______ _____ _____    ______ ____
ROOT
ATOM      1  S   UNL     1     -35.944  23.560   4.421  0.00  0.00    +0.103 S 
ATOM      2  O   UNL     1     -34.705  24.212   4.039  0.00  0.00    -0.146 OA
ATOM      3  O   UNL     1     -36.061  22.913   5.717  0.00  0.00    -0.146 OA
ATOM      4  N   UNL     1     -38.216  23.394   2.451  0.00  0.00    -0.290 N 
ATOM      5  N   UNL     1     -37.173  24.617   4.245  0.00  0.00    -0.106 NA
ATOM      6  C   UNL     1     -36.194  22.282   3.229  0.00  0.00    +0.143 C 
ATOM      7  C   UNL     1     -37.299  22.341   2.380  0.00  0.00    +0.069 C 
ATOM      8  C   UNL     1     -35.270  21.238   3.171  0.00  0.00    +0.022 C 
ATOM      9  C   UNL     1     -38.089  24.421   3.352  0.00  0.00    +0.229 C 
ATOM     10  C   UNL     1     -37.467  21.312   1.448  0.00  0.00    +0.016 C 
ATOM     11  C   UNL     1     -35.454  20.223   2.236  0.00  0.00    +0.001 C 
ATOM     12  C   UNL     1     -36.550  20.259   1.376  0.00  0.00    +0.001 C 
ATOM     13  H   UNL     1     -38.983  23.399   1.834  0.00  0.00    +0.154 HD
ENDROOT
BRANCH   9  15
ATOM     14  O   UNL     1     -39.064  26.469   2.643  0.00  0.00    -0.242 OA
ATOM     15  C   UNL     1     -39.144  25.476   3.315  0.00  0.00    +0.372 C 
BRANCH  15  16
ATOM     16  O   UNL     1     -40.139  25.110   4.135  0.00  0.00    -0.475 OA
ATOM     17  H   UNL     1     -39.969  24.525   4.846  0.00  0.00    +0.296 HD
ENDBRANCH  15  16
ENDBRANCH   9  15
TORSDOF 2
ENDMDL
MODEL 5
REMARK VINA RESULT:      -5.3      2.722      5.139
REMARK  Name = 198367
REMARK  2 active torsions:
REMARK  status: ('A' for Active; 'I' for Inactive)
REMARK    1  A    between atoms: C_9  and  C_15
REMARK    2  A    between atoms: C_15  and  O_16
REMARK                            x       y       z     vdW  Elec       q    Type
REMARK                         _______ _______ _______ _____ _____    ______ ____
ROOT
ATOM      1  S   UNL     1     -35.609  22.630   3.273  0.00  0.00    +0.103 S 
ATOM      2  O   UNL     1     -34.834  22.754   2.052  0.00  0.00    -0.146 OA
ATOM      3  O   UNL     1     -35.568  21.399   4.043  0.00  0.00    -0.146 OA
ATOM      4  N   UNL     1     -37.447  24.863   4.112  0.00  0.00    -0.290 N 
ATOM      5  N   UNL     1     -35.253  23.881   4.255  0.00  0.00    -0.106 NA
ATOM      6  C   UNL     1     -37.294  22.826   2.784  0.00  0.00    +0.143 C 
ATOM      7  C   UNL     1     -38.024  23.918   3.257  0.00  0.00    +0.069 C 
ATOM      8  C   UNL     1     -37.855  21.874   1.932  0.00  0.00    +0.022 C 
ATOM      9  C   UNL     1     -36.145  24.776   4.534  0.00  0.00    +0.229 C 
ATOM     10  C   UNL     1     -39.356  24.043   2.851  0.00  0.00    +0.016 C 
ATOM     11  C   UNL     1     -39.183  22.015   1.539  0.00  0.00    +0.001 C 
ATOM     12  C   UNL     1     -39.933  23.097   1.997  0.00  0.00    +0.001 C 
ATOM     13  H   UNL     1     -37.996  25.618   4.423  0.00  0.00    +0.154 HD
ENDROOT
BRANCH   9  15
ATOM     14  O   UNL     1     -34.567  25.874   5.930  0.00  0.00    -0.242 OA
ATOM     15  C   UNL     1     -35.666  25.856   5.446  0.00  0.00    +0.372 C 
BRANCH  15  16
ATOM     16  O   UNL     1     -36.655  26.747   5.605  0.00  0.00    -0.475 OA
ATOM     17  H   UNL     1     -37.308  26.846   4.940  0.00  0.00    +0.296 HD
ENDBRANCH  15  16
ENDBRANCH   9  15
TORSDOF 2
ENDMDL
MODEL 6
REMARK VINA RESULT:      -5.3      2.446      3.246
REMARK  Name = 198367
REMARK  2 active torsions:
REMARK  status: ('A' for Active; 'I' for Inactive)
REMARK    1  A    between atoms: C_9  and  C_15
REMARK    2  A    between atoms: C_15  and  O_16
REMARK                            x       y       z     vdW  Elec       q    Type
REMARK                         _______ _______ _______ _____ _____    ______ ____
ROOT
ATOM      1  S   UNL     1     -37.218  24.000   3.171  0.00  0.00    +0.103 S 
ATOM      2  O   UNL     1     -37.099  23.497   1.815  0.00  0.00    -0.146 OA
ATOM      3  O   UNL     1     -38.486  24.525   3.648  0.00  0.00    -0.146 OA
ATOM      4  N   UNL     1     -34.784  24.122   4.940  0.00  0.00    -0.290 N 
ATOM      5  N   UNL     1     -36.696  22.855   4.207  0.00  0.00    -0.106 NA
ATOM      6  C   UNL     1     -36.078  25.344   3.278  0.00  0.00    +0.143 C 
ATOM      7  C   UNL     1     -34.992  25.256   4.149  0.00  0.00    +0.069 C 
ATOM      8  C   UNL     1     -36.301  26.469   2.482  0.00  0.00    +0.022 C 
ATOM      9  C   UNL     1     -35.626  23.040   4.911  0.00  0.00    +0.229 C 
ATOM     10  C   UNL     1     -34.109  26.339   4.209  0.00  0.00    +0.016 C 
ATOM     11  C   UNL     1     -35.411  27.537   2.556  0.00  0.00    +0.001 C 
ATOM     12  C   UNL     1     -34.317  27.473   3.418  0.00  0.00    +0.001 C 
ATOM     13  H   UNL     1     -34.005  24.100   5.541  0.00  0.00    +0.154 HD
ENDROOT
BRANCH   9  15
ATOM     14  O   UNL     1     -35.122  22.019   6.997  0.00  0.00    -0.242 OA
ATOM     15  C   UNL     1     -35.280  21.901   5.812  0.00  0.00    +0.372 C 
BRANCH  15  16
ATOM     16  O   UNL     1     -35.187  20.787   5.072  0.00  0.00    -0.475 OA
ATOM     17  H   UNL     1     -34.360  20.532   4.712  0.00  0.00    +0.296 HD
ENDBRANCH  15  16
ENDBRANCH   9  15
TORSDOF 2
ENDMDL
MODEL 7
REMARK VINA RESULT:      -5.3      2.104      4.548
REMARK  Name = 198367
REMARK  2 active torsions:
REMARK  status: ('A' for Active; 'I' for Inactive)
REMARK    1  A    between atoms: C_9  and  C_15
REMARK    2  A    between atoms: C_15  and  O_16
REMARK                            x       y       z     vdW  Elec       q    Type
REMARK                         _______ _______ _______ _____ _____    ______ ____
ROOT
ATOM      1  S   UNL     1     -38.217  24.315   2.744  0.00  0.00    +0.103 S 
ATOM      2  O   UNL     1     -39.517  23.958   3.281  0.00  0.00    -0.146 OA
ATOM      3  O   UNL     1     -38.112  24.953   1.443  0.00  0.00    -0.146 OA
ATOM      4  N   UNL     1     -35.719  23.565   4.251  0.00  0.00    -0.290 N 
ATOM      5  N   UNL     1     -37.421  25.219   3.842  0.00  0.00    -0.106 NA
ATOM      6  C   UNL     1     -37.332  22.793   2.597  0.00  0.00    +0.143 C 
ATOM      7  C   UNL     1     -36.185  22.589   3.365  0.00  0.00    +0.069 C 
ATOM      8  C   UNL     1     -37.810  21.830   1.707  0.00  0.00    +0.022 C 
ATOM      9  C   UNL     1     -36.353  24.771   4.418  0.00  0.00    +0.229 C 
ATOM     10  C   UNL     1     -35.509  21.373   3.224  0.00  0.00    +0.016 C 
ATOM     11  C   UNL     1     -37.123  20.626   1.581  0.00  0.00    +0.001 C 
ATOM     12  C   UNL     1     -35.975  20.397   2.337  0.00  0.00    +0.001 C 
ATOM     13  H   UNL     1     -34.906  23.381   4.774  0.00  0.00    +0.154 HD
ENDROOT
BRANCH   9  15
ATOM     14  O   UNL     1     -34.644  25.565   5.866  0.00  0.00    -0.242 OA
ATOM     15  C   UNL     1     -35.740  25.716   5.398  0.00  0.00    +0.372 C 
BRANCH  15  16
ATOM     16  O   UNL     1     -36.612  26.707   5.633  0.00  0.00    -0.475 OA
ATOM     17  H   UNL     1     -36.846  27.298   4.945  0.00  0.00    +0.296 HD
ENDBRANCH  15  16
ENDBRANCH   9  15
TORSDOF 2
ENDMDL
MODEL 8
REMARK VINA RESULT:      -5.2      2.031      2.367
REMARK  Name = 198367
REMARK  2 active torsions:
REMARK  status: ('A' for Active; 'I' for Inactive)
REMARK    1  A    between atoms: C_9  and  C_15
REMARK    2  A    between atoms: C_15  and  O_16
REMARK                            x       y       z     vdW  Elec       q    Type
REMARK                         _______ _______ _______ _____ _____    ______ ____
ROOT
ATOM      1  S   UNL     1     -35.805  23.429   1.981  0.00  0.00    +0.103 S 
ATOM      2  O   UNL     1     -34.609  24.145   1.577  0.00  0.00    -0.146 OA
ATOM      3  O   UNL     1     -37.105  24.073   1.901  0.00  0.00    -0.146 OA
ATOM      4  N   UNL     1     -35.570  20.666   3.157  0.00  0.00    -0.290 N 
ATOM      5  N   UNL     1     -35.868  22.010   1.181  0.00  0.00    -0.106 NA
ATOM      6  C   UNL     1     -35.571  23.043   3.688  0.00  0.00    +0.143 C 
ATOM      7  C   UNL     1     -35.481  21.708   4.084  0.00  0.00    +0.069 C 
ATOM      8  C   UNL     1     -35.485  24.095   4.601  0.00  0.00    +0.022 C 
ATOM      9  C   UNL     1     -35.752  20.888   1.815  0.00  0.00    +0.229 C 
ATOM     10  C   UNL     1     -35.296  21.439   5.444  0.00  0.00    +0.016 C 
ATOM     11  C   UNL     1     -35.302  23.806   5.951  0.00  0.00    +0.001 C 
ATOM     12  C   UNL     1     -35.207  22.481   6.372  0.00  0.00    +0.001 C 
ATOM     13  H   UNL     1     -35.501  19.738   3.478  0.00  0.00    +0.154 HD
ENDROOT
BRANCH   9  15
ATOM     14  O   UNL     1     -34.986  19.387   0.141  0.00  0.00    -0.242 OA
ATOM     15  C   UNL     1     -35.830  19.679   0.943  0.00  0.00    +0.372 C 
BRANCH  15  16
ATOM     16  O   UNL     1     -36.967  19.027   1.223  0.00  0.00    -0.475 OA
ATOM     17  H   UNL     1     -37.661  19.467   1.675  0.00  0.00    +0.296 HD
ENDBRANCH  15  16
ENDBRANCH   9  15
TORSDOF 2
ENDMDL
MODEL 9
REMARK VINA RESULT:      -5.2      2.082      4.086
REMARK  Name = 198367
REMARK  2 active torsions:
REMARK  status: ('A' for Active; 'I' for Inactive)
REMARK    1  A    between atoms: C_9  and  C_15
REMARK    2  A    between atoms: C_15  and  O_16
REMARK                            x       y       z     vdW  Elec       q    Type
REMARK                         _______ _______ _______ _____ _____    ______ ____
ROOT
ATOM      1  S   UNL     1     -36.455  22.817   1.996  0.00  0.00    +0.103 S 
ATOM      2  O   UNL     1     -37.630  21.971   1.893  0.00  0.00    -0.146 OA
ATOM      3  O   UNL     1     -35.273  22.526   1.205  0.00  0.00    -0.146 OA
ATOM      4  N   UNL     1     -36.407  25.073   3.991  0.00  0.00    -0.290 N 
ATOM      5  N   UNL     1     -36.895  24.366   1.742  0.00  0.00    -0.106 NA
ATOM      6  C   UNL     1     -35.937  22.703   3.681  0.00  0.00    +0.143 C 
ATOM      7  C   UNL     1     -35.970  23.841   4.488  0.00  0.00    +0.069 C 
ATOM      8  C   UNL     1     -35.503  21.466   4.160  0.00  0.00    +0.022 C 
ATOM      9  C   UNL     1     -36.823  25.238   2.694  0.00  0.00    +0.229 C 
ATOM     10  C   UNL     1     -35.552  23.715   5.816  0.00  0.00    +0.016 C 
ATOM     11  C   UNL     1     -35.091  21.361   5.486  0.00  0.00    +0.001 C 
ATOM     12  C   UNL     1     -35.115  22.483   6.313  0.00  0.00    +0.001 C 
ATOM     13  H   UNL     1     -36.414  25.851   4.593  0.00  0.00    +0.154 HD
ENDROOT
BRANCH   9  15
ATOM     14  O   UNL     1     -38.281  26.836   1.711  0.00  0.00    -0.242 OA
ATOM     15  C   UNL     1     -37.260  26.611   2.304  0.00  0.00    +0.372 C 
BRANCH  15  16
ATOM     16  O   UNL     1     -36.337  27.486   2.725  0.00  0.00    -0.475 OA
ATOM     17  H   UNL     1     -35.708  27.830   2.121  0.00  0.00    +0.296 HD
ENDBRANCH  15  16
ENDBRANCH   9  15
TORSDOF 2
ENDMDL
