MODEL 1
REMARK VINA RESULT:      -6.5      0.000      0.000
REMARK  Name = 195015
REMARK  7 active torsions:
REMARK  status: ('A' for Active; 'I' for Inactive)
REMARK    1  A    between atoms: C_1  and  C_6
REMARK    2  A    between atoms: C_1  and  O_16
REMARK    3  A    between atoms: C_1  and  C_18
REMARK    4  A    between atoms: C_8  and  O_14
REMARK    5  A    between atoms: C_18  and  C_19
REMARK    6  A    between atoms: C_21  and  O_26
REMARK    7  A    between atoms: C_23  and  O_28
REMARK                            x       y       z     vdW  Elec       q    Type
REMARK                         _______ _______ _______ _____ _____    ______ ____
ROOT
ATOM      1  C   UNL     1     -37.393  24.114   2.997  0.00  0.00    +0.122 C 
ENDROOT
BRANCH   1   6
ATOM      2  O   UNL     1     -33.670  28.771   3.769  0.00  0.00    -0.296 OA
ATOM      3  O   UNL     1     -36.371  23.278   5.452  0.00  0.00    -0.296 OA
ATOM      4  C   UNL     1     -34.318  26.424   3.695  0.00  0.00    +0.077 C 
ATOM      5  C   UNL     1     -35.766  26.022   3.325  0.00  0.00    +0.019 C 
ATOM      6  C   UNL     1     -35.977  24.513   3.401  0.00  0.00    +0.085 C 
ATOM      7  C   UNL     1     -36.038  26.748   2.011  0.00  0.00    +0.009 C 
ATOM      8  C   UNL     1     -34.140  26.124   5.189  0.00  0.00    +0.124 C 
ATOM      9  C   UNL     1     -34.394  27.894   3.314  0.00  0.00    +0.152 C 
ATOM     10  C   UNL     1     -35.463  28.147   2.266  0.00  0.00    +0.065 C 
ATOM     11  C   UNL     1     -34.406  24.642   5.491  0.00  0.00    +0.094 C 
ATOM     12  C   UNL     1     -35.677  24.098   4.850  0.00  0.00    +0.155 C 
ATOM     13  C   UNL     1     -33.213  25.800   2.821  0.00  0.00    +0.010 C 
BRANCH   8  14
ATOM     14  O   UNL     1     -32.831  26.466   5.637  0.00  0.00    -0.384 OA
ATOM     15  H   UNL     1     -32.175  25.953   5.139  0.00  0.00    +0.210 HD
ENDBRANCH   8  14
ENDBRANCH   1   6
BRANCH   1  16
ATOM     16  O   UNL     1     -38.301  24.669   3.944  0.00  0.00    -0.384 OA
ATOM     17  H   UNL     1     -39.205  24.389   3.729  0.00  0.00    +0.210 HD
ENDBRANCH   1  16
BRANCH   1  18
ATOM     18  C   UNL     1     -37.549  22.591   2.951  0.00  0.00    +0.059 C 
BRANCH  18  19
ATOM     19  C   UNL     1     -36.596  21.952   1.968  0.00  0.00    +0.013 C 
ATOM     20  C   UNL     1     -36.665  22.296   0.625  0.00  0.00    -0.023 C 
ATOM     21  C   UNL     1     -35.665  21.031   2.426  0.00  0.00    +0.163 C 
ATOM     22  C   UNL     1     -35.782  21.705  -0.279  0.00  0.00    -0.001 C 
ATOM     23  C   UNL     1     -34.782  20.441   1.520  0.00  0.00    +0.167 C 
ATOM     24  C   UNL     1     -37.664  23.284   0.121  0.00  0.00    +0.031 C 
ATOM     25  C   UNL     1     -34.841  20.778   0.168  0.00  0.00    +0.039 C 
BRANCH  21  26
ATOM     26  O   UNL     1     -35.601  20.698   3.746  0.00  0.00    -0.503 OA
ATOM     27  H   UNL     1     -35.474  19.805   3.998  0.00  0.00    +0.292 HD
ENDBRANCH  21  26
BRANCH  23  28
ATOM     28  O   UNL     1     -33.858  19.533   1.944  0.00  0.00    -0.503 OA
ATOM     29  H   UNL     1     -33.134  19.813   2.468  0.00  0.00    +0.292 HD
ENDBRANCH  23  28
ENDBRANCH  18  19
ENDBRANCH   1  18
TORSDOF 7
ENDMDL
MODEL 2
REMARK VINA RESULT:      -6.4      2.121      2.968
REMARK  Name = 195015
REMARK  7 active torsions:
REMARK  status: ('A' for Active; 'I' for Inactive)
REMARK    1  A    between atoms: C_1  and  C_6
REMARK    2  A    between atoms: C_1  and  O_16
REMARK    3  A    between atoms: C_1  and  C_18
REMARK    4  A    between atoms: C_8  and  O_14
REMARK    5  A    between atoms: C_18  and  C_19
REMARK    6  A    between atoms: C_21  and  O_26
REMARK    7  A    between atoms: C_23  and  O_28
REMARK                            x       y       z     vdW  Elec       q    Type
REMARK                         _______ _______ _______ _____ _____    ______ ____
ROOT
ATOM      1  C   UNL     1     -34.983  22.443   1.908  0.00  0.00    +0.122 C 
ENDROOT
BRANCH   1   6
ATOM      2  O   UNL     1     -34.461  28.207   3.535  0.00  0.00    -0.296 OA
ATOM      3  O   UNL     1     -37.322  22.541   3.423  0.00  0.00    -0.296 OA
ATOM      4  C   UNL     1     -34.824  25.821   3.868  0.00  0.00    +0.077 C 
ATOM      5  C   UNL     1     -34.763  24.845   2.669  0.00  0.00    +0.019 C 
ATOM      6  C   UNL     1     -35.082  23.412   3.083  0.00  0.00    +0.085 C 
ATOM      7  C   UNL     1     -33.427  25.147   1.999  0.00  0.00    +0.009 C 
ATOM      8  C   UNL     1     -36.293  25.905   4.302  0.00  0.00    +0.124 C 
ATOM      9  C   UNL     1     -34.261  27.054   3.177  0.00  0.00    +0.152 C 
ATOM     10  C   UNL     1     -33.385  26.681   1.994  0.00  0.00    +0.065 C 
ATOM     11  C   UNL     1     -36.838  24.519   4.678  0.00  0.00    +0.094 C 
ATOM     12  C   UNL     1     -36.503  23.427   3.669  0.00  0.00    +0.155 C 
ATOM     13  C   UNL     1     -33.870  25.498   5.035  0.00  0.00    +0.010 C 
BRANCH   8  14
ATOM     14  O   UNL     1     -36.461  26.791   5.406  0.00  0.00    -0.384 OA
ATOM     15  H   UNL     1     -37.246  27.342   5.261  0.00  0.00    +0.210 HD
ENDBRANCH   8  14
ENDBRANCH   1   6
BRANCH   1  16
ATOM     16  O   UNL     1     -36.082  22.686   1.035  0.00  0.00    -0.384 OA
ATOM     17  H   UNL     1     -36.800  23.113   1.529  0.00  0.00    +0.210 HD
ENDBRANCH   1  16
BRANCH   1  18
ATOM     18  C   UNL     1     -35.004  20.987   2.387  0.00  0.00    +0.059 C 
BRANCH  18  19
ATOM     19  C   UNL     1     -35.384  20.032   1.281  0.00  0.00    +0.013 C 
ATOM     20  C   UNL     1     -34.393  19.476   0.485  0.00  0.00    -0.023 C 
ATOM     21  C   UNL     1     -36.722  19.724   1.080  0.00  0.00    +0.163 C 
ATOM     22  C   UNL     1     -34.748  18.592  -0.535  0.00  0.00    -0.001 C 
ATOM     23  C   UNL     1     -37.076  18.840   0.060  0.00  0.00    +0.167 C 
ATOM     24  C   UNL     1     -32.950  19.800   0.691  0.00  0.00    +0.031 C 
ATOM     25  C   UNL     1     -36.089  18.274  -0.747  0.00  0.00    +0.039 C 
BRANCH  21  26
ATOM     26  O   UNL     1     -37.692  20.273   1.866  0.00  0.00    -0.503 OA
ATOM     27  H   UNL     1     -38.496  19.813   2.007  0.00  0.00    +0.292 HD
ENDBRANCH  21  26
BRANCH  23  28
ATOM     28  O   UNL     1     -38.383  18.521  -0.159  0.00  0.00    -0.503 OA
ATOM     29  H   UNL     1     -39.062  19.042   0.222  0.00  0.00    +0.292 HD
ENDBRANCH  23  28
ENDBRANCH  18  19
ENDBRANCH   1  18
TORSDOF 7
ENDMDL
MODEL 3
REMARK VINA RESULT:      -6.3      1.735      2.101
REMARK  Name = 195015
REMARK  7 active torsions:
REMARK  status: ('A' for Active; 'I' for Inactive)
REMARK    1  A    between atoms: C_1  and  C_6
REMARK    2  A    between atoms: C_1  and  O_16
REMARK    3  A    between atoms: C_1  and  C_18
REMARK    4  A    between atoms: C_8  and  O_14
REMARK    5  A    between atoms: C_18  and  C_19
REMARK    6  A    between atoms: C_21  and  O_26
REMARK    7  A    between atoms: C_23  and  O_28
REMARK                            x       y       z     vdW  Elec       q    Type
REMARK                         _______ _______ _______ _____ _____    ______ ____
ROOT
ATOM      1  C   UNL     1     -36.624  23.304   2.841  0.00  0.00    +0.122 C 
ENDROOT
BRANCH   1   6
ATOM      2  O   UNL     1     -34.492  28.894   3.435  0.00  0.00    -0.296 OA
ATOM      3  O   UNL     1     -35.936  23.079   5.534  0.00  0.00    -0.296 OA
ATOM      4  C   UNL     1     -34.471  26.467   3.642  0.00  0.00    +0.077 C 
ATOM      5  C   UNL     1     -35.657  25.625   3.113  0.00  0.00    +0.019 C 
ATOM      6  C   UNL     1     -35.475  24.138   3.400  0.00  0.00    +0.085 C 
ATOM      7  C   UNL     1     -35.838  26.089   1.670  0.00  0.00    +0.009 C 
ATOM      8  C   UNL     1     -34.527  26.401   5.174  0.00  0.00    +0.124 C 
ATOM      9  C   UNL     1     -34.852  27.800   3.018  0.00  0.00    +0.152 C 
ATOM     10  C   UNL     1     -35.715  27.614   1.783  0.00  0.00    +0.065 C 
ATOM     11  C   UNL     1     -34.449  24.948   5.668  0.00  0.00    +0.094 C 
ATOM     12  C   UNL     1     -35.375  23.992   4.926  0.00  0.00    +0.155 C 
ATOM     13  C   UNL     1     -33.088  26.094   3.074  0.00  0.00    +0.010 C 
BRANCH   8  14
ATOM     14  O   UNL     1     -33.472  27.154   5.767  0.00  0.00    -0.384 OA
ATOM     15  H   UNL     1     -33.479  28.056   5.409  0.00  0.00    +0.210 HD
ENDBRANCH   8  14
ENDBRANCH   1   6
BRANCH   1  16
ATOM     16  O   UNL     1     -37.773  23.525   3.655  0.00  0.00    -0.384 OA
ATOM     17  H   UNL     1     -38.025  22.696   4.091  0.00  0.00    +0.210 HD
ENDBRANCH   1  16
BRANCH   1  18
ATOM     18  C   UNL     1     -36.271  21.813   2.826  0.00  0.00    +0.059 C 
BRANCH  18  19
ATOM     19  C   UNL     1     -36.619  21.161   1.509  0.00  0.00    +0.013 C 
ATOM     20  C   UNL     1     -35.627  20.958   0.561  0.00  0.00    -0.023 C 
ATOM     21  C   UNL     1     -37.930  20.773   1.269  0.00  0.00    +0.163 C 
ATOM     22  C   UNL     1     -35.953  20.353  -0.654  0.00  0.00    -0.001 C 
ATOM     23  C   UNL     1     -38.255  20.169   0.054  0.00  0.00    +0.167 C 
ATOM     24  C   UNL     1     -34.214  21.372   0.806  0.00  0.00    +0.031 C 
ATOM     25  C   UNL     1     -37.266  19.958  -0.906  0.00  0.00    +0.039 C 
BRANCH  21  26
ATOM     26  O   UNL     1     -38.901  20.974   2.206  0.00  0.00    -0.503 OA
ATOM     27  H   UNL     1     -38.906  21.762   2.713  0.00  0.00    +0.292 HD
ENDBRANCH  21  26
BRANCH  23  28
ATOM     28  O   UNL     1     -39.534  19.778  -0.206  0.00  0.00    -0.503 OA
ATOM     29  H   UNL     1     -40.068  20.282  -0.787  0.00  0.00    +0.292 HD
ENDBRANCH  23  28
ENDBRANCH  18  19
ENDBRANCH   1  18
TORSDOF 7
ENDMDL
MODEL 4
REMARK VINA RESULT:      -6.3      2.117      6.445
REMARK  Name = 195015
REMARK  7 active torsions:
REMARK  status: ('A' for Active; 'I' for Inactive)
REMARK    1  A    between atoms: C_1  and  C_6
REMARK    2  A    between atoms: C_1  and  O_16
REMARK    3  A    between atoms: C_1  and  C_18
REMARK    4  A    between atoms: C_8  and  O_14
REMARK    5  A    between atoms: C_18  and  C_19
REMARK    6  A    between atoms: C_21  and  O_26
REMARK    7  A    between atoms: C_23  and  O_28
REMARK                            x       y       z     vdW  Elec       q    Type
REMARK                         _______ _______ _______ _____ _____    ______ ____
ROOT
ATOM      1  C   UNL     1     -35.192  26.738   3.882  0.00  0.00    +0.122 C 
ENDROOT
BRANCH   1   6
ATOM      2  O   UNL     1     -34.744  21.169   1.660  0.00  0.00    -0.296 OA
ATOM      3  O   UNL     1     -35.115  25.436   6.346  0.00  0.00    -0.296 OA
ATOM      4  C   UNL     1     -35.637  22.939   3.077  0.00  0.00    +0.077 C 
ATOM      5  C   UNL     1     -35.071  24.376   2.985  0.00  0.00    +0.019 C 
ATOM      6  C   UNL     1     -35.722  25.312   4.000  0.00  0.00    +0.085 C 
ATOM      7  C   UNL     1     -35.145  24.720   1.501  0.00  0.00    +0.009 C 
ATOM      8  C   UNL     1     -35.177  22.363   4.423  0.00  0.00    +0.124 C 
ATOM      9  C   UNL     1     -34.968  22.359   1.840  0.00  0.00    +0.152 C 
ATOM     10  C   UNL     1     -34.634  23.440   0.827  0.00  0.00    +0.065 C 
ATOM     11  C   UNL     1     -35.663  23.233   5.592  0.00  0.00    +0.094 C 
ATOM     12  C   UNL     1     -35.429  24.726   5.390  0.00  0.00    +0.155 C 
ATOM     13  C   UNL     1     -37.157  22.809   2.856  0.00  0.00    +0.010 C 
BRANCH   8  14
ATOM     14  O   UNL     1     -35.644  21.029   4.606  0.00  0.00    -0.384 OA
ATOM     15  H   UNL     1     -34.899  20.412   4.528  0.00  0.00    +0.210 HD
ENDBRANCH   8  14
ENDBRANCH   1   6
BRANCH   1  16
ATOM     16  O   UNL     1     -35.949  27.413   2.881  0.00  0.00    -0.384 OA
ATOM     17  H   UNL     1     -36.460  28.130   3.290  0.00  0.00    +0.210 HD
ENDBRANCH   1  16
BRANCH   1  18
ATOM     18  C   UNL     1     -33.705  26.748   3.512  0.00  0.00    +0.059 C 
BRANCH  18  19
ATOM     19  C   UNL     1     -32.985  27.943   4.091  0.00  0.00    +0.013 C 
ATOM     20  C   UNL     1     -32.787  29.070   3.306  0.00  0.00    -0.023 C 
ATOM     21  C   UNL     1     -32.533  27.893   5.402  0.00  0.00    +0.163 C 
ATOM     22  C   UNL     1     -32.122  30.172   3.846  0.00  0.00    -0.001 C 
ATOM     23  C   UNL     1     -31.868  28.996   5.940  0.00  0.00    +0.167 C 
ATOM     24  C   UNL     1     -33.267  29.134   1.894  0.00  0.00    +0.031 C 
ATOM     25  C   UNL     1     -31.664  30.135   5.162  0.00  0.00    +0.039 C 
BRANCH  21  26
ATOM     26  O   UNL     1     -32.732  26.783   6.169  0.00  0.00    -0.503 OA
ATOM     27  H   UNL     1     -33.374  26.149   5.915  0.00  0.00    +0.292 HD
ENDBRANCH  21  26
BRANCH  23  28
ATOM     28  O   UNL     1     -31.415  28.973   7.225  0.00  0.00    -0.503 OA
ATOM     29  H   UNL     1     -31.054  29.747   7.608  0.00  0.00    +0.292 HD
ENDBRANCH  23  28
ENDBRANCH  18  19
ENDBRANCH   1  18
TORSDOF 7
ENDMDL
MODEL 5
REMARK VINA RESULT:      -6.2      2.410      6.079
REMARK  Name = 195015
REMARK  7 active torsions:
REMARK  status: ('A' for Active; 'I' for Inactive)
REMARK    1  A    between atoms: C_1  and  C_6
REMARK    2  A    between atoms: C_1  and  O_16
REMARK    3  A    between atoms: C_1  and  C_18
REMARK    4  A    between atoms: C_8  and  O_14
REMARK    5  A    between atoms: C_18  and  C_19
REMARK    6  A    between atoms: C_21  and  O_26
REMARK    7  A    between atoms: C_23  and  O_28
REMARK                            x       y       z     vdW  Elec       q    Type
REMARK                         _______ _______ _______ _____ _____    ______ ____
ROOT
ATOM      1  C   UNL     1     -36.208  24.304   1.500  0.00  0.00    +0.122 C 
ENDROOT
BRANCH   1   6
ATOM      2  O   UNL     1     -38.787  19.233  -0.441  0.00  0.00    -0.296 OA
ATOM      3  O   UNL     1     -38.283  24.291   3.362  0.00  0.00    -0.296 OA
ATOM      4  C   UNL     1     -38.705  21.562   0.267  0.00  0.00    +0.077 C 
ATOM      5  C   UNL     1     -37.360  22.212   0.670  0.00  0.00    +0.019 C 
ATOM      6  C   UNL     1     -37.539  23.651   1.142  0.00  0.00    +0.085 C 
ATOM      7  C   UNL     1     -36.431  21.923  -0.506  0.00  0.00    +0.009 C 
ATOM      8  C   UNL     1     -39.526  21.404   1.554  0.00  0.00    +0.124 C 
ATOM      9  C   UNL     1     -38.158  20.278  -0.336  0.00  0.00    +0.152 C 
ATOM     10  C   UNL     1     -36.733  20.454  -0.828  0.00  0.00    +0.065 C 
ATOM     11  C   UNL     1     -39.742  22.760   2.243  0.00  0.00    +0.094 C 
ATOM     12  C   UNL     1     -38.476  23.602   2.359  0.00  0.00    +0.155 C 
ATOM     13  C   UNL     1     -39.479  22.280  -0.855  0.00  0.00    +0.010 C 
BRANCH   8  14
ATOM     14  O   UNL     1     -40.793  20.805   1.294  0.00  0.00    -0.384 OA
ATOM     15  H   UNL     1     -40.992  20.869   0.346  0.00  0.00    +0.210 HD
ENDBRANCH   8  14
ENDBRANCH   1   6
BRANCH   1  16
ATOM     16  O   UNL     1     -35.738  25.017   0.358  0.00  0.00    -0.384 OA
ATOM     17  H   UNL     1     -35.052  24.496  -0.089  0.00  0.00    +0.210 HD
ENDBRANCH   1  16
BRANCH   1  18
ATOM     18  C   UNL     1     -35.173  23.257   1.927  0.00  0.00    +0.059 C 
BRANCH  18  19
ATOM     19  C   UNL     1     -35.112  23.098   3.428  0.00  0.00    +0.013 C 
ATOM     20  C   UNL     1     -34.743  24.179   4.216  0.00  0.00    -0.023 C 
ATOM     21  C   UNL     1     -35.428  21.871   3.994  0.00  0.00    +0.163 C 
ATOM     22  C   UNL     1     -34.690  24.028   5.602  0.00  0.00    -0.001 C 
ATOM     23  C   UNL     1     -35.374  21.722   5.380  0.00  0.00    +0.167 C 
ATOM     24  C   UNL     1     -34.399  25.503   3.618  0.00  0.00    +0.031 C 
ATOM     25  C   UNL     1     -35.005  22.801   6.184  0.00  0.00    +0.039 C 
BRANCH  21  26
ATOM     26  O   UNL     1     -35.792  20.814   3.213  0.00  0.00    -0.503 OA
ATOM     27  H   UNL     1     -35.826  19.952   3.580  0.00  0.00    +0.292 HD
ENDBRANCH  21  26
BRANCH  23  28
ATOM     28  O   UNL     1     -35.680  20.528   5.961  0.00  0.00    -0.503 OA
ATOM     29  H   UNL     1     -35.952  19.806   5.431  0.00  0.00    +0.292 HD
ENDBRANCH  23  28
ENDBRANCH  18  19
ENDBRANCH   1  18
TORSDOF 7
ENDMDL
MODEL 6
REMARK VINA RESULT:      -6.0      2.783      4.444
REMARK  Name = 195015
REMARK  7 active torsions:
REMARK  status: ('A' for Active; 'I' for Inactive)
REMARK    1  A    between atoms: C_1  and  C_6
REMARK    2  A    between atoms: C_1  and  O_16
REMARK    3  A    between atoms: C_1  and  C_18
REMARK    4  A    between atoms: C_8  and  O_14
REMARK    5  A    between atoms: C_18  and  C_19
REMARK    6  A    between atoms: C_21  and  O_26
REMARK    7  A    between atoms: C_23  and  O_28
REMARK                            x       y       z     vdW  Elec       q    Type
REMARK                         _______ _______ _______ _____ _____    ______ ____
ROOT
ATOM      1  C   UNL     1     -34.188  26.913   3.504  0.00  0.00    +0.122 C 
ENDROOT
BRANCH   1   6
ATOM      2  O   UNL     1     -30.630  31.466   5.164  0.00  0.00    -0.296 OA
ATOM      3  O   UNL     1     -34.204  26.329   6.230  0.00  0.00    -0.296 OA
ATOM      4  C   UNL     1     -31.398  29.156   5.074  0.00  0.00    +0.077 C 
ATOM      5  C   UNL     1     -32.640  28.775   4.233  0.00  0.00    +0.019 C 
ATOM      6  C   UNL     1     -32.989  27.296   4.366  0.00  0.00    +0.085 C 
ATOM      7  C   UNL     1     -32.353  29.352   2.850  0.00  0.00    +0.009 C 
ATOM      8  C   UNL     1     -31.803  29.027   6.549  0.00  0.00    +0.124 C 
ATOM      9  C   UNL     1     -31.208  30.573   4.556  0.00  0.00    +0.152 C 
ATOM     10  C   UNL     1     -31.797  30.746   3.168  0.00  0.00    +0.065 C 
ATOM     11  C   UNL     1     -32.283  27.603   6.868  0.00  0.00    +0.094 C 
ATOM     12  C   UNL     1     -33.273  27.042   5.854  0.00  0.00    +0.155 C 
ATOM     13  C   UNL     1     -30.107  28.387   4.736  0.00  0.00    +0.010 C 
BRANCH   8  14
ATOM     14  O   UNL     1     -30.723  29.364   7.416  0.00  0.00    -0.384 OA
ATOM     15  H   UNL     1     -31.076  29.702   8.254  0.00  0.00    +0.210 HD
ENDBRANCH   8  14
ENDBRANCH   1   6
BRANCH   1  16
ATOM     16  O   UNL     1     -35.322  27.641   3.968  0.00  0.00    -0.384 OA
ATOM     17  H   UNL     1     -36.126  27.279   3.563  0.00  0.00    +0.210 HD
ENDBRANCH   1  16
BRANCH   1  18
ATOM     18  C   UNL     1     -34.464  25.407   3.577  0.00  0.00    +0.059 C 
BRANCH  18  19
ATOM     19  C   UNL     1     -35.804  25.047   2.980  0.00  0.00    +0.013 C 
ATOM     20  C   UNL     1     -35.879  24.652   1.652  0.00  0.00    -0.023 C 
ATOM     21  C   UNL     1     -36.941  25.115   3.773  0.00  0.00    +0.163 C 
ATOM     22  C   UNL     1     -37.118  24.318   1.105  0.00  0.00    -0.001 C 
ATOM     23  C   UNL     1     -38.180  24.781   3.225  0.00  0.00    +0.167 C 
ATOM     24  C   UNL     1     -34.663  24.577   0.788  0.00  0.00    +0.031 C 
ATOM     25  C   UNL     1     -38.268  24.382   1.891  0.00  0.00    +0.039 C 
BRANCH  21  26
ATOM     26  O   UNL     1     -36.861  25.502   5.078  0.00  0.00    -0.503 OA
ATOM     27  H   UNL     1     -36.049  25.820   5.422  0.00  0.00    +0.292 HD
ENDBRANCH  21  26
BRANCH  23  28
ATOM     28  O   UNL     1     -39.311  24.839   3.982  0.00  0.00    -0.503 OA
ATOM     29  H   UNL     1     -39.930  25.529   3.846  0.00  0.00    +0.292 HD
ENDBRANCH  23  28
ENDBRANCH  18  19
ENDBRANCH   1  18
TORSDOF 7
ENDMDL
MODEL 7
REMARK VINA RESULT:      -6.0      2.658      7.442
REMARK  Name = 195015
REMARK  7 active torsions:
REMARK  status: ('A' for Active; 'I' for Inactive)
REMARK    1  A    between atoms: C_1  and  C_6
REMARK    2  A    between atoms: C_1  and  O_16
REMARK    3  A    between atoms: C_1  and  C_18
REMARK    4  A    between atoms: C_8  and  O_14
REMARK    5  A    between atoms: C_18  and  C_19
REMARK    6  A    between atoms: C_21  and  O_26
REMARK    7  A    between atoms: C_23  and  O_28
REMARK                            x       y       z     vdW  Elec       q    Type
REMARK                         _______ _______ _______ _____ _____    ______ ____
ROOT
ATOM      1  C   UNL     1     -35.760  20.652   1.902  0.00  0.00    +0.122 C 
ENDROOT
BRANCH   1   6
ATOM      2  O   UNL     1     -32.767  16.236  -0.869  0.00  0.00    -0.296 OA
ATOM      3  O   UNL     1     -37.881  19.811   0.299  0.00  0.00    -0.296 OA
ATOM      4  C   UNL     1     -34.193  18.204  -0.712  0.00  0.00    +0.077 C 
ATOM      5  C   UNL     1     -34.516  18.830   0.666  0.00  0.00    +0.019 C 
ATOM      6  C   UNL     1     -35.475  20.010   0.548  0.00  0.00    +0.085 C 
ATOM      7  C   UNL     1     -33.152  19.041   1.317  0.00  0.00    +0.009 C 
ATOM      8  C   UNL     1     -35.486  17.550  -1.217  0.00  0.00    +0.124 C 
ATOM      9  C   UNL     1     -33.093  17.252  -0.269  0.00  0.00    +0.152 C 
ATOM     10  C   UNL     1     -32.416  17.732   1.002  0.00  0.00    +0.065 C 
ATOM     11  C   UNL     1     -36.623  18.578  -1.320  0.00  0.00    +0.094 C 
ATOM     12  C   UNL     1     -36.764  19.469  -0.091  0.00  0.00    +0.155 C 
ATOM     13  C   UNL     1     -33.561  19.160  -1.742  0.00  0.00    +0.010 C 
BRANCH   8  14
ATOM     14  O   UNL     1     -35.295  16.934  -2.488  0.00  0.00    -0.384 OA
ATOM     15  H   UNL     1     -35.980  17.242  -3.103  0.00  0.00    +0.210 HD
ENDBRANCH   8  14
ENDBRANCH   1   6
BRANCH   1  16
ATOM     16  O   UNL     1     -36.661  19.809   2.615  0.00  0.00    -0.384 OA
ATOM     17  H   UNL     1     -36.157  19.185   3.160  0.00  0.00    +0.210 HD
ENDBRANCH   1  16
BRANCH   1  18
ATOM     18  C   UNL     1     -36.368  22.049   1.736  0.00  0.00    +0.059 C 
BRANCH  18  19
ATOM     19  C   UNL     1     -35.558  23.108   2.446  0.00  0.00    +0.013 C 
ATOM     20  C   UNL     1     -34.718  23.934   1.713  0.00  0.00    -0.023 C 
ATOM     21  C   UNL     1     -35.670  23.239   3.823  0.00  0.00    +0.163 C 
ATOM     22  C   UNL     1     -33.973  24.912   2.373  0.00  0.00    -0.001 C 
ATOM     23  C   UNL     1     -34.924  24.217   4.482  0.00  0.00    +0.167 C 
ATOM     24  C   UNL     1     -34.588  23.802   0.232  0.00  0.00    +0.031 C 
ATOM     25  C   UNL     1     -34.076  25.054   3.756  0.00  0.00    +0.039 C 
BRANCH  21  26
ATOM     26  O   UNL     1     -36.499  22.425   4.538  0.00  0.00    -0.503 OA
ATOM     27  H   UNL     1     -36.181  21.992   5.305  0.00  0.00    +0.292 HD
ENDBRANCH  21  26
BRANCH  23  28
ATOM     28  O   UNL     1     -35.016  24.366   5.833  0.00  0.00    -0.503 OA
ATOM     29  H   UNL     1     -34.539  23.794   6.400  0.00  0.00    +0.292 HD
ENDBRANCH  23  28
ENDBRANCH  18  19
ENDBRANCH   1  18
TORSDOF 7
ENDMDL
MODEL 8
REMARK VINA RESULT:      -6.0      2.115      6.187
REMARK  Name = 195015
REMARK  7 active torsions:
REMARK  status: ('A' for Active; 'I' for Inactive)
REMARK    1  A    between atoms: C_1  and  C_6
REMARK    2  A    between atoms: C_1  and  O_16
REMARK    3  A    between atoms: C_1  and  C_18
REMARK    4  A    between atoms: C_8  and  O_14
REMARK    5  A    between atoms: C_18  and  C_19
REMARK    6  A    between atoms: C_21  and  O_26
REMARK    7  A    between atoms: C_23  and  O_28
REMARK                            x       y       z     vdW  Elec       q    Type
REMARK                         _______ _______ _______ _____ _____    ______ ____
ROOT
ATOM      1  C   UNL     1     -33.960  26.163   2.779  0.00  0.00    +0.122 C 
ENDROOT
BRANCH   1   6
ATOM      2  O   UNL     1     -35.552  20.369   2.964  0.00  0.00    -0.296 OA
ATOM      3  O   UNL     1     -34.002  25.951   5.559  0.00  0.00    -0.296 OA
ATOM      4  C   UNL     1     -35.668  22.732   3.544  0.00  0.00    +0.077 C 
ATOM      5  C   UNL     1     -34.695  23.746   2.898  0.00  0.00    +0.019 C 
ATOM      6  C   UNL     1     -34.892  25.156   3.446  0.00  0.00    +0.085 C 
ATOM      7  C   UNL     1     -34.832  23.503   1.398  0.00  0.00    +0.009 C 
ATOM      8  C   UNL     1     -35.255  22.592   5.016  0.00  0.00    +0.124 C 
ATOM      9  C   UNL     1     -35.368  21.538   2.651  0.00  0.00    +0.152 C 
ATOM     10  C   UNL     1     -34.834  21.972   1.298  0.00  0.00    +0.065 C 
ATOM     11  C   UNL     1     -35.301  23.950   5.734  0.00  0.00    +0.094 C 
ATOM     12  C   UNL     1     -34.635  25.081   4.959  0.00  0.00    +0.155 C 
ATOM     13  C   UNL     1     -37.166  23.046   3.368  0.00  0.00    +0.010 C 
BRANCH   8  14
ATOM     14  O   UNL     1     -36.093  21.669   5.706  0.00  0.00    -0.384 OA
ATOM     15  H   UNL     1     -36.695  22.154   6.292  0.00  0.00    +0.210 HD
ENDBRANCH   8  14
ENDBRANCH   1   6
BRANCH   1  16
ATOM     16  O   UNL     1     -32.632  25.910   3.231  0.00  0.00    -0.384 OA
ATOM     17  H   UNL     1     -32.247  25.186   2.713  0.00  0.00    +0.210 HD
ENDBRANCH   1  16
BRANCH   1  18
ATOM     18  C   UNL     1     -34.364  27.602   3.118  0.00  0.00    +0.059 C 
BRANCH  18  19
ATOM     19  C   UNL     1     -34.920  28.333   1.918  0.00  0.00    +0.013 C 
ATOM     20  C   UNL     1     -34.074  29.102   1.132  0.00  0.00    -0.023 C 
ATOM     21  C   UNL     1     -36.271  28.221   1.621  0.00  0.00    +0.163 C 
ATOM     22  C   UNL     1     -34.591  29.774   0.024  0.00  0.00    -0.001 C 
ATOM     23  C   UNL     1     -36.787  28.893   0.512  0.00  0.00    +0.167 C 
ATOM     24  C   UNL     1     -32.619  29.231   1.443  0.00  0.00    +0.031 C 
ATOM     25  C   UNL     1     -35.946  29.669  -0.286  0.00  0.00    +0.039 C 
BRANCH  21  26
ATOM     26  O   UNL     1     -37.097  27.462   2.396  0.00  0.00    -0.503 OA
ATOM     27  H   UNL     1     -37.674  27.875   3.008  0.00  0.00    +0.292 HD
ENDBRANCH  21  26
BRANCH  23  28
ATOM     28  O   UNL     1     -38.109  28.800   0.198  0.00  0.00    -0.503 OA
ATOM     29  H   UNL     1     -38.674  28.256   0.710  0.00  0.00    +0.292 HD
ENDBRANCH  23  28
ENDBRANCH  18  19
ENDBRANCH   1  18
TORSDOF 7
ENDMDL
MODEL 9
REMARK VINA RESULT:      -5.9      1.722      6.385
REMARK  Name = 195015
REMARK  7 active torsions:
REMARK  status: ('A' for Active; 'I' for Inactive)
REMARK    1  A    between atoms: C_1  and  C_6
REMARK    2  A    between atoms: C_1  and  O_16
REMARK    3  A    between atoms: C_1  and  C_18
REMARK    4  A    between atoms: C_8  and  O_14
REMARK    5  A    between atoms: C_18  and  C_19
REMARK    6  A    between atoms: C_21  and  O_26
REMARK    7  A    between atoms: C_23  and  O_28
REMARK                            x       y       z     vdW  Elec       q    Type
REMARK                         _______ _______ _______ _____ _____    ______ ____
ROOT
ATOM      1  C   UNL     1     -35.997  24.274   3.582  0.00  0.00    +0.122 C 
ENDROOT
BRANCH   1   6
ATOM      2  O   UNL     1     -36.958  19.015   0.833  0.00  0.00    -0.296 OA
ATOM      3  O   UNL     1     -38.780  24.380   3.695  0.00  0.00    -0.296 OA
ATOM      4  C   UNL     1     -37.252  21.396   1.254  0.00  0.00    +0.077 C 
ATOM      5  C   UNL     1     -36.443  22.100   2.369  0.00  0.00    +0.019 C 
ATOM      6  C   UNL     1     -36.824  23.571   2.510  0.00  0.00    +0.085 C 
ATOM      7  C   UNL     1     -34.991  21.731   2.077  0.00  0.00    +0.009 C 
ATOM      8  C   UNL     1     -38.708  21.332   1.732  0.00  0.00    +0.124 C 
ATOM      9  C   UNL     1     -36.497  20.076   1.234  0.00  0.00    +0.152 C 
ATOM     10  C   UNL     1     -35.078  20.235   1.749  0.00  0.00    +0.065 C 
ATOM     11  C   UNL     1     -39.257  22.737   2.023  0.00  0.00    +0.094 C 
ATOM     12  C   UNL     1     -38.321  23.608   2.853  0.00  0.00    +0.155 C 
ATOM     13  C   UNL     1     -37.108  22.005  -0.154  0.00  0.00    +0.010 C 
BRANCH   8  14
ATOM     14  O   UNL     1     -39.544  20.691   0.773  0.00  0.00    -0.384 OA
ATOM     15  H   UNL     1     -39.784  21.325   0.078  0.00  0.00    +0.210 HD
ENDBRANCH   8  14
ENDBRANCH   1   6
BRANCH   1  16
ATOM     16  O   UNL     1     -36.434  23.814   4.857  0.00  0.00    -0.384 OA
ATOM     17  H   UNL     1     -35.791  24.078   5.534  0.00  0.00    +0.210 HD
ENDBRANCH   1  16
BRANCH   1  18
ATOM     18  C   UNL     1     -36.152  25.796   3.492  0.00  0.00    +0.059 C 
BRANCH  18  19
ATOM     19  C   UNL     1     -34.817  26.503   3.475  0.00  0.00    +0.013 C 
ATOM     20  C   UNL     1     -34.292  26.948   2.270  0.00  0.00    -0.023 C 
ATOM     21  C   UNL     1     -34.138  26.698   4.669  0.00  0.00    +0.163 C 
ATOM     22  C   UNL     1     -33.060  27.602   2.260  0.00  0.00    -0.001 C 
ATOM     23  C   UNL     1     -32.905  27.352   4.658  0.00  0.00    +0.167 C 
ATOM     24  C   UNL     1     -35.013  26.743   0.979  0.00  0.00    +0.031 C 
ATOM     25  C   UNL     1     -32.367  27.804   3.453  0.00  0.00    +0.039 C 
BRANCH  21  26
ATOM     26  O   UNL     1     -34.660  26.260   5.850  0.00  0.00    -0.503 OA
ATOM     27  H   UNL     1     -34.143  25.726   6.421  0.00  0.00    +0.292 HD
ENDBRANCH  21  26
BRANCH  23  28
ATOM     28  O   UNL     1     -32.218  27.556   5.816  0.00  0.00    -0.503 OA
ATOM     29  H   UNL     1     -32.029  26.834   6.382  0.00  0.00    +0.292 HD
ENDBRANCH  23  28
ENDBRANCH  18  19
ENDBRANCH   1  18
TORSDOF 7
ENDMDL
