MODEL 1
REMARK VINA RESULT:      -6.7      0.000      0.000
REMARK  Name = 5491648
REMARK  3 active torsions:
REMARK  status: ('A' for Active; 'I' for Inactive)
REMARK    1  A    between atoms: C_11  and  O_19
REMARK    2  A    between atoms: C_17  and  O_21
REMARK    3  A    between atoms: C_18  and  O_23
REMARK                            x       y       z     vdW  Elec       q    Type
REMARK                         _______ _______ _______ _____ _____    ______ ____
ROOT
ATOM      1  O   UNL     1     -33.705  25.171   5.631  0.00  0.00    -0.453 OA
ATOM      2  O   UNL     1     -33.795  27.801   2.507  0.00  0.00    -0.421 OA
ATOM      3  O   UNL     1     -34.972  26.210   1.313  0.00  0.00    -0.244 OA
ATOM      4  C   UNL     1     -34.330  25.669   3.515  0.00  0.00    +0.114 A 
ATOM      5  C   UNL     1     -33.688  26.099   4.649  0.00  0.00    +0.157 A 
ATOM      6  C   UNL     1     -34.790  24.360   3.804  0.00  0.00    +0.044 A 
ATOM      7  C   UNL     1     -33.058  27.377   4.820  0.00  0.00    +0.103 A 
ATOM      8  C   UNL     1     -34.381  24.100   5.115  0.00  0.00    +0.149 A 
ATOM      9  C   UNL     1     -33.131  28.225   3.704  0.00  0.00    +0.158 A 
ATOM     10  C   UNL     1     -34.413  26.530   2.356  0.00  0.00    +0.349 A 
ATOM     11  C   UNL     1     -32.409  27.810   5.971  0.00  0.00    +0.143 C 
ATOM     12  C   UNL     1     -35.504  23.362   3.116  0.00  0.00    +0.006 C 
ATOM     13  C   UNL     1     -34.638  22.907   5.788  0.00  0.00    +0.074 C 
ATOM     14  C   UNL     1     -32.567  29.496   3.717  0.00  0.00    +0.074 C 
ATOM     15  C   UNL     1     -31.838  29.087   5.994  0.00  0.00    +0.073 C 
ATOM     16  C   UNL     1     -35.774  22.153   3.770  0.00  0.00    +0.037 C 
ATOM     17  C   UNL     1     -35.349  21.932   5.083  0.00  0.00    +0.137 C 
ATOM     18  C   UNL     1     -31.917  29.924   4.874  0.00  0.00    +0.140 C 
ENDROOT
BRANCH  11  19
ATOM     19  O   UNL     1     -32.305  27.032   7.084  0.00  0.00    -0.505 OA
ATOM     20  H   UNL     1     -32.252  27.430   7.930  0.00  0.00    +0.292 HD
ENDBRANCH  11  19
BRANCH  17  21
ATOM     21  O   UNL     1     -35.630  20.741   5.687  0.00  0.00    -0.505 OA
ATOM     22  H   UNL     1     -36.520  20.491   5.837  0.00  0.00    +0.292 HD
ENDBRANCH  17  21
BRANCH  18  23
ATOM     23  O   UNL     1     -31.356  31.165   4.917  0.00  0.00    -0.505 OA
ATOM     24  H   UNL     1     -30.820  31.461   4.208  0.00  0.00    +0.292 HD
ENDBRANCH  18  23
TORSDOF 3
ENDMDL
MODEL 2
REMARK VINA RESULT:      -6.3      3.621      5.163
REMARK  Name = 5491648
REMARK  3 active torsions:
REMARK  status: ('A' for Active; 'I' for Inactive)
REMARK    1  A    between atoms: C_11  and  O_19
REMARK    2  A    between atoms: C_17  and  O_21
REMARK    3  A    between atoms: C_18  and  O_23
REMARK                            x       y       z     vdW  Elec       q    Type
REMARK                         _______ _______ _______ _____ _____    ______ ____
ROOT
ATOM      1  O   UNL     1     -37.916  22.883   3.086  0.00  0.00    -0.453 OA
ATOM      2  O   UNL     1     -36.639  26.732   2.603  0.00  0.00    -0.421 OA
ATOM      3  O   UNL     1     -38.042  26.878   0.772  0.00  0.00    -0.244 OA
ATOM      4  C   UNL     1     -37.985  24.835   1.945  0.00  0.00    +0.114 A 
ATOM      5  C   UNL     1     -37.441  24.144   2.999  0.00  0.00    +0.157 A 
ATOM      6  C   UNL     1     -38.879  23.934   1.314  0.00  0.00    +0.044 A 
ATOM      7  C   UNL     1     -36.475  24.660   3.926  0.00  0.00    +0.103 A 
ATOM      8  C   UNL     1     -38.801  22.749   2.052  0.00  0.00    +0.149 A 
ATOM      9  C   UNL     1     -36.086  25.989   3.695  0.00  0.00    +0.158 A 
ATOM     10  C   UNL     1     -37.594  26.204   1.693  0.00  0.00    +0.349 A 
ATOM     11  C   UNL     1     -35.924  23.959   4.993  0.00  0.00    +0.143 C 
ATOM     12  C   UNL     1     -39.747  23.976   0.207  0.00  0.00    +0.006 C 
ATOM     13  C   UNL     1     -39.533  21.600   1.759  0.00  0.00    +0.074 C 
ATOM     14  C   UNL     1     -35.157  26.628   4.511  0.00  0.00    +0.074 C 
ATOM     15  C   UNL     1     -34.990  24.593   5.819  0.00  0.00    +0.073 C 
ATOM     16  C   UNL     1     -40.494  22.833  -0.108  0.00  0.00    +0.037 C 
ATOM     17  C   UNL     1     -40.388  21.668   0.655  0.00  0.00    +0.137 C 
ATOM     18  C   UNL     1     -34.609  25.919   5.579  0.00  0.00    +0.140 C 
ENDROOT
BRANCH  11  19
ATOM     19  O   UNL     1     -36.262  22.668   5.266  0.00  0.00    -0.505 OA
ATOM     20  H   UNL     1     -37.150  22.449   5.470  0.00  0.00    +0.292 HD
ENDBRANCH  11  19
BRANCH  17  21
ATOM     21  O   UNL     1     -41.130  20.575   0.316  0.00  0.00    -0.505 OA
ATOM     22  H   UNL     1     -40.706  19.797   0.010  0.00  0.00    +0.292 HD
ENDBRANCH  17  21
BRANCH  18  23
ATOM     23  O   UNL     1     -33.698  26.519   6.394  0.00  0.00    -0.505 OA
ATOM     24  H   UNL     1     -32.794  26.544   6.149  0.00  0.00    +0.292 HD
ENDBRANCH  18  23
TORSDOF 3
ENDMDL
MODEL 3
REMARK VINA RESULT:      -6.2      1.366      6.031
REMARK  Name = 5491648
REMARK  3 active torsions:
REMARK  status: ('A' for Active; 'I' for Inactive)
REMARK    1  A    between atoms: C_11  and  O_19
REMARK    2  A    between atoms: C_17  and  O_21
REMARK    3  A    between atoms: C_18  and  O_23
REMARK                            x       y       z     vdW  Elec       q    Type
REMARK                         _______ _______ _______ _____ _____    ______ ____
ROOT
ATOM      1  O   UNL     1     -33.738  25.535   5.665  0.00  0.00    -0.453 OA
ATOM      2  O   UNL     1     -34.528  24.976   1.697  0.00  0.00    -0.421 OA
ATOM      3  O   UNL     1     -33.517  27.016   1.297  0.00  0.00    -0.244 OA
ATOM      4  C   UNL     1     -33.625  26.270   3.529  0.00  0.00    +0.114 A 
ATOM      5  C   UNL     1     -34.038  25.271   4.375  0.00  0.00    +0.157 A 
ATOM      6  C   UNL     1     -33.014  27.246   4.355  0.00  0.00    +0.044 A 
ATOM      7  C   UNL     1     -34.713  24.068   3.980  0.00  0.00    +0.103 A 
ATOM      8  C   UNL     1     -33.108  26.749   5.657  0.00  0.00    +0.149 A 
ATOM      9  C   UNL     1     -34.948  23.948   2.601  0.00  0.00    +0.158 A 
ATOM     10  C   UNL     1     -33.861  26.162   2.107  0.00  0.00    +0.349 A 
ATOM     11  C   UNL     1     -35.130  23.057   4.838  0.00  0.00    +0.143 C 
ATOM     12  C   UNL     1     -32.390  28.493   4.159  0.00  0.00    +0.006 C 
ATOM     13  C   UNL     1     -32.621  27.412   6.782  0.00  0.00    +0.074 C 
ATOM     14  C   UNL     1     -35.592  22.837   2.067  0.00  0.00    +0.074 C 
ATOM     15  C   UNL     1     -35.779  21.936   4.310  0.00  0.00    +0.073 C 
ATOM     16  C   UNL     1     -31.893  29.181   5.274  0.00  0.00    +0.037 C 
ATOM     17  C   UNL     1     -32.007  28.648   6.561  0.00  0.00    +0.137 C 
ATOM     18  C   UNL     1     -36.009  21.827   2.933  0.00  0.00    +0.140 C 
ENDROOT
BRANCH  11  19
ATOM     19  O   UNL     1     -34.930  23.117   6.184  0.00  0.00    -0.505 OA
ATOM     20  H   UNL     1     -35.652  23.288   6.757  0.00  0.00    +0.292 HD
ENDBRANCH  11  19
BRANCH  17  21
ATOM     21  O   UNL     1     -31.511  29.348   7.622  0.00  0.00    -0.505 OA
ATOM     22  H   UNL     1     -31.527  28.971   8.480  0.00  0.00    +0.292 HD
ENDBRANCH  17  21
BRANCH  18  23
ATOM     23  O   UNL     1     -36.641  20.727   2.438  0.00  0.00    -0.505 OA
ATOM     24  H   UNL     1     -36.689  20.591   1.512  0.00  0.00    +0.292 HD
ENDBRANCH  18  23
TORSDOF 3
ENDMDL
MODEL 4
REMARK VINA RESULT:      -6.2      3.636      5.800
REMARK  Name = 5491648
REMARK  3 active torsions:
REMARK  status: ('A' for Active; 'I' for Inactive)
REMARK    1  A    between atoms: C_11  and  O_19
REMARK    2  A    between atoms: C_17  and  O_21
REMARK    3  A    between atoms: C_18  and  O_23
REMARK                            x       y       z     vdW  Elec       q    Type
REMARK                         _______ _______ _______ _____ _____    ______ ____
ROOT
ATOM      1  O   UNL     1     -38.506  24.005   2.450  0.00  0.00    -0.453 OA
ATOM      2  O   UNL     1     -35.093  22.266   3.867  0.00  0.00    -0.421 OA
ATOM      3  O   UNL     1     -35.650  20.381   2.651  0.00  0.00    -0.244 OA
ATOM      4  C   UNL     1     -37.115  22.224   2.541  0.00  0.00    +0.114 A 
ATOM      5  C   UNL     1     -37.361  23.506   2.964  0.00  0.00    +0.157 A 
ATOM      6  C   UNL     1     -38.195  21.884   1.689  0.00  0.00    +0.044 A 
ATOM      7  C   UNL     1     -36.527  24.269   3.848  0.00  0.00    +0.103 A 
ATOM      8  C   UNL     1     -39.022  23.010   1.665  0.00  0.00    +0.149 A 
ATOM      9  C   UNL     1     -35.374  23.604   4.293  0.00  0.00    +0.158 A 
ATOM     10  C   UNL     1     -35.931  21.525   2.991  0.00  0.00    +0.349 A 
ATOM     11  C   UNL     1     -36.779  25.568   4.275  0.00  0.00    +0.143 C 
ATOM     12  C   UNL     1     -38.575  20.760   0.934  0.00  0.00    +0.006 C 
ATOM     13  C   UNL     1     -40.207  23.091   0.935  0.00  0.00    +0.074 C 
ATOM     14  C   UNL     1     -34.468  24.215   5.154  0.00  0.00    +0.074 C 
ATOM     15  C   UNL     1     -35.874  26.191   5.142  0.00  0.00    +0.073 C 
ATOM     16  C   UNL     1     -39.762  20.815   0.191  0.00  0.00    +0.037 C 
ATOM     17  C   UNL     1     -40.561  21.961   0.193  0.00  0.00    +0.137 C 
ATOM     18  C   UNL     1     -34.726  25.518   5.579  0.00  0.00    +0.140 C 
ENDROOT
BRANCH  11  19
ATOM     19  O   UNL     1     -37.881  26.263   3.879  0.00  0.00    -0.505 OA
ATOM     20  H   UNL     1     -37.922  26.625   3.016  0.00  0.00    +0.292 HD
ENDBRANCH  11  19
BRANCH  17  21
ATOM     21  O   UNL     1     -41.711  21.977  -0.541  0.00  0.00    -0.505 OA
ATOM     22  H   UNL     1     -41.911  21.262  -1.114  0.00  0.00    +0.292 HD
ENDBRANCH  17  21
BRANCH  18  23
ATOM     23  O   UNL     1     -33.857  26.141   6.422  0.00  0.00    -0.505 OA
ATOM     24  H   UNL     1     -33.577  27.017   6.243  0.00  0.00    +0.292 HD
ENDBRANCH  18  23
TORSDOF 3
ENDMDL
MODEL 5
REMARK VINA RESULT:      -6.1      2.077      6.645
REMARK  Name = 5491648
REMARK  3 active torsions:
REMARK  status: ('A' for Active; 'I' for Inactive)
REMARK    1  A    between atoms: C_11  and  O_19
REMARK    2  A    between atoms: C_17  and  O_21
REMARK    3  A    between atoms: C_18  and  O_23
REMARK                            x       y       z     vdW  Elec       q    Type
REMARK                         _______ _______ _______ _____ _____    ______ ____
ROOT
ATOM      1  O   UNL     1     -36.185  26.400   2.231  0.00  0.00    -0.453 OA
ATOM      2  O   UNL     1     -33.788  25.428   5.392  0.00  0.00    -0.421 OA
ATOM      3  O   UNL     1     -33.014  27.606   5.364  0.00  0.00    -0.244 OA
ATOM      4  C   UNL     1     -34.632  27.002   3.761  0.00  0.00    +0.114 A 
ATOM      5  C   UNL     1     -35.426  25.995   3.272  0.00  0.00    +0.157 A 
ATOM      6  C   UNL     1     -34.912  28.138   2.961  0.00  0.00    +0.044 A 
ATOM      7  C   UNL     1     -35.479  24.653   3.776  0.00  0.00    +0.103 A 
ATOM      8  C   UNL     1     -35.872  27.718   2.036  0.00  0.00    +0.149 A 
ATOM      9  C   UNL     1     -34.627  24.396   4.862  0.00  0.00    +0.158 A 
ATOM     10  C   UNL     1     -33.748  26.753   4.878  0.00  0.00    +0.349 A 
ATOM     11  C   UNL     1     -36.285  23.635   3.280  0.00  0.00    +0.143 C 
ATOM     12  C   UNL     1     -34.470  29.473   2.907  0.00  0.00    +0.006 C 
ATOM     13  C   UNL     1     -36.424  28.542   1.057  0.00  0.00    +0.074 C 
ATOM     14  C   UNL     1     -34.567  23.141   5.459  0.00  0.00    +0.074 C 
ATOM     15  C   UNL     1     -36.232  22.369   3.873  0.00  0.00    +0.073 C 
ATOM     16  C   UNL     1     -35.009  30.322   1.931  0.00  0.00    +0.037 C 
ATOM     17  C   UNL     1     -35.968  29.864   1.024  0.00  0.00    +0.137 C 
ATOM     18  C   UNL     1     -35.378  22.124   4.956  0.00  0.00    +0.140 C 
ENDROOT
BRANCH  11  19
ATOM     19  O   UNL     1     -37.130  23.824   2.228  0.00  0.00    -0.505 OA
ATOM     20  H   UNL     1     -36.863  23.583   1.363  0.00  0.00    +0.292 HD
ENDBRANCH  11  19
BRANCH  17  21
ATOM     21  O   UNL     1     -36.469  30.720   0.088  0.00  0.00    -0.505 OA
ATOM     22  H   UNL     1     -37.394  30.774  -0.050  0.00  0.00    +0.292 HD
ENDBRANCH  17  21
BRANCH  18  23
ATOM     23  O   UNL     1     -35.341  20.885   5.521  0.00  0.00    -0.505 OA
ATOM     24  H   UNL     1     -36.092  20.553   5.971  0.00  0.00    +0.292 HD
ENDBRANCH  18  23
TORSDOF 3
ENDMDL
MODEL 6
REMARK VINA RESULT:      -6.0      4.251      8.568
REMARK  Name = 5491648
REMARK  3 active torsions:
REMARK  status: ('A' for Active; 'I' for Inactive)
REMARK    1  A    between atoms: C_11  and  O_19
REMARK    2  A    between atoms: C_17  and  O_21
REMARK    3  A    between atoms: C_18  and  O_23
REMARK                            x       y       z     vdW  Elec       q    Type
REMARK                         _______ _______ _______ _____ _____    ______ ____
ROOT
ATOM      1  O   UNL     1     -38.101  23.400   2.241  0.00  0.00    -0.453 OA
ATOM      2  O   UNL     1     -36.490  19.760   1.325  0.00  0.00    -0.421 OA
ATOM      3  O   UNL     1     -34.887  20.158   2.943  0.00  0.00    -0.244 OA
ATOM      4  C   UNL     1     -36.522  21.819   2.593  0.00  0.00    +0.114 A 
ATOM      5  C   UNL     1     -37.633  22.187   1.876  0.00  0.00    +0.157 A 
ATOM      6  C   UNL     1     -36.266  22.891   3.484  0.00  0.00    +0.044 A 
ATOM      7  C   UNL     1     -38.261  21.405   0.850  0.00  0.00    +0.103 A 
ATOM      8  C   UNL     1     -37.262  23.837   3.230  0.00  0.00    +0.149 A 
ATOM      9  C   UNL     1     -37.650  20.168   0.592  0.00  0.00    +0.158 A 
ATOM     10  C   UNL     1     -35.880  20.548   2.339  0.00  0.00    +0.349 A 
ATOM     11  C   UNL     1     -39.388  21.779   0.125  0.00  0.00    +0.143 C 
ATOM     12  C   UNL     1     -35.311  23.176   4.478  0.00  0.00    +0.006 C 
ATOM     13  C   UNL     1     -37.372  25.053   3.902  0.00  0.00    +0.074 C 
ATOM     14  C   UNL     1     -38.145  19.299  -0.375  0.00  0.00    +0.074 C 
ATOM     15  C   UNL     1     -39.892  20.912  -0.850  0.00  0.00    +0.073 C 
ATOM     16  C   UNL     1     -35.399  24.393   5.168  0.00  0.00    +0.037 C 
ATOM     17  C   UNL     1     -36.412  25.312   4.884  0.00  0.00    +0.137 C 
ATOM     18  C   UNL     1     -39.275  19.681  -1.098  0.00  0.00    +0.140 C 
ENDROOT
BRANCH  11  19
ATOM     19  O   UNL     1     -40.022  22.967   0.329  0.00  0.00    -0.505 OA
ATOM     20  H   UNL     1     -40.134  23.567  -0.381  0.00  0.00    +0.292 HD
ENDBRANCH  11  19
BRANCH  17  21
ATOM     21  O   UNL     1     -36.464  26.487   5.577  0.00  0.00    -0.505 OA
ATOM     22  H   UNL     1     -37.101  26.603   6.254  0.00  0.00    +0.292 HD
ENDBRANCH  17  21
BRANCH  18  23
ATOM     23  O   UNL     1     -39.782  18.850  -2.051  0.00  0.00    -0.505 OA
ATOM     24  H   UNL     1     -40.633  18.474  -1.941  0.00  0.00    +0.292 HD
ENDBRANCH  18  23
TORSDOF 3
ENDMDL
MODEL 7
REMARK VINA RESULT:      -6.0      1.562      3.234
REMARK  Name = 5491648
REMARK  3 active torsions:
REMARK  status: ('A' for Active; 'I' for Inactive)
REMARK    1  A    between atoms: C_11  and  O_19
REMARK    2  A    between atoms: C_17  and  O_21
REMARK    3  A    between atoms: C_18  and  O_23
REMARK                            x       y       z     vdW  Elec       q    Type
REMARK                         _______ _______ _______ _____ _____    ______ ____
ROOT
ATOM      1  O   UNL     1     -34.487  25.034   2.376  0.00  0.00    -0.453 OA
ATOM      2  O   UNL     1     -33.177  27.912   4.961  0.00  0.00    -0.421 OA
ATOM      3  O   UNL     1     -33.590  26.430   6.685  0.00  0.00    -0.244 OA
ATOM      4  C   UNL     1     -34.052  25.707   4.490  0.00  0.00    +0.114 A 
ATOM      5  C   UNL     1     -34.040  26.039   3.159  0.00  0.00    +0.157 A 
ATOM      6  C   UNL     1     -34.549  24.382   4.553  0.00  0.00    +0.044 A 
ATOM      7  C   UNL     1     -33.610  27.296   2.615  0.00  0.00    +0.103 A 
ATOM      8  C   UNL     1     -34.802  24.013   3.229  0.00  0.00    +0.149 A 
ATOM      9  C   UNL     1     -33.174  28.233   3.565  0.00  0.00    +0.158 A 
ATOM     10  C   UNL     1     -33.607  26.662   5.482  0.00  0.00    +0.349 A 
ATOM     11  C   UNL     1     -33.599  27.630   1.265  0.00  0.00    +0.143 C 
ATOM     12  C   UNL     1     -34.816  23.447   5.571  0.00  0.00    +0.006 C 
ATOM     13  C   UNL     1     -35.304  22.769   2.850  0.00  0.00    +0.074 C 
ATOM     14  C   UNL     1     -32.728  29.496   3.190  0.00  0.00    +0.074 C 
ATOM     15  C   UNL     1     -33.152  28.898   0.878  0.00  0.00    +0.073 C 
ATOM     16  C   UNL     1     -35.323  22.189   5.215  0.00  0.00    +0.037 C 
ATOM     17  C   UNL     1     -35.561  21.859   3.879  0.00  0.00    +0.137 C 
ATOM     18  C   UNL     1     -32.719  29.824   1.835  0.00  0.00    +0.140 C 
ENDROOT
BRANCH  11  19
ATOM     19  O   UNL     1     -34.011  26.764   0.298  0.00  0.00    -0.505 OA
ATOM     20  H   UNL     1     -33.471  26.036   0.061  0.00  0.00    +0.292 HD
ENDBRANCH  11  19
BRANCH  17  21
ATOM     21  O   UNL     1     -36.056  20.625   3.572  0.00  0.00    -0.505 OA
ATOM     22  H   UNL     1     -36.867  20.340   3.944  0.00  0.00    +0.292 HD
ENDBRANCH  17  21
BRANCH  18  23
ATOM     23  O   UNL     1     -32.286  31.053   1.439  0.00  0.00    -0.505 OA
ATOM     24  H   UNL     1     -32.457  31.352   0.567  0.00  0.00    +0.292 HD
ENDBRANCH  18  23
TORSDOF 3
ENDMDL
MODEL 8
REMARK VINA RESULT:      -6.0      6.060      7.514
REMARK  Name = 5491648
REMARK  3 active torsions:
REMARK  status: ('A' for Active; 'I' for Inactive)
REMARK    1  A    between atoms: C_11  and  O_19
REMARK    2  A    between atoms: C_17  and  O_21
REMARK    3  A    between atoms: C_18  and  O_23
REMARK                            x       y       z     vdW  Elec       q    Type
REMARK                         _______ _______ _______ _____ _____    ______ ____
ROOT
ATOM      1  O   UNL     1     -34.266  19.563   1.480  0.00  0.00    -0.453 OA
ATOM      2  O   UNL     1     -34.711  23.356   0.030  0.00  0.00    -0.421 OA
ATOM      3  O   UNL     1     -32.588  23.171  -0.866  0.00  0.00    -0.244 OA
ATOM      4  C   UNL     1     -33.434  21.324   0.330  0.00  0.00    +0.114 A 
ATOM      5  C   UNL     1     -34.495  20.819   1.038  0.00  0.00    +0.157 A 
ATOM      6  C   UNL     1     -32.452  20.303   0.324  0.00  0.00    +0.044 A 
ATOM      7  C   UNL     1     -35.726  21.507   1.303  0.00  0.00    +0.103 A 
ATOM      8  C   UNL     1     -33.010  19.242   1.043  0.00  0.00    +0.149 A 
ATOM      9  C   UNL     1     -35.804  22.804   0.773  0.00  0.00    +0.158 A 
ATOM     10  C   UNL     1     -33.498  22.660  -0.222  0.00  0.00    +0.349 A 
ATOM     11  C   UNL     1     -36.800  20.993   2.021  0.00  0.00    +0.143 C 
ATOM     12  C   UNL     1     -31.156  20.145  -0.203  0.00  0.00    +0.006 C 
ATOM     13  C   UNL     1     -32.361  18.030   1.272  0.00  0.00    +0.074 C 
ATOM     14  C   UNL     1     -36.935  23.595   0.948  0.00  0.00    +0.074 C 
ATOM     15  C   UNL     1     -37.942  21.781   2.202  0.00  0.00    +0.073 C 
ATOM     16  C   UNL     1     -30.482  18.936   0.015  0.00  0.00    +0.037 C 
ATOM     17  C   UNL     1     -31.076  17.899   0.739  0.00  0.00    +0.137 C 
ATOM     18  C   UNL     1     -38.008  23.074   1.669  0.00  0.00    +0.140 C 
ENDROOT
BRANCH  11  19
ATOM     19  O   UNL     1     -36.783  19.742   2.560  0.00  0.00    -0.505 OA
ATOM     20  H   UNL     1     -37.579  19.349   2.858  0.00  0.00    +0.292 HD
ENDBRANCH  11  19
BRANCH  17  21
ATOM     21  O   UNL     1     -30.387  16.736   0.931  0.00  0.00    -0.505 OA
ATOM     22  H   UNL     1     -29.693  16.702   1.558  0.00  0.00    +0.292 HD
ENDBRANCH  17  21
BRANCH  18  23
ATOM     23  O   UNL     1     -39.129  23.825   1.855  0.00  0.00    -0.505 OA
ATOM     24  H   UNL     1     -39.819  23.803   1.221  0.00  0.00    +0.292 HD
ENDBRANCH  18  23
TORSDOF 3
ENDMDL
MODEL 9
REMARK VINA RESULT:      -6.0      4.080      7.318
REMARK  Name = 5491648
REMARK  3 active torsions:
REMARK  status: ('A' for Active; 'I' for Inactive)
REMARK    1  A    between atoms: C_11  and  O_19
REMARK    2  A    between atoms: C_17  and  O_21
REMARK    3  A    between atoms: C_18  and  O_23
REMARK                            x       y       z     vdW  Elec       q    Type
REMARK                         _______ _______ _______ _____ _____    ______ ____
ROOT
ATOM      1  O   UNL     1     -37.691  25.621   3.726  0.00  0.00    -0.453 OA
ATOM      2  O   UNL     1     -38.470  22.161   1.701  0.00  0.00    -0.421 OA
ATOM      3  O   UNL     1     -36.473  21.333   2.520  0.00  0.00    -0.244 OA
ATOM      4  C   UNL     1     -37.084  23.523   3.141  0.00  0.00    +0.114 A 
ATOM      5  C   UNL     1     -38.025  24.515   3.028  0.00  0.00    +0.157 A 
ATOM      6  C   UNL     1     -36.071  24.046   3.982  0.00  0.00    +0.044 A 
ATOM      7  C   UNL     1     -39.239  24.433   2.266  0.00  0.00    +0.103 A 
ATOM      8  C   UNL     1     -36.489  25.337   4.315  0.00  0.00    +0.149 A 
ATOM      9  C   UNL     1     -39.436  23.214   1.599  0.00  0.00    +0.158 A 
ATOM     10  C   UNL     1     -37.272  22.261   2.459  0.00  0.00    +0.349 A 
ATOM     11  C   UNL     1     -40.191  25.440   2.153  0.00  0.00    +0.143 C 
ATOM     12  C   UNL     1     -34.848  23.584   4.503  0.00  0.00    +0.006 C 
ATOM     13  C   UNL     1     -35.768  26.202   5.136  0.00  0.00    +0.074 C 
ATOM     14  C   UNL     1     -40.566  22.984   0.821  0.00  0.00    +0.074 C 
ATOM     15  C   UNL     1     -41.331  25.218   1.372  0.00  0.00    +0.073 C 
ATOM     16  C   UNL     1     -34.103  24.435   5.331  0.00  0.00    +0.037 C 
ATOM     17  C   UNL     1     -34.557  25.719   5.641  0.00  0.00    +0.137 C 
ATOM     18  C   UNL     1     -41.517  23.998   0.711  0.00  0.00    +0.140 C 
ENDROOT
BRANCH  11  19
ATOM     19  O   UNL     1     -40.054  26.643   2.776  0.00  0.00    -0.505 OA
ATOM     20  H   UNL     1     -40.188  26.710   3.700  0.00  0.00    +0.292 HD
ENDBRANCH  11  19
BRANCH  17  21
ATOM     21  O   UNL     1     -33.804  26.519   6.450  0.00  0.00    -0.505 OA
ATOM     22  H   UNL     1     -34.181  27.288   6.830  0.00  0.00    +0.292 HD
ENDBRANCH  17  21
BRANCH  18  23
ATOM     23  O   UNL     1     -42.634  23.801  -0.043  0.00  0.00    -0.505 OA
ATOM     24  H   UNL     1     -42.642  23.137  -0.704  0.00  0.00    +0.292 HD
ENDBRANCH  18  23
TORSDOF 3
ENDMDL
