MODEL 1
REMARK VINA RESULT:      -6.0      0.000      0.000
REMARK  Name = 5284586
REMARK  5 active torsions:
REMARK  status: ('A' for Active; 'I' for Inactive)
REMARK    1  A    between atoms: C_2  and  C_9
REMARK    2  A    between atoms: C_3  and  O_23
REMARK    3  A    between atoms: C_5  and  N_22
REMARK    4  A    between atoms: C_10  and  O_18
REMARK    5  A    between atoms: C_12  and  N_17
REMARK                            x       y       z     vdW  Elec       q    Type
REMARK                         _______ _______ _______ _____ _____    ______ ____
ROOT
ATOM      1 CL   UNL     1     -37.624  25.928  -1.451  0.00  0.00    -0.082 Cl
ATOM      2  C   UNL     1     -37.647  25.006   2.443  0.00  0.00    +0.039 C 
ATOM      3  C   UNL     1     -38.970  25.262   2.804  0.00  0.00    +0.156 C 
ATOM      4  C   UNL     1     -37.231  25.212   1.127  0.00  0.00    +0.015 C 
ATOM      5  C   UNL     1     -39.876  25.723   1.849  0.00  0.00    +0.177 C 
ATOM      6  C   UNL     1     -38.137  25.673   0.173  0.00  0.00    +0.060 C 
ATOM      7  C   UNL     1     -39.460  25.929   0.534  0.00  0.00    +0.039 C 
ENDROOT
BRANCH   2   9
ATOM      8 CL   UNL     1     -34.127  26.155   6.024  0.00  0.00    -0.082 Cl
ATOM      9  C   UNL     1     -36.688  24.526   3.418  0.00  0.00    +0.039 C 
ATOM     10  C   UNL     1     -36.489  23.160   3.616  0.00  0.00    +0.156 C 
ATOM     11  C   UNL     1     -35.957  25.453   4.162  0.00  0.00    +0.015 C 
ATOM     12  C   UNL     1     -35.561  22.720   4.560  0.00  0.00    +0.177 C 
ATOM     13  C   UNL     1     -35.029  25.012   5.105  0.00  0.00    +0.060 C 
ATOM     14  C   UNL     1     -34.831  23.646   5.305  0.00  0.00    +0.039 C 
BRANCH  12  17
ATOM     15  O   UNL     1     -35.215  20.580   3.784  0.00  0.00    -0.126 OA
ATOM     16  O   UNL     1     -35.292  20.909   5.957  0.00  0.00    -0.126 OA
ATOM     17  N   UNL     1     -35.345  21.331   4.778  0.00  0.00    +0.061 N 
ENDBRANCH  12  17
BRANCH  10  18
ATOM     18  O   UNL     1     -37.204  22.249   2.889  0.00  0.00    -0.504 OA
ATOM     19  H   UNL     1     -36.778  21.491   2.541  0.00  0.00    +0.292 HD
ENDBRANCH  10  18
ENDBRANCH   2   9
BRANCH   5  22
ATOM     20  O   UNL     1     -41.467  26.874   3.053  0.00  0.00    -0.126 OA
ATOM     21  O   UNL     1     -42.135  25.331   1.635  0.00  0.00    -0.126 OA
ATOM     22  N   UNL     1     -41.230  25.990   2.197  0.00  0.00    +0.061 N 
ENDBRANCH   5  22
BRANCH   3  23
ATOM     23  O   UNL     1     -39.381  25.061   4.091  0.00  0.00    -0.504 OA
ATOM     24  H   UNL     1     -39.818  25.748   4.557  0.00  0.00    +0.292 HD
ENDBRANCH   3  23
TORSDOF 5
ENDMDL
MODEL 2
REMARK VINA RESULT:      -5.8      2.614      3.013
REMARK  Name = 5284586
REMARK  5 active torsions:
REMARK  status: ('A' for Active; 'I' for Inactive)
REMARK    1  A    between atoms: C_2  and  C_9
REMARK    2  A    between atoms: C_3  and  O_23
REMARK    3  A    between atoms: C_5  and  N_22
REMARK    4  A    between atoms: C_10  and  O_18
REMARK    5  A    between atoms: C_12  and  N_17
REMARK                            x       y       z     vdW  Elec       q    Type
REMARK                         _______ _______ _______ _____ _____    ______ ____
ROOT
ATOM      1 CL   UNL     1     -37.560  24.192  -1.579  0.00  0.00    -0.082 Cl
ATOM      2  C   UNL     1     -37.513  24.512   2.408  0.00  0.00    +0.039 C 
ATOM      3  C   UNL     1     -38.847  24.794   2.702  0.00  0.00    +0.156 C 
ATOM      4  C   UNL     1     -37.114  24.327   1.084  0.00  0.00    +0.015 C 
ATOM      5  C   UNL     1     -39.783  24.888   1.673  0.00  0.00    +0.177 C 
ATOM      6  C   UNL     1     -38.050  24.422   0.055  0.00  0.00    +0.060 C 
ATOM      7  C   UNL     1     -39.384  24.702   0.349  0.00  0.00    +0.039 C 
ENDROOT
BRANCH   2   9
ATOM      8 CL   UNL     1     -35.088  21.521   5.830  0.00  0.00    -0.082 Cl
ATOM      9  C   UNL     1     -36.522  24.409   3.463  0.00  0.00    +0.039 C 
ATOM     10  C   UNL     1     -35.793  25.524   3.874  0.00  0.00    +0.156 C 
ATOM     11  C   UNL     1     -36.305  23.170   4.068  0.00  0.00    +0.015 C 
ATOM     12  C   UNL     1     -34.845  25.400   4.889  0.00  0.00    +0.177 C 
ATOM     13  C   UNL     1     -35.357  23.048   5.083  0.00  0.00    +0.060 C 
ATOM     14  C   UNL     1     -34.627  24.162   5.493  0.00  0.00    +0.039 C 
BRANCH  12  17
ATOM     15  O   UNL     1     -33.779  26.611   6.534  0.00  0.00    -0.126 OA
ATOM     16  O   UNL     1     -33.762  27.391   4.477  0.00  0.00    -0.126 OA
ATOM     17  N   UNL     1     -34.090  26.526   5.323  0.00  0.00    +0.061 N 
ENDBRANCH  12  17
BRANCH  10  18
ATOM     18  O   UNL     1     -36.003  26.738   3.283  0.00  0.00    -0.504 OA
ATOM     19  H   UNL     1     -36.096  27.506   3.812  0.00  0.00    +0.292 HD
ENDBRANCH  10  18
ENDBRANCH   2   9
BRANCH   5  22
ATOM     20  O   UNL     1     -41.416  26.083   2.772  0.00  0.00    -0.126 OA
ATOM     21  O   UNL     1     -42.033  24.507   1.367  0.00  0.00    -0.126 OA
ATOM     22  N   UNL     1     -41.148  25.174   1.952  0.00  0.00    +0.061 N 
ENDBRANCH   5  22
BRANCH   3  23
ATOM     23  O   UNL     1     -39.240  24.977   3.998  0.00  0.00    -0.504 OA
ATOM     24  H   UNL     1     -39.021  24.338   4.649  0.00  0.00    +0.292 HD
ENDBRANCH   3  23
TORSDOF 5
ENDMDL
MODEL 3
REMARK VINA RESULT:      -5.7      3.974      5.653
REMARK  Name = 5284586
REMARK  5 active torsions:
REMARK  status: ('A' for Active; 'I' for Inactive)
REMARK    1  A    between atoms: C_2  and  C_9
REMARK    2  A    between atoms: C_3  and  O_23
REMARK    3  A    between atoms: C_5  and  N_22
REMARK    4  A    between atoms: C_10  and  O_18
REMARK    5  A    between atoms: C_12  and  N_17
REMARK                            x       y       z     vdW  Elec       q    Type
REMARK                         _______ _______ _______ _____ _____    ______ ____
ROOT
ATOM      1 CL   UNL     1     -32.849  19.895  -0.801  0.00  0.00    -0.082 Cl
ATOM      2  C   UNL     1     -35.659  21.192   1.734  0.00  0.00    +0.039 C 
ATOM      3  C   UNL     1     -36.775  20.447   1.353  0.00  0.00    +0.156 C 
ATOM      4  C   UNL     1     -34.445  21.022   1.068  0.00  0.00    +0.015 C 
ATOM      5  C   UNL     1     -36.676  19.530   0.307  0.00  0.00    +0.177 C 
ATOM      6  C   UNL     1     -34.347  20.106   0.022  0.00  0.00    +0.060 C 
ATOM      7  C   UNL     1     -35.462  19.359  -0.359  0.00  0.00    +0.039 C 
ENDROOT
BRANCH   2   9
ATOM      8 CL   UNL     1     -35.240  22.095   6.789  0.00  0.00    -0.082 Cl
ATOM      9  C   UNL     1     -35.738  22.150   2.820  0.00  0.00    +0.039 C 
ATOM     10  C   UNL     1     -36.063  23.484   2.577  0.00  0.00    +0.156 C 
ATOM     11  C   UNL     1     -35.484  21.720   4.123  0.00  0.00    +0.015 C 
ATOM     12  C   UNL     1     -36.132  24.389   3.636  0.00  0.00    +0.177 C 
ATOM     13  C   UNL     1     -35.553  22.625   5.181  0.00  0.00    +0.060 C 
ATOM     14  C   UNL     1     -35.877  23.959   4.938  0.00  0.00    +0.039 C 
BRANCH  12  17
ATOM     15  O   UNL     1     -35.612  26.632   3.690  0.00  0.00    -0.126 OA
ATOM     16  O   UNL     1     -37.589  26.030   2.936  0.00  0.00    -0.126 OA
ATOM     17  N   UNL     1     -36.462  25.755   3.409  0.00  0.00    +0.061 N 
ENDBRANCH  12  17
BRANCH  10  18
ATOM     18  O   UNL     1     -36.312  23.909   1.302  0.00  0.00    -0.504 OA
ATOM     19  H   UNL     1     -36.989  23.502   0.797  0.00  0.00    +0.292 HD
ENDBRANCH  10  18
ENDBRANCH   2   9
BRANCH   5  22
ATOM     20  O   UNL     1     -38.875  19.352  -0.354  0.00  0.00    -0.126 OA
ATOM     21  O   UNL     1     -37.679  17.514  -0.180  0.00  0.00    -0.126 OA
ATOM     22  N   UNL     1     -37.802  18.759  -0.096  0.00  0.00    +0.061 N 
ENDBRANCH   5  22
BRANCH   3  23
ATOM     23  O   UNL     1     -37.965  20.611   2.004  0.00  0.00    -0.504 OA
ATOM     24  H   UNL     1     -38.739  20.196   1.677  0.00  0.00    +0.292 HD
ENDBRANCH   3  23
TORSDOF 5
ENDMDL
MODEL 4
REMARK VINA RESULT:      -5.7      2.893      6.644
REMARK  Name = 5284586
REMARK  5 active torsions:
REMARK  status: ('A' for Active; 'I' for Inactive)
REMARK    1  A    between atoms: C_2  and  C_9
REMARK    2  A    between atoms: C_3  and  O_23
REMARK    3  A    between atoms: C_5  and  N_22
REMARK    4  A    between atoms: C_10  and  O_18
REMARK    5  A    between atoms: C_12  and  N_17
REMARK                            x       y       z     vdW  Elec       q    Type
REMARK                         _______ _______ _______ _____ _____    ______ ____
ROOT
ATOM      1 CL   UNL     1     -35.491  22.059   6.296  0.00  0.00    -0.082 Cl
ATOM      2  C   UNL     1     -36.207  24.822   3.492  0.00  0.00    +0.039 C 
ATOM      3  C   UNL     1     -35.268  25.807   3.795  0.00  0.00    +0.156 C 
ATOM      4  C   UNL     1     -36.277  23.662   4.266  0.00  0.00    +0.015 C 
ATOM      5  C   UNL     1     -34.397  25.633   4.871  0.00  0.00    +0.177 C 
ATOM      6  C   UNL     1     -35.406  23.489   5.341  0.00  0.00    +0.060 C 
ATOM      7  C   UNL     1     -34.466  24.474   5.644  0.00  0.00    +0.039 C 
ENDROOT
BRANCH   2   9
ATOM      8 CL   UNL     1     -37.291  23.790  -1.437  0.00  0.00    -0.082 Cl
ATOM      9  C   UNL     1     -37.122  24.980   2.378  0.00  0.00    +0.039 C 
ATOM     10  C   UNL     1     -38.298  25.716   2.516  0.00  0.00    +0.156 C 
ATOM     11  C   UNL     1     -36.810  24.385   1.156  0.00  0.00    +0.015 C 
ATOM     12  C   UNL     1     -39.164  25.854   1.431  0.00  0.00    +0.177 C 
ATOM     13  C   UNL     1     -37.675  24.524   0.072  0.00  0.00    +0.060 C 
ATOM     14  C   UNL     1     -38.853  25.258   0.209  0.00  0.00    +0.039 C 
BRANCH  12  17
ATOM     15  O   UNL     1     -41.253  26.191   2.341  0.00  0.00    -0.126 OA
ATOM     16  O   UNL     1     -40.505  27.639   0.863  0.00  0.00    -0.126 OA
ATOM     17  N   UNL     1     -40.370  26.600   1.551  0.00  0.00    +0.061 N 
ENDBRANCH  12  17
BRANCH  10  18
ATOM     18  O   UNL     1     -38.607  26.300   3.712  0.00  0.00    -0.504 OA
ATOM     19  H   UNL     1     -39.479  26.605   3.872  0.00  0.00    +0.292 HD
ENDBRANCH  10  18
ENDBRANCH   2   9
BRANCH   5  22
ATOM     20  O   UNL     1     -32.677  27.050   4.289  0.00  0.00    -0.126 OA
ATOM     21  O   UNL     1     -33.371  27.041   6.377  0.00  0.00    -0.126 OA
ATOM     22  N   UNL     1     -33.431  26.626   5.196  0.00  0.00    +0.061 N 
ENDBRANCH   5  22
BRANCH   3  23
ATOM     23  O   UNL     1     -35.197  26.943   3.040  0.00  0.00    -0.504 OA
ATOM     24  H   UNL     1     -34.373  27.370   2.910  0.00  0.00    +0.292 HD
ENDBRANCH   3  23
TORSDOF 5
ENDMDL
MODEL 5
REMARK VINA RESULT:      -5.6      4.105      5.317
REMARK  Name = 5284586
REMARK  5 active torsions:
REMARK  status: ('A' for Active; 'I' for Inactive)
REMARK    1  A    between atoms: C_2  and  C_9
REMARK    2  A    between atoms: C_3  and  O_23
REMARK    3  A    between atoms: C_5  and  N_22
REMARK    4  A    between atoms: C_10  and  O_18
REMARK    5  A    between atoms: C_12  and  N_17
REMARK                            x       y       z     vdW  Elec       q    Type
REMARK                         _______ _______ _______ _____ _____    ______ ____
ROOT
ATOM      1 CL   UNL     1     -30.686  26.663   0.783  0.00  0.00    -0.082 Cl
ATOM      2  C   UNL     1     -34.090  25.928   2.754  0.00  0.00    +0.039 C 
ATOM      3  C   UNL     1     -34.372  27.162   3.337  0.00  0.00    +0.156 C 
ATOM      4  C   UNL     1     -32.950  25.772   1.964  0.00  0.00    +0.015 C 
ATOM      5  C   UNL     1     -33.515  28.243   3.130  0.00  0.00    +0.177 C 
ATOM      6  C   UNL     1     -32.093  26.853   1.758  0.00  0.00    +0.060 C 
ATOM      7  C   UNL     1     -32.375  28.088   2.340  0.00  0.00    +0.039 C 
ENDROOT
BRANCH   2   9
ATOM      8 CL   UNL     1     -38.088  23.155   1.060  0.00  0.00    -0.082 Cl
ATOM      9  C   UNL     1     -34.967  24.790   2.955  0.00  0.00    +0.039 C 
ATOM     10  C   UNL     1     -34.808  23.947   4.054  0.00  0.00    +0.156 C 
ATOM     11  C   UNL     1     -35.982  24.546   2.028  0.00  0.00    +0.015 C 
ATOM     12  C   UNL     1     -35.663  22.858   4.226  0.00  0.00    +0.177 C 
ATOM     13  C   UNL     1     -36.836  23.457   2.202  0.00  0.00    +0.060 C 
ATOM     14  C   UNL     1     -36.676  22.614   3.300  0.00  0.00    +0.039 C 
BRANCH  12  17
ATOM     15  O   UNL     1     -35.010  20.855   5.156  0.00  0.00    -0.126 OA
ATOM     16  O   UNL     1     -35.900  22.381   6.467  0.00  0.00    -0.126 OA
ATOM     17  N   UNL     1     -35.517  21.986   5.341  0.00  0.00    +0.061 N 
ENDBRANCH  12  17
BRANCH  10  18
ATOM     18  O   UNL     1     -33.815  24.183   4.963  0.00  0.00    -0.504 OA
ATOM     19  H   UNL     1     -33.345  24.994   4.942  0.00  0.00    +0.292 HD
ENDBRANCH  10  18
ENDBRANCH   2   9
BRANCH   5  22
ATOM     20  O   UNL     1     -32.962  29.982   4.535  0.00  0.00    -0.126 OA
ATOM     21  O   UNL     1     -34.836  30.112   3.389  0.00  0.00    -0.126 OA
ATOM     22  N   UNL     1     -33.785  29.511   3.715  0.00  0.00    +0.061 N 
ENDBRANCH   5  22
BRANCH   3  23
ATOM     23  O   UNL     1     -35.487  27.317   4.111  0.00  0.00    -0.504 OA
ATOM     24  H   UNL     1     -36.331  27.097   3.766  0.00  0.00    +0.292 HD
ENDBRANCH   3  23
TORSDOF 5
ENDMDL
MODEL 6
REMARK VINA RESULT:      -5.6      4.557      6.318
REMARK  Name = 5284586
REMARK  5 active torsions:
REMARK  status: ('A' for Active; 'I' for Inactive)
REMARK    1  A    between atoms: C_2  and  C_9
REMARK    2  A    between atoms: C_3  and  O_23
REMARK    3  A    between atoms: C_5  and  N_22
REMARK    4  A    between atoms: C_10  and  O_18
REMARK    5  A    between atoms: C_12  and  N_17
REMARK                            x       y       z     vdW  Elec       q    Type
REMARK                         _______ _______ _______ _____ _____    ______ ____
ROOT
ATOM      1 CL   UNL     1     -34.546  25.339   0.755  0.00  0.00    -0.082 Cl
ATOM      2  C   UNL     1     -35.120  21.543   1.881  0.00  0.00    +0.039 C 
ATOM      3  C   UNL     1     -35.364  21.669   3.248  0.00  0.00    +0.156 C 
ATOM      4  C   UNL     1     -34.866  22.678   1.109  0.00  0.00    +0.015 C 
ATOM      5  C   UNL     1     -35.356  22.929   3.844  0.00  0.00    +0.177 C 
ATOM      6  C   UNL     1     -34.858  23.938   1.706  0.00  0.00    +0.060 C 
ATOM      7  C   UNL     1     -35.104  24.064   3.073  0.00  0.00    +0.039 C 
ENDROOT
BRANCH   2   9
ATOM      8 CL   UNL     1     -32.399  17.498   0.214  0.00  0.00    -0.082 Cl
ATOM      9  C   UNL     1     -35.124  20.243   1.239  0.00  0.00    +0.039 C 
ATOM     10  C   UNL     1     -36.314  19.659   0.806  0.00  0.00    +0.156 C 
ATOM     11  C   UNL     1     -33.912  19.575   1.055  0.00  0.00    +0.015 C 
ATOM     12  C   UNL     1     -36.294  18.407   0.192  0.00  0.00    +0.177 C 
ATOM     13  C   UNL     1     -33.893  18.323   0.441  0.00  0.00    +0.060 C 
ATOM     14  C   UNL     1     -35.084  17.739   0.009  0.00  0.00    +0.039 C 
BRANCH  12  17
ATOM     15  O   UNL     1     -37.749  16.624   0.113  0.00  0.00    -0.126 OA
ATOM     16  O   UNL     1     -38.264  18.450  -1.001  0.00  0.00    -0.126 OA
ATOM     17  N   UNL     1     -37.498  17.795  -0.255  0.00  0.00    +0.061 N 
ENDBRANCH  12  17
BRANCH  10  18
ATOM     18  O   UNL     1     -37.503  20.311   0.985  0.00  0.00    -0.504 OA
ATOM     19  H   UNL     1     -37.688  20.729   1.803  0.00  0.00    +0.292 HD
ENDBRANCH  10  18
ENDBRANCH   2   9
BRANCH   5  22
ATOM     20  O   UNL     1     -35.077  22.266   6.031  0.00  0.00    -0.126 OA
ATOM     21  O   UNL     1     -36.339  24.019   5.619  0.00  0.00    -0.126 OA
ATOM     22  N   UNL     1     -35.604  23.079   5.237  0.00  0.00    +0.061 N 
ENDBRANCH   5  22
BRANCH   3  23
ATOM     23  O   UNL     1     -35.612  20.559   4.005  0.00  0.00    -0.504 OA
ATOM     24  H   UNL     1     -35.209  19.742   3.787  0.00  0.00    +0.292 HD
ENDBRANCH   3  23
TORSDOF 5
ENDMDL
MODEL 7
REMARK VINA RESULT:      -5.5      3.801      6.676
REMARK  Name = 5284586
REMARK  5 active torsions:
REMARK  status: ('A' for Active; 'I' for Inactive)
REMARK    1  A    between atoms: C_2  and  C_9
REMARK    2  A    between atoms: C_3  and  O_23
REMARK    3  A    between atoms: C_5  and  N_22
REMARK    4  A    between atoms: C_10  and  O_18
REMARK    5  A    between atoms: C_12  and  N_17
REMARK                            x       y       z     vdW  Elec       q    Type
REMARK                         _______ _______ _______ _____ _____    ______ ____
ROOT
ATOM      1 CL   UNL     1     -31.935  22.645  -1.291  0.00  0.00    -0.082 Cl
ATOM      2  C   UNL     1     -34.831  21.632   1.277  0.00  0.00    +0.039 C 
ATOM      3  C   UNL     1     -34.567  20.282   1.509  0.00  0.00    +0.156 C 
ATOM      4  C   UNL     1     -34.017  22.363   0.410  0.00  0.00    +0.015 C 
ATOM      5  C   UNL     1     -33.489  19.664   0.877  0.00  0.00    +0.177 C 
ATOM      6  C   UNL     1     -32.940  21.743  -0.222  0.00  0.00    +0.060 C 
ATOM      7  C   UNL     1     -32.675  20.394   0.012  0.00  0.00    +0.039 C 
ENDROOT
BRANCH   2   9
ATOM      8 CL   UNL     1     -36.424  25.106   4.730  0.00  0.00    -0.082 Cl
ATOM      9  C   UNL     1     -35.946  22.296   1.924  0.00  0.00    +0.039 C 
ATOM     10  C   UNL     1     -37.262  21.982   1.587  0.00  0.00    +0.156 C 
ATOM     11  C   UNL     1     -35.686  23.263   2.896  0.00  0.00    +0.015 C 
ATOM     12  C   UNL     1     -38.319  22.634   2.221  0.00  0.00    +0.177 C 
ATOM     13  C   UNL     1     -36.743  23.914   3.531  0.00  0.00    +0.060 C 
ATOM     14  C   UNL     1     -38.059  23.601   3.193  0.00  0.00    +0.039 C 
BRANCH  12  17
ATOM     15  O   UNL     1     -40.405  23.247   1.464  0.00  0.00    -0.126 OA
ATOM     16  O   UNL     1     -40.071  21.151   2.041  0.00  0.00    -0.126 OA
ATOM     17  N   UNL     1     -39.669  22.328   1.892  0.00  0.00    +0.061 N 
ENDBRANCH  12  17
BRANCH  10  18
ATOM     18  O   UNL     1     -37.520  21.036   0.634  0.00  0.00    -0.504 OA
ATOM     19  H   UNL     1     -38.215  21.169   0.020  0.00  0.00    +0.292 HD
ENDBRANCH  10  18
ENDBRANCH   2   9
BRANCH   5  22
ATOM     20  O   UNL     1     -33.962  17.427   0.600  0.00  0.00    -0.126 OA
ATOM     21  O   UNL     1     -32.202  17.988   1.794  0.00  0.00    -0.126 OA
ATOM     22  N   UNL     1     -33.203  18.288   1.102  0.00  0.00    +0.061 N 
ENDBRANCH   5  22
BRANCH   3  23
ATOM     23  O   UNL     1     -35.362  19.564   2.358  0.00  0.00    -0.504 OA
ATOM     24  H   UNL     1     -35.641  18.701   2.121  0.00  0.00    +0.292 HD
ENDBRANCH   3  23
TORSDOF 5
ENDMDL
MODEL 8
REMARK VINA RESULT:      -5.5      5.388      6.400
REMARK  Name = 5284586
REMARK  5 active torsions:
REMARK  status: ('A' for Active; 'I' for Inactive)
REMARK    1  A    between atoms: C_2  and  C_9
REMARK    2  A    between atoms: C_3  and  O_23
REMARK    3  A    between atoms: C_5  and  N_22
REMARK    4  A    between atoms: C_10  and  O_18
REMARK    5  A    between atoms: C_12  and  N_17
REMARK                            x       y       z     vdW  Elec       q    Type
REMARK                         _______ _______ _______ _____ _____    ______ ____
ROOT
ATOM      1 CL   UNL     1     -33.256  24.033   0.416  0.00  0.00    -0.082 Cl
ATOM      2  C   UNL     1     -34.119  26.822   3.152  0.00  0.00    +0.039 C 
ATOM      3  C   UNL     1     -35.136  26.215   3.888  0.00  0.00    +0.156 C 
ATOM      4  C   UNL     1     -33.538  26.147   2.077  0.00  0.00    +0.015 C 
ATOM      5  C   UNL     1     -35.570  24.933   3.552  0.00  0.00    +0.177 C 
ATOM      6  C   UNL     1     -33.973  24.866   1.741  0.00  0.00    +0.060 C 
ATOM      7  C   UNL     1     -34.989  24.258   2.478  0.00  0.00    +0.039 C 
ENDROOT
BRANCH   2   9
ATOM      8 CL   UNL     1     -34.441  31.892   2.300  0.00  0.00    -0.082 Cl
ATOM      9  C   UNL     1     -33.650  28.153   3.483  0.00  0.00    +0.039 C 
ATOM     10  C   UNL     1     -32.665  28.347   4.451  0.00  0.00    +0.156 C 
ATOM     11  C   UNL     1     -34.200  29.250   2.817  0.00  0.00    +0.015 C 
ATOM     12  C   UNL     1     -32.230  29.636   4.755  0.00  0.00    +0.177 C 
ATOM     13  C   UNL     1     -33.764  30.539   3.121  0.00  0.00    +0.060 C 
ATOM     14  C   UNL     1     -32.780  30.733   4.090  0.00  0.00    +0.039 C 
BRANCH  12  17
ATOM     15  O   UNL     1     -30.161  30.417   5.396  0.00  0.00    -0.126 OA
ATOM     16  O   UNL     1     -31.446  29.478   6.914  0.00  0.00    -0.126 OA
ATOM     17  N   UNL     1     -31.227  29.855   5.739  0.00  0.00    +0.061 N 
ENDBRANCH  12  17
BRANCH  10  18
ATOM     18  O   UNL     1     -32.126  27.275   5.105  0.00  0.00    -0.504 OA
ATOM     19  H   UNL     1     -32.684  26.597   5.432  0.00  0.00    +0.292 HD
ENDBRANCH  10  18
ENDBRANCH   2   9
BRANCH   5  22
ATOM     20  O   UNL     1     -37.783  24.700   4.146  0.00  0.00    -0.126 OA
ATOM     21  O   UNL     1     -36.303  23.355   5.061  0.00  0.00    -0.126 OA
ATOM     22  N   UNL     1     -36.606  24.296   4.292  0.00  0.00    +0.061 N 
ENDBRANCH   5  22
BRANCH   3  23
ATOM     23  O   UNL     1     -35.707  26.873   4.941  0.00  0.00    -0.504 OA
ATOM     24  H   UNL     1     -35.684  26.495   5.798  0.00  0.00    +0.292 HD
ENDBRANCH   3  23
TORSDOF 5
ENDMDL
MODEL 9
REMARK VINA RESULT:      -5.5      4.316      6.292
REMARK  Name = 5284586
REMARK  5 active torsions:
REMARK  status: ('A' for Active; 'I' for Inactive)
REMARK    1  A    between atoms: C_2  and  C_9
REMARK    2  A    between atoms: C_3  and  O_23
REMARK    3  A    between atoms: C_5  and  N_22
REMARK    4  A    between atoms: C_10  and  O_18
REMARK    5  A    between atoms: C_12  and  N_17
REMARK                            x       y       z     vdW  Elec       q    Type
REMARK                         _______ _______ _______ _____ _____    ______ ____
ROOT
ATOM      1 CL   UNL     1     -31.423  27.582   0.511  0.00  0.00    -0.082 Cl
ATOM      2  C   UNL     1     -33.991  26.126   3.211  0.00  0.00    +0.039 C 
ATOM      3  C   UNL     1     -33.598  26.777   4.380  0.00  0.00    +0.156 C 
ATOM      4  C   UNL     1     -33.318  26.374   2.014  0.00  0.00    +0.015 C 
ATOM      5  C   UNL     1     -32.533  27.677   4.353  0.00  0.00    +0.177 C 
ATOM      6  C   UNL     1     -32.253  27.274   1.987  0.00  0.00    +0.060 C 
ATOM      7  C   UNL     1     -31.861  27.926   3.156  0.00  0.00    +0.039 C 
ENDROOT
BRANCH   2   9
ATOM      8 CL   UNL     1     -35.538  21.220   3.477  0.00  0.00    -0.082 Cl
ATOM      9  C   UNL     1     -35.096  25.187   3.215  0.00  0.00    +0.039 C 
ATOM     10  C   UNL     1     -36.414  25.629   3.107  0.00  0.00    +0.156 C 
ATOM     11  C   UNL     1     -34.825  23.823   3.329  0.00  0.00    +0.015 C 
ATOM     12  C   UNL     1     -37.461  24.708   3.114  0.00  0.00    +0.177 C 
ATOM     13  C   UNL     1     -35.872  22.902   3.336  0.00  0.00    +0.060 C 
ATOM     14  C   UNL     1     -37.190  23.345   3.229  0.00  0.00    +0.039 C 
BRANCH  12  17
ATOM     15  O   UNL     1     -39.672  24.617   3.753  0.00  0.00    -0.126 OA
ATOM     16  O   UNL     1     -39.095  26.025   2.165  0.00  0.00    -0.126 OA
ATOM     17  N   UNL     1     -38.813  25.139   3.005  0.00  0.00    +0.061 N 
ENDBRANCH  12  17
BRANCH  10  18
ATOM     18  O   UNL     1     -36.683  26.965   2.995  0.00  0.00    -0.504 OA
ATOM     19  H   UNL     1     -35.991  27.567   2.809  0.00  0.00    +0.292 HD
ENDBRANCH  10  18
ENDBRANCH   2   9
BRANCH   5  22
ATOM     20  O   UNL     1     -32.378  29.571   5.653  0.00  0.00    -0.126 OA
ATOM     21  O   UNL     1     -31.506  27.701   6.413  0.00  0.00    -0.126 OA
ATOM     22  N   UNL     1     -32.117  28.352   5.534  0.00  0.00    +0.061 N 
ENDBRANCH   5  22
BRANCH   3  23
ATOM     23  O   UNL     1     -34.255  26.536   5.554  0.00  0.00    -0.504 OA
ATOM     24  H   UNL     1     -34.230  25.681   5.939  0.00  0.00    +0.292 HD
ENDBRANCH   3  23
TORSDOF 5
ENDMDL
