MODEL 1
REMARK VINA RESULT:      -6.4      0.000      0.000
REMARK  Name = 192800
REMARK  7 active torsions:
REMARK  status: ('A' for Active; 'I' for Inactive)
REMARK    1  A    between atoms: N_1  and  C1*_12
REMARK    2  A    between atoms: C2*_11  and  O2*_15
REMARK    3  A    between atoms: C3*_13  and  O3*_17
REMARK    4  A    between atoms: C4*_14  and  C5*_19
REMARK    5  A    between atoms: C5*_19  and  O5*_20
REMARK    6  A    between atoms: C_24  and  C_26
REMARK    7  A    between atoms: C_26  and  C_27
REMARK                            x       y       z     vdW  Elec       q    Type
REMARK                         _______ _______ _______ _____ _____    ______ ____
ROOT
ATOM      1  N   UNL     1     -34.854  26.160   4.390  0.00  0.00    -0.247 N 
ATOM      2  N   UNL     1     -33.632  27.262   2.881  0.00  0.00    -0.242 NA
ATOM      3  N   UNL     1     -33.571  26.647   6.395  0.00  0.00    -0.228 NA
ATOM      4  N   UNL     1     -31.632  28.042   5.893  0.00  0.00    -0.228 NA
ATOM      5  C   UNL     1     -33.818  26.727   5.078  0.00  0.00    +0.152 C 
ATOM      6  C   UNL     1     -34.697  26.510   3.073  0.00  0.00    +0.223 C 
ATOM      7  C   UNL     1     -33.073  27.404   4.127  0.00  0.00    +0.140 C 
ATOM      8  C   UNL     1     -31.943  28.080   4.575  0.00  0.00    +0.152 C 
ATOM      9  C   UNL     1     -32.454  27.337   6.709  0.00  0.00    +0.253 C 
ATOM     10  O   UNL     1     -29.442  29.672   5.045  0.00  0.00    -0.275 OA
ATOM     11  N   UNL     1     -31.139  28.785   3.679  0.00  0.00    -0.268 N 
ATOM     12  C   UNL     1     -29.972  29.518   3.950  0.00  0.00    +0.227 C 
ATOM     13  H   UNL     1     -31.426  28.767   2.737  0.00  0.00    +0.156 HD
ENDROOT
BRANCH   1  16
ATOM     14  O4* UNL     1     -35.370  24.361   5.849  0.00  0.00    -0.333 OA
ATOM     15  C2* UNL     1     -36.722  24.572   3.878  0.00  0.00    +0.187 C 
ATOM     16  C1* UNL     1     -35.929  25.333   4.941  0.00  0.00    +0.225 C 
ATOM     17  C3* UNL     1     -36.180  23.160   4.001  0.00  0.00    +0.171 C 
ATOM     18  C4* UNL     1     -35.866  23.063   5.483  0.00  0.00    +0.175 C 
BRANCH  15  19
ATOM     19  O2* UNL     1     -38.110  24.622   4.201  0.00  0.00    -0.378 OA
ATOM     20  H2* UNL     1     -38.218  24.654   5.164  0.00  0.00    +0.211 HD
ENDBRANCH  15  19
BRANCH  17  21
ATOM     21  O3* UNL     1     -37.094  22.168   3.585  0.00  0.00    -0.379 OA
ATOM     22  H3* UNL     1     -37.735  22.002   4.295  0.00  0.00    +0.211 HD
ENDBRANCH  17  21
BRANCH  18  23
ATOM     23  C5* UNL     1     -34.829  22.005   5.815  0.00  0.00    +0.169 C 
BRANCH  23  24
ATOM     24  O5* UNL     1     -35.444  20.730   5.746  0.00  0.00    -0.379 OA
ATOM     25  H5* UNL     1     -36.132  20.666   6.426  0.00  0.00    +0.211 HD
ENDBRANCH  23  24
ENDBRANCH  18  23
ENDBRANCH   1  16
BRANCH  12  26
ATOM     26  C   UNL     1     -29.418  30.161   2.684  0.00  0.00    +0.085 C 
BRANCH  26  27
ATOM     27  C   UNL     1     -30.312  31.253   2.103  0.00  0.00    +0.010 C 
ATOM     28  C   UNL     1     -30.522  32.411   3.068  0.00  0.00    +0.001 C 
ENDBRANCH  26  27
ENDBRANCH  12  26
TORSDOF 7
ENDMDL
MODEL 2
REMARK VINA RESULT:      -6.1      5.326      8.561
REMARK  Name = 192800
REMARK  7 active torsions:
REMARK  status: ('A' for Active; 'I' for Inactive)
REMARK    1  A    between atoms: N_1  and  C1*_12
REMARK    2  A    between atoms: C2*_11  and  O2*_15
REMARK    3  A    between atoms: C3*_13  and  O3*_17
REMARK    4  A    between atoms: C4*_14  and  C5*_19
REMARK    5  A    between atoms: C5*_19  and  O5*_20
REMARK    6  A    between atoms: C_24  and  C_26
REMARK    7  A    between atoms: C_26  and  C_27
REMARK                            x       y       z     vdW  Elec       q    Type
REMARK                         _______ _______ _______ _____ _____    ______ ____
ROOT
ATOM      1  N   UNL     1     -37.031  24.481   3.040  0.00  0.00    -0.247 N 
ATOM      2  N   UNL     1     -38.568  26.086   2.830  0.00  0.00    -0.242 NA
ATOM      3  N   UNL     1     -38.310  22.576   2.242  0.00  0.00    -0.228 NA
ATOM      4  N   UNL     1     -40.573  23.231   1.602  0.00  0.00    -0.228 NA
ATOM      5  C   UNL     1     -38.151  23.874   2.545  0.00  0.00    +0.152 C 
ATOM      6  C   UNL     1     -37.333  25.809   3.196  0.00  0.00    +0.223 C 
ATOM      7  C   UNL     1     -39.091  24.884   2.422  0.00  0.00    +0.140 C 
ATOM      8  C   UNL     1     -40.341  24.525   1.930  0.00  0.00    +0.152 C 
ATOM      9  C   UNL     1     -39.558  22.350   1.777  0.00  0.00    +0.253 C 
ATOM     10  O   UNL     1     -43.156  24.251   0.925  0.00  0.00    -0.275 OA
ATOM     11  N   UNL     1     -41.343  25.483   1.778  0.00  0.00    -0.268 N 
ATOM     12  C   UNL     1     -42.652  25.303   1.300  0.00  0.00    +0.227 C 
ATOM     13  H   UNL     1     -41.102  26.402   2.037  0.00  0.00    +0.156 HD
ENDROOT
BRANCH   1  16
ATOM     14  O4* UNL     1     -35.463  22.832   2.365  0.00  0.00    -0.333 OA
ATOM     15  C2* UNL     1     -35.718  23.174   4.727  0.00  0.00    +0.187 C 
ATOM     16  C1* UNL     1     -35.750  23.845   3.353  0.00  0.00    +0.225 C 
ATOM     17  C3* UNL     1     -35.857  21.702   4.386  0.00  0.00    +0.171 C 
ATOM     18  C4* UNL     1     -35.139  21.611   3.051  0.00  0.00    +0.175 C 
BRANCH  15  19
ATOM     19  O2* UNL     1     -34.465  23.443   5.352  0.00  0.00    -0.378 OA
ATOM     20  H2* UNL     1     -33.868  23.863   4.714  0.00  0.00    +0.211 HD
ENDBRANCH  15  19
BRANCH  17  21
ATOM     21  O3* UNL     1     -35.290  20.845   5.353  0.00  0.00    -0.379 OA
ATOM     22  H3* UNL     1     -34.723  20.191   4.913  0.00  0.00    +0.211 HD
ENDBRANCH  17  21
BRANCH  18  23
ATOM     23  C5* UNL     1     -35.570  20.421   2.212  0.00  0.00    +0.169 C 
BRANCH  23  24
ATOM     24  O5* UNL     1     -36.754  19.878   2.769  0.00  0.00    -0.379 OA
ATOM     25  H5* UNL     1     -37.249  20.578   3.222  0.00  0.00    +0.211 HD
ENDBRANCH  23  24
ENDBRANCH  18  23
ENDBRANCH   1  16
BRANCH  12  26
ATOM     26  C   UNL     1     -43.413  26.624   1.267  0.00  0.00    +0.085 C 
BRANCH  26  27
ATOM     27  C   UNL     1     -43.734  27.188   2.649  0.00  0.00    +0.010 C 
ATOM     28  C   UNL     1     -44.718  26.319   3.420  0.00  0.00    +0.001 C 
ENDBRANCH  26  27
ENDBRANCH  12  26
TORSDOF 7
ENDMDL
MODEL 3
REMARK VINA RESULT:      -6.0      1.589      2.556
REMARK  Name = 192800
REMARK  7 active torsions:
REMARK  status: ('A' for Active; 'I' for Inactive)
REMARK    1  A    between atoms: N_1  and  C1*_12
REMARK    2  A    between atoms: C2*_11  and  O2*_15
REMARK    3  A    between atoms: C3*_13  and  O3*_17
REMARK    4  A    between atoms: C4*_14  and  C5*_19
REMARK    5  A    between atoms: C5*_19  and  O5*_20
REMARK    6  A    between atoms: C_24  and  C_26
REMARK    7  A    between atoms: C_26  and  C_27
REMARK                            x       y       z     vdW  Elec       q    Type
REMARK                         _______ _______ _______ _____ _____    ______ ____
ROOT
ATOM      1  N   UNL     1     -34.461  26.140   4.855  0.00  0.00    -0.247 N 
ATOM      2  N   UNL     1     -32.852  27.084   6.081  0.00  0.00    -0.242 NA
ATOM      3  N   UNL     1     -34.121  27.311   2.754  0.00  0.00    -0.228 NA
ATOM      4  N   UNL     1     -32.277  28.903   2.911  0.00  0.00    -0.228 NA
ATOM      5  C   UNL     1     -33.836  27.039   4.036  0.00  0.00    +0.152 C 
ATOM      6  C   UNL     1     -33.834  26.206   6.072  0.00  0.00    +0.223 C 
ATOM      7  C   UNL     1     -32.843  27.613   4.813  0.00  0.00    +0.140 C 
ATOM      8  C   UNL     1     -32.047  28.578   4.207  0.00  0.00    +0.152 C 
ATOM      9  C   UNL     1     -33.286  28.259   2.275  0.00  0.00    +0.253 C 
ATOM     10  O   UNL     1     -30.089  30.688   3.355  0.00  0.00    -0.275 OA
ATOM     11  N   UNL     1     -31.026  29.204   4.922  0.00  0.00    -0.268 N 
ATOM     12  C   UNL     1     -30.131  30.191   4.475  0.00  0.00    +0.227 C 
ATOM     13  H   UNL     1     -30.918  28.917   5.857  0.00  0.00    +0.156 HD
ENDROOT
BRANCH   1  16
ATOM     14  O4* UNL     1     -35.899  24.420   5.634  0.00  0.00    -0.333 OA
ATOM     15  C2* UNL     1     -35.320  24.369   3.305  0.00  0.00    +0.187 C 
ATOM     16  C1* UNL     1     -35.588  25.272   4.511  0.00  0.00    +0.225 C 
ATOM     17  C3* UNL     1     -35.054  23.020   3.947  0.00  0.00    +0.171 C 
ATOM     18  C4* UNL     1     -35.956  23.061   5.168  0.00  0.00    +0.175 C 
BRANCH  15  19
ATOM     19  O2* UNL     1     -36.482  24.329   2.481  0.00  0.00    -0.378 OA
ATOM     20  H2* UNL     1     -37.189  24.851   2.891  0.00  0.00    +0.211 HD
ENDBRANCH  15  19
BRANCH  17  21
ATOM     21  O3* UNL     1     -35.351  21.928   3.104  0.00  0.00    -0.379 OA
ATOM     22  H3* UNL     1     -35.444  21.123   3.639  0.00  0.00    +0.211 HD
ENDBRANCH  17  21
BRANCH  18  23
ATOM     23  C5* UNL     1     -35.518  22.120   6.276  0.00  0.00    +0.169 C 
BRANCH  23  24
ATOM     24  O5* UNL     1     -35.370  20.819   5.735  0.00  0.00    -0.379 OA
ATOM     25  H5* UNL     1     -35.557  20.842   4.783  0.00  0.00    +0.211 HD
ENDBRANCH  23  24
ENDBRANCH  18  23
ENDBRANCH   1  16
BRANCH  12  26
ATOM     26  C   UNL     1     -29.149  30.582   5.574  0.00  0.00    +0.085 C 
BRANCH  26  27
ATOM     27  C   UNL     1     -28.502  29.392   6.277  0.00  0.00    +0.010 C 
ATOM     28  C   UNL     1     -28.385  29.595   7.781  0.00  0.00    +0.001 C 
ENDBRANCH  26  27
ENDBRANCH  12  26
TORSDOF 7
ENDMDL
MODEL 4
REMARK VINA RESULT:      -5.9      2.561      3.609
REMARK  Name = 192800
REMARK  7 active torsions:
REMARK  status: ('A' for Active; 'I' for Inactive)
REMARK    1  A    between atoms: N_1  and  C1*_12
REMARK    2  A    between atoms: C2*_11  and  O2*_15
REMARK    3  A    between atoms: C3*_13  and  O3*_17
REMARK    4  A    between atoms: C4*_14  and  C5*_19
REMARK    5  A    between atoms: C5*_19  and  O5*_20
REMARK    6  A    between atoms: C_24  and  C_26
REMARK    7  A    between atoms: C_26  and  C_27
REMARK                            x       y       z     vdW  Elec       q    Type
REMARK                         _______ _______ _______ _____ _____    ______ ____
ROOT
ATOM      1  N   UNL     1     -37.311  24.783   3.048  0.00  0.00    -0.247 N 
ATOM      2  N   UNL     1     -36.078  26.582   2.571  0.00  0.00    -0.242 NA
ATOM      3  N   UNL     1     -36.191  24.040   5.072  0.00  0.00    -0.228 NA
ATOM      4  N   UNL     1     -34.327  25.507   5.647  0.00  0.00    -0.228 NA
ATOM      5  C   UNL     1     -36.361  24.866   4.028  0.00  0.00    +0.152 C 
ATOM      6  C   UNL     1     -37.097  25.836   2.196  0.00  0.00    +0.223 C 
ATOM      7  C   UNL     1     -35.608  25.985   3.715  0.00  0.00    +0.140 C 
ATOM      8  C   UNL     1     -34.558  26.298   4.571  0.00  0.00    +0.152 C 
ATOM      9  C   UNL     1     -35.146  24.443   5.827  0.00  0.00    +0.253 C 
ATOM     10  O   UNL     1     -32.207  27.371   6.098  0.00  0.00    -0.275 OA
ATOM     11  N   UNL     1     -33.751  27.409   4.324  0.00  0.00    -0.268 N 
ATOM     12  C   UNL     1     -32.657  27.872   5.073  0.00  0.00    +0.227 C 
ATOM     13  H   UNL     1     -33.978  27.936   3.524  0.00  0.00    +0.156 HD
ENDROOT
BRANCH   1  16
ATOM     14  O4* UNL     1     -37.766  22.454   3.002  0.00  0.00    -0.333 OA
ATOM     15  C2* UNL     1     -39.130  23.846   1.602  0.00  0.00    +0.187 C 
ATOM     16  C1* UNL     1     -38.358  23.768   2.920  0.00  0.00    +0.225 C 
ATOM     17  C3* UNL     1     -38.543  22.700   0.799  0.00  0.00    +0.171 C 
ATOM     18  C4* UNL     1     -38.221  21.682   1.879  0.00  0.00    +0.175 C 
BRANCH  15  19
ATOM     19  O2* UNL     1     -40.517  23.641   1.857  0.00  0.00    -0.378 OA
ATOM     20  H2* UNL     1     -40.657  23.514   2.808  0.00  0.00    +0.211 HD
ENDBRANCH  15  19
BRANCH  17  21
ATOM     21  O3* UNL     1     -39.426  22.183  -0.172  0.00  0.00    -0.379 OA
ATOM     22  H3* UNL     1     -38.929  21.962  -0.976  0.00  0.00    +0.211 HD
ENDBRANCH  17  21
BRANCH  18  23
ATOM     23  C5* UNL     1     -37.151  20.685   1.472  0.00  0.00    +0.169 C 
BRANCH  23  24
ATOM     24  O5* UNL     1     -36.871  19.844   2.577  0.00  0.00    -0.379 OA
ATOM     25  H5* UNL     1     -37.545  19.974   3.262  0.00  0.00    +0.211 HD
ENDBRANCH  23  24
ENDBRANCH  18  23
ENDBRANCH   1  16
BRANCH  12  26
ATOM     26  C   UNL     1     -32.072  29.143   4.467  0.00  0.00    +0.085 C 
BRANCH  26  27
ATOM     27  C   UNL     1     -32.077  30.339   5.416  0.00  0.00    +0.010 C 
ATOM     28  C   UNL     1     -31.118  31.436   4.977  0.00  0.00    +0.001 C 
ENDBRANCH  26  27
ENDBRANCH  12  26
TORSDOF 7
ENDMDL
MODEL 5
REMARK VINA RESULT:      -5.7      2.955      3.827
REMARK  Name = 192800
REMARK  7 active torsions:
REMARK  status: ('A' for Active; 'I' for Inactive)
REMARK    1  A    between atoms: N_1  and  C1*_12
REMARK    2  A    between atoms: C2*_11  and  O2*_15
REMARK    3  A    between atoms: C3*_13  and  O3*_17
REMARK    4  A    between atoms: C4*_14  and  C5*_19
REMARK    5  A    between atoms: C5*_19  and  O5*_20
REMARK    6  A    between atoms: C_24  and  C_26
REMARK    7  A    between atoms: C_26  and  C_27
REMARK                            x       y       z     vdW  Elec       q    Type
REMARK                         _______ _______ _______ _____ _____    ______ ____
ROOT
ATOM      1  N   UNL     1     -36.205  23.733   2.656  0.00  0.00    -0.247 N 
ATOM      2  N   UNL     1     -35.747  25.574   1.480  0.00  0.00    -0.242 NA
ATOM      3  N   UNL     1     -35.305  24.387   4.816  0.00  0.00    -0.228 NA
ATOM      4  N   UNL     1     -34.357  26.635   4.740  0.00  0.00    -0.228 NA
ATOM      5  C   UNL     1     -35.587  24.593   3.520  0.00  0.00    +0.152 C 
ATOM      6  C   UNL     1     -36.276  24.369   1.443  0.00  0.00    +0.223 C 
ATOM      7  C   UNL     1     -35.311  25.727   2.773  0.00  0.00    +0.140 C 
ATOM      8  C   UNL     1     -34.673  26.773   3.429  0.00  0.00    +0.152 C 
ATOM      9  C   UNL     1     -34.688  25.467   5.342  0.00  0.00    +0.253 C 
ATOM     10  O   UNL     1     -33.320  29.275   4.389  0.00  0.00    -0.275 OA
ATOM     11  N   UNL     1     -34.359  27.949   2.747  0.00  0.00    -0.268 N 
ATOM     12  C   UNL     1     -33.721  29.098   3.244  0.00  0.00    +0.227 C 
ATOM     13  H   UNL     1     -34.618  27.977   1.798  0.00  0.00    +0.156 HD
ENDROOT
BRANCH   1  16
ATOM     14  O4* UNL     1     -35.579  21.487   3.103  0.00  0.00    -0.333 OA
ATOM     15  C2* UNL     1     -37.613  21.815   1.872  0.00  0.00    +0.187 C 
ATOM     16  C1* UNL     1     -36.698  22.387   2.955  0.00  0.00    +0.225 C 
ATOM     17  C3* UNL     1     -36.706  20.837   1.147  0.00  0.00    +0.171 C 
ATOM     18  C4* UNL     1     -35.808  20.341   2.267  0.00  0.00    +0.175 C 
BRANCH  15  19
ATOM     19  O2* UNL     1     -38.709  21.143   2.489  0.00  0.00    -0.378 OA
ATOM     20  H2* UNL     1     -38.425  20.773   3.340  0.00  0.00    +0.211 HD
ENDBRANCH  15  19
BRANCH  17  21
ATOM     21  O3* UNL     1     -37.403  19.783   0.519  0.00  0.00    -0.379 OA
ATOM     22  H3* UNL     1     -37.861  20.121  -0.266  0.00  0.00    +0.211 HD
ENDBRANCH  17  21
BRANCH  18  23
ATOM     23  C5* UNL     1     -34.480  19.789   1.777  0.00  0.00    +0.169 C 
BRANCH  23  24
ATOM     24  O5* UNL     1     -34.731  18.649   0.974  0.00  0.00    -0.379 OA
ATOM     25  H5* UNL     1     -34.564  18.866   0.044  0.00  0.00    +0.211 HD
ENDBRANCH  23  24
ENDBRANCH  18  23
ENDBRANCH   1  16
BRANCH  12  26
ATOM     26  C   UNL     1     -33.599  30.170   2.167  0.00  0.00    +0.085 C 
BRANCH  26  27
ATOM     27  C   UNL     1     -34.378  31.446   2.474  0.00  0.00    +0.010 C 
ATOM     28  C   UNL     1     -35.883  31.222   2.496  0.00  0.00    +0.001 C 
ENDBRANCH  26  27
ENDBRANCH  12  26
TORSDOF 7
ENDMDL
MODEL 6
REMARK VINA RESULT:      -5.6      4.768      8.352
REMARK  Name = 192800
REMARK  7 active torsions:
REMARK  status: ('A' for Active; 'I' for Inactive)
REMARK    1  A    between atoms: N_1  and  C1*_12
REMARK    2  A    between atoms: C2*_11  and  O2*_15
REMARK    3  A    between atoms: C3*_13  and  O3*_17
REMARK    4  A    between atoms: C4*_14  and  C5*_19
REMARK    5  A    between atoms: C5*_19  and  O5*_20
REMARK    6  A    between atoms: C_24  and  C_26
REMARK    7  A    between atoms: C_26  and  C_27
REMARK                            x       y       z     vdW  Elec       q    Type
REMARK                         _______ _______ _______ _____ _____    ______ ____
ROOT
ATOM      1  N   UNL     1     -35.955  22.773   4.117  0.00  0.00    -0.247 N 
ATOM      2  N   UNL     1     -35.077  20.726   3.968  0.00  0.00    -0.242 NA
ATOM      3  N   UNL     1     -36.353  23.225   1.764  0.00  0.00    -0.228 NA
ATOM      4  N   UNL     1     -35.657  21.348   0.368  0.00  0.00    -0.228 NA
ATOM      5  C   UNL     1     -35.935  22.463   2.786  0.00  0.00    +0.152 C 
ATOM      6  C   UNL     1     -35.428  21.698   4.785  0.00  0.00    +0.223 C 
ATOM      7  C   UNL     1     -35.388  21.193   2.714  0.00  0.00    +0.140 C 
ATOM      8  C   UNL     1     -35.254  20.635   1.447  0.00  0.00    +0.152 C 
ATOM      9  C   UNL     1     -36.174  22.581   0.590  0.00  0.00    +0.253 C 
ATOM     10  O   UNL     1     -34.767  19.023  -1.038  0.00  0.00    -0.275 OA
ATOM     11  N   UNL     1     -34.711  19.360   1.290  0.00  0.00    -0.268 N 
ATOM     12  C   UNL     1     -34.503  18.645   0.098  0.00  0.00    +0.227 C 
ATOM     13  H   UNL     1     -34.440  18.903   2.118  0.00  0.00    +0.156 HD
ENDROOT
BRANCH   1  16
ATOM     14  O4* UNL     1     -37.604  24.477   4.007  0.00  0.00    -0.333 OA
ATOM     15  C2* UNL     1     -35.410  25.144   4.718  0.00  0.00    +0.187 C 
ATOM     16  C1* UNL     1     -36.441  24.013   4.725  0.00  0.00    +0.225 C 
ATOM     17  C3* UNL     1     -35.895  26.033   3.588  0.00  0.00    +0.171 C 
ATOM     18  C4* UNL     1     -37.402  25.858   3.664  0.00  0.00    +0.175 C 
BRANCH  15  19
ATOM     19  O2* UNL     1     -35.453  25.827   5.968  0.00  0.00    -0.378 OA
ATOM     20  H2* UNL     1     -36.303  26.286   6.058  0.00  0.00    +0.211 HD
ENDBRANCH  15  19
BRANCH  17  21
ATOM     21  O3* UNL     1     -35.510  27.383   3.731  0.00  0.00    -0.379 OA
ATOM     22  H3* UNL     1     -35.659  27.667   4.647  0.00  0.00    +0.211 HD
ENDBRANCH  17  21
BRANCH  18  23
ATOM     23  C5* UNL     1     -38.114  26.172   2.360  0.00  0.00    +0.169 C 
BRANCH  23  24
ATOM     24  O5* UNL     1     -37.606  27.392   1.848  0.00  0.00    -0.379 OA
ATOM     25  H5* UNL     1     -37.292  27.944   2.581  0.00  0.00    +0.211 HD
ENDBRANCH  23  24
ENDBRANCH  18  23
ENDBRANCH   1  16
BRANCH  12  26
ATOM     26  C   UNL     1     -33.911  17.269   0.378  0.00  0.00    +0.085 C 
BRANCH  26  27
ATOM     27  C   UNL     1     -32.415  17.168   0.089  0.00  0.00    +0.010 C 
ATOM     28  C   UNL     1     -31.577  17.986   1.062  0.00  0.00    +0.001 C 
ENDBRANCH  26  27
ENDBRANCH  12  26
TORSDOF 7
ENDMDL
MODEL 7
REMARK VINA RESULT:      -5.6      6.636      9.229
REMARK  Name = 192800
REMARK  7 active torsions:
REMARK  status: ('A' for Active; 'I' for Inactive)
REMARK    1  A    between atoms: N_1  and  C1*_12
REMARK    2  A    between atoms: C2*_11  and  O2*_15
REMARK    3  A    between atoms: C3*_13  and  O3*_17
REMARK    4  A    between atoms: C4*_14  and  C5*_19
REMARK    5  A    between atoms: C5*_19  and  O5*_20
REMARK    6  A    between atoms: C_24  and  C_26
REMARK    7  A    between atoms: C_26  and  C_27
REMARK                            x       y       z     vdW  Elec       q    Type
REMARK                         _______ _______ _______ _____ _____    ______ ____
ROOT
ATOM      1  N   UNL     1     -40.845  24.984   2.157  0.00  0.00    -0.247 N 
ATOM      2  N   UNL     1     -38.980  24.726   3.357  0.00  0.00    -0.242 NA
ATOM      3  N   UNL     1     -40.770  22.947   0.835  0.00  0.00    -0.228 NA
ATOM      4  N   UNL     1     -38.805  21.605   1.378  0.00  0.00    -0.228 NA
ATOM      5  C   UNL     1     -40.296  23.796   1.759  0.00  0.00    +0.152 C 
ATOM      6  C   UNL     1     -40.016  25.504   3.117  0.00  0.00    +0.223 C 
ATOM      7  C   UNL     1     -39.143  23.655   2.513  0.00  0.00    +0.140 C 
ATOM      8  C   UNL     1     -38.386  22.509   2.298  0.00  0.00    +0.152 C 
ATOM      9  C   UNL     1     -39.954  21.878   0.713  0.00  0.00    +0.253 C 
ATOM     10  O   UNL     1     -36.437  20.228   2.195  0.00  0.00    -0.275 OA
ATOM     11  N   UNL     1     -37.210  22.292   3.016  0.00  0.00    -0.268 N 
ATOM     12  C   UNL     1     -36.328  21.202   2.931  0.00  0.00    +0.227 C 
ATOM     13  H   UNL     1     -36.969  22.991   3.666  0.00  0.00    +0.156 HD
ENDROOT
BRANCH   1  16
ATOM     14  O4* UNL     1     -41.763  26.497   0.575  0.00  0.00    -0.333 OA
ATOM     15  C2* UNL     1     -42.840  26.392   2.718  0.00  0.00    +0.187 C 
ATOM     16  C1* UNL     1     -42.078  25.595   1.658  0.00  0.00    +0.225 C 
ATOM     17  C3* UNL     1     -42.511  27.829   2.360  0.00  0.00    +0.171 C 
ATOM     18  C4* UNL     1     -42.385  27.764   0.848  0.00  0.00    +0.175 C 
BRANCH  15  19
ATOM     19  O2* UNL     1     -44.235  26.134   2.587  0.00  0.00    -0.378 OA
ATOM     20  H2* UNL     1     -44.721  26.624   3.269  0.00  0.00    +0.211 HD
ENDBRANCH  15  19
BRANCH  17  21
ATOM     21  O3* UNL     1     -43.496  28.751   2.771  0.00  0.00    -0.379 OA
ATOM     22  H3* UNL     1     -44.283  28.656   2.210  0.00  0.00    +0.211 HD
ENDBRANCH  17  21
BRANCH  18  23
ATOM     23  C5* UNL     1     -41.545  28.885   0.261  0.00  0.00    +0.169 C 
BRANCH  23  24
ATOM     24  O5* UNL     1     -41.549  29.976   1.165  0.00  0.00    -0.379 OA
ATOM     25  H5* UNL     1     -40.939  30.660   0.849  0.00  0.00    +0.211 HD
ENDBRANCH  23  24
ENDBRANCH  18  23
ENDBRANCH   1  16
BRANCH  12  26
ATOM     26  C   UNL     1     -35.176  21.347   3.919  0.00  0.00    +0.085 C 
BRANCH  26  27
ATOM     27  C   UNL     1     -35.373  22.467   4.938  0.00  0.00    +0.010 C 
ATOM     28  C   UNL     1     -35.431  21.951   6.369  0.00  0.00    +0.001 C 
ENDBRANCH  26  27
ENDBRANCH  12  26
TORSDOF 7
ENDMDL
MODEL 8
REMARK VINA RESULT:      -5.6      2.203      7.748
REMARK  Name = 192800
REMARK  7 active torsions:
REMARK  status: ('A' for Active; 'I' for Inactive)
REMARK    1  A    between atoms: N_1  and  C1*_12
REMARK    2  A    between atoms: C2*_11  and  O2*_15
REMARK    3  A    between atoms: C3*_13  and  O3*_17
REMARK    4  A    between atoms: C4*_14  and  C5*_19
REMARK    5  A    between atoms: C5*_19  and  O5*_20
REMARK    6  A    between atoms: C_24  and  C_26
REMARK    7  A    between atoms: C_26  and  C_27
REMARK                            x       y       z     vdW  Elec       q    Type
REMARK                         _______ _______ _______ _____ _____    ______ ____
ROOT
ATOM      1  N   UNL     1     -32.632  27.369   4.309  0.00  0.00    -0.247 N 
ATOM      2  N   UNL     1     -32.650  25.820   2.701  0.00  0.00    -0.242 NA
ATOM      3  N   UNL     1     -34.531  26.619   5.626  0.00  0.00    -0.228 NA
ATOM      4  N   UNL     1     -35.551  24.623   4.660  0.00  0.00    -0.228 NA
ATOM      5  C   UNL     1     -33.678  26.536   4.593  0.00  0.00    +0.152 C 
ATOM      6  C   UNL     1     -32.047  26.897   3.162  0.00  0.00    +0.223 C 
ATOM      7  C   UNL     1     -33.673  25.584   3.587  0.00  0.00    +0.140 C 
ATOM      8  C   UNL     1     -34.655  24.601   3.643  0.00  0.00    +0.152 C 
ATOM      9  C   UNL     1     -35.435  25.617   5.574  0.00  0.00    +0.253 C 
ATOM     10  O   UNL     1     -36.556  22.299   3.333  0.00  0.00    -0.275 OA
ATOM     11  N   UNL     1     -34.718  23.608   2.666  0.00  0.00    -0.268 N 
ATOM     12  C   UNL     1     -35.632  22.546   2.565  0.00  0.00    +0.227 C 
ATOM     13  H   UNL     1     -34.035  23.656   1.959  0.00  0.00    +0.156 HD
ENDROOT
BRANCH   1  16
ATOM     14  O4* UNL     1     -31.304  29.336   4.274  0.00  0.00    -0.333 OA
ATOM     15  C2* UNL     1     -31.495  28.201   6.380  0.00  0.00    +0.187 C 
ATOM     16  C1* UNL     1     -32.210  28.544   5.072  0.00  0.00    +0.225 C 
ATOM     17  C3* UNL     1     -30.036  28.451   6.042  0.00  0.00    +0.171 C 
ATOM     18  C4* UNL     1     -30.127  29.601   5.055  0.00  0.00    +0.175 C 
BRANCH  15  19
ATOM     19  O2* UNL     1     -31.945  29.081   7.407  0.00  0.00    -0.378 OA
ATOM     20  H2* UNL     1     -31.435  28.922   8.217  0.00  0.00    +0.211 HD
ENDBRANCH  15  19
BRANCH  17  21
ATOM     21  O3* UNL     1     -29.247  28.777   7.165  0.00  0.00    -0.379 OA
ATOM     22  H3* UNL     1     -29.740  29.379   7.744  0.00  0.00    +0.211 HD
ENDBRANCH  17  21
BRANCH  18  23
ATOM     23  C5* UNL     1     -28.919  29.712   4.141  0.00  0.00    +0.169 C 
BRANCH  23  24
ATOM     24  O5* UNL     1     -27.767  29.925   4.937  0.00  0.00    -0.379 OA
ATOM     25  H5* UNL     1     -27.723  29.248   5.631  0.00  0.00    +0.211 HD
ENDBRANCH  23  24
ENDBRANCH  18  23
ENDBRANCH   1  16
BRANCH  12  26
ATOM     26  C   UNL     1     -35.326  21.669   1.356  0.00  0.00    +0.085 C 
BRANCH  26  27
ATOM     27  C   UNL     1     -35.347  20.173   1.656  0.00  0.00    +0.010 C 
ATOM     28  C   UNL     1     -33.973  19.532   1.530  0.00  0.00    +0.001 C 
ENDBRANCH  26  27
ENDBRANCH  12  26
TORSDOF 7
ENDMDL
MODEL 9
REMARK VINA RESULT:      -5.6      2.538      3.550
REMARK  Name = 192800
REMARK  7 active torsions:
REMARK  status: ('A' for Active; 'I' for Inactive)
REMARK    1  A    between atoms: N_1  and  C1*_12
REMARK    2  A    between atoms: C2*_11  and  O2*_15
REMARK    3  A    between atoms: C3*_13  and  O3*_17
REMARK    4  A    between atoms: C4*_14  and  C5*_19
REMARK    5  A    between atoms: C5*_19  and  O5*_20
REMARK    6  A    between atoms: C_24  and  C_26
REMARK    7  A    between atoms: C_26  and  C_27
REMARK                            x       y       z     vdW  Elec       q    Type
REMARK                         _______ _______ _______ _____ _____    ______ ____
ROOT
ATOM      1  N   UNL     1     -35.098  24.952   3.121  0.00  0.00    -0.247 N 
ATOM      2  N   UNL     1     -33.610  25.347   4.737  0.00  0.00    -0.242 NA
ATOM      3  N   UNL     1     -35.452  27.219   2.322  0.00  0.00    -0.228 NA
ATOM      4  N   UNL     1     -34.099  28.823   3.569  0.00  0.00    -0.228 NA
ATOM      5  C   UNL     1     -34.886  26.303   3.123  0.00  0.00    +0.152 C 
ATOM      6  C   UNL     1     -34.309  24.424   4.110  0.00  0.00    +0.223 C 
ATOM      7  C   UNL     1     -33.962  26.527   4.130  0.00  0.00    +0.140 C 
ATOM      8  C   UNL     1     -33.568  27.844   4.342  0.00  0.00    +0.152 C 
ATOM      9  C   UNL     1     -34.995  28.454   2.621  0.00  0.00    +0.253 C 
ATOM     10  O   UNL     1     -32.420  30.489   5.174  0.00  0.00    -0.275 OA
ATOM     11  N   UNL     1     -32.642  28.153   5.338  0.00  0.00    -0.268 N 
ATOM     12  C   UNL     1     -32.134  29.415   5.690  0.00  0.00    +0.227 C 
ATOM     13  H   UNL     1     -32.301  27.391   5.860  0.00  0.00    +0.156 HD
ENDROOT
BRANCH   1  16
ATOM     14  O4* UNL     1     -36.320  22.935   2.850  0.00  0.00    -0.333 OA
ATOM     15  C2* UNL     1     -35.402  23.916   0.861  0.00  0.00    +0.187 C 
ATOM     16  C1* UNL     1     -35.996  24.203   2.240  0.00  0.00    +0.225 C 
ATOM     17  C3* UNL     1     -35.008  22.454   0.962  0.00  0.00    +0.171 C 
ATOM     18  C4* UNL     1     -36.074  21.896   1.888  0.00  0.00    +0.175 C 
BRANCH  15  19
ATOM     19  O2* UNL     1     -36.405  24.112  -0.133  0.00  0.00    -0.378 OA
ATOM     20  H2* UNL     1     -36.414  25.043  -0.406  0.00  0.00    +0.211 HD
ENDBRANCH  15  19
BRANCH  17  21
ATOM     21  O3* UNL     1     -34.985  21.790  -0.283  0.00  0.00    -0.379 OA
ATOM     22  H3* UNL     1     -34.298  22.181  -0.846  0.00  0.00    +0.211 HD
ENDBRANCH  17  21
BRANCH  18  23
ATOM     23  C5* UNL     1     -35.650  20.625   2.603  0.00  0.00    +0.169 C 
BRANCH  23  24
ATOM     24  O5* UNL     1     -36.754  19.737   2.642  0.00  0.00    -0.379 OA
ATOM     25  H5* UNL     1     -37.550  20.198   2.336  0.00  0.00    +0.211 HD
ENDBRANCH  23  24
ENDBRANCH  18  23
ENDBRANCH   1  16
BRANCH  12  26
ATOM     26  C   UNL     1     -31.115  29.303   6.819  0.00  0.00    +0.085 C 
BRANCH  26  27
ATOM     27  C   UNL     1     -29.673  29.528   6.375  0.00  0.00    +0.010 C 
ATOM     28  C   UNL     1     -28.845  28.251   6.409  0.00  0.00    +0.001 C 
ENDBRANCH  26  27
ENDBRANCH  12  26
TORSDOF 7
ENDMDL
