MODEL 1
REMARK VINA RESULT:      -5.2      0.000      0.000
REMARK  Name = 5311218
REMARK  9 active torsions:
REMARK  status: ('A' for Active; 'I' for Inactive)
REMARK    1  A    between atoms: C_1  and  C_3
REMARK    2  A    between atoms: C_1  and  O_6
REMARK    3  A    between atoms: C_1  and  CA_14
REMARK    4  A    between atoms: C_3  and  O_4
REMARK    5  A    between atoms: O_6  and  C_7
REMARK    6  A    between atoms: C_7  and  C_8
REMARK    7  A    between atoms: CA_14  and  N_15
REMARK    8  A    between atoms: CA_14  and  C_20
REMARK    9  A    between atoms: C_20  and  O_21
REMARK                            x       y       z     vdW  Elec       q    Type
REMARK                         _______ _______ _______ _____ _____    ______ ____
ROOT
ATOM      1  C   UNL     1     -38.281  22.090   1.359  0.00  0.00    +0.204 C 
ENDROOT
BRANCH   1   3
ATOM      2  O   UNL     1     -40.590  21.975   0.590  0.00  0.00    -0.248 OA
ATOM      3  C   UNL     1     -39.731  21.657   1.401  0.00  0.00    +0.340 C 
BRANCH   3   4
ATOM      4  O   UNL     1     -39.976  20.882   2.487  0.00  0.00    -0.479 OA
ATOM      5  H   UNL     1     -40.773  20.987   2.967  0.00  0.00    +0.295 HD
ENDBRANCH   3   4
ENDBRANCH   1   3
BRANCH   1   6
ATOM      6  O   UNL     1     -37.870  22.413   2.680  0.00  0.00    -0.342 OA
BRANCH   6   7
ATOM      7  C   UNL     1     -37.906  23.816   2.909  0.00  0.00    +0.169 C 
BRANCH   7   8
ATOM      8  C   UNL     1     -36.819  24.183   3.875  0.00  0.00    +0.007 C 
ATOM      9  C   UNL     1     -35.919  23.213   4.302  0.00  0.00    -0.002 C 
ATOM     10  C   UNL     1     -36.718  25.493   4.334  0.00  0.00    -0.002 C 
ATOM     11  C   UNL     1     -34.908  23.554   5.200  0.00  0.00    -0.000 C 
ATOM     12  C   UNL     1     -35.707  25.834   5.233  0.00  0.00    -0.000 C 
ATOM     13  C   UNL     1     -34.802  24.865   5.665  0.00  0.00    -0.000 C 
ENDBRANCH   7   8
ENDBRANCH   6   7
ENDBRANCH   1   6
BRANCH   1  14
ATOM     14  CA  UNL     1     -37.362  21.013   0.768  0.00  0.00    +0.074 C 
BRANCH  14  15
ATOM     15  N   UNL     1     -38.170  19.883   0.300  0.00  0.00    +0.391 N 
ATOM     16  H1  UNL     1     -37.571  19.211  -0.179  0.00  0.00    -0.088 HD
ATOM     17  H2  UNL     1     -38.885  20.221  -0.345  0.00  0.00    -0.088 HD
ATOM     18  H3  UNL     1     -38.619  19.432   1.097  0.00  0.00    -0.088 HD
ENDBRANCH  14  15
BRANCH  14  20
ATOM     19  OXT UNL     1     -35.166  20.685   1.786  0.00  0.00    -0.253 OA
ATOM     20  C   UNL     1     -36.372  20.474   1.791  0.00  0.00    +0.296 C 
BRANCH  20  21
ATOM     21  O   UNL     1     -36.976  19.699   2.729  0.00  0.00    -0.482 OA
ATOM     22  H   UNL     1     -37.218  20.068   3.556  0.00  0.00    +0.295 HD
ENDBRANCH  20  21
ENDBRANCH  14  20
ENDBRANCH   1  14
TORSDOF 9
ENDMDL
MODEL 2
REMARK VINA RESULT:      -4.9      2.045      3.051
REMARK  Name = 5311218
REMARK  9 active torsions:
REMARK  status: ('A' for Active; 'I' for Inactive)
REMARK    1  A    between atoms: C_1  and  C_3
REMARK    2  A    between atoms: C_1  and  O_6
REMARK    3  A    between atoms: C_1  and  CA_14
REMARK    4  A    between atoms: C_3  and  O_4
REMARK    5  A    between atoms: O_6  and  C_7
REMARK    6  A    between atoms: C_7  and  C_8
REMARK    7  A    between atoms: CA_14  and  N_15
REMARK    8  A    between atoms: CA_14  and  C_20
REMARK    9  A    between atoms: C_20  and  O_21
REMARK                            x       y       z     vdW  Elec       q    Type
REMARK                         _______ _______ _______ _____ _____    ______ ____
ROOT
ATOM      1  C   UNL     1     -38.546  23.424   1.392  0.00  0.00    +0.204 C 
ENDROOT
BRANCH   1   3
ATOM      2  O   UNL     1     -39.396  24.321   3.492  0.00  0.00    -0.248 OA
ATOM      3  C   UNL     1     -39.015  24.504   2.344  0.00  0.00    +0.340 C 
BRANCH   3   4
ATOM      4  O   UNL     1     -38.990  25.722   1.748  0.00  0.00    -0.479 OA
ATOM      5  H   UNL     1     -38.218  26.251   1.797  0.00  0.00    +0.295 HD
ENDBRANCH   3   4
ENDBRANCH   1   3
BRANCH   1   6
ATOM      6  O   UNL     1     -37.831  22.448   2.137  0.00  0.00    -0.342 OA
BRANCH   6   7
ATOM      7  C   UNL     1     -36.441  22.742   2.183  0.00  0.00    +0.169 C 
BRANCH   7   8
ATOM      8  C   UNL     1     -35.972  22.669   3.606  0.00  0.00    +0.007 C 
ATOM      9  C   UNL     1     -35.523  21.458   4.122  0.00  0.00    -0.002 C 
ATOM     10  C   UNL     1     -35.989  23.813   4.397  0.00  0.00    -0.002 C 
ATOM     11  C   UNL     1     -35.087  21.390   5.446  0.00  0.00    -0.000 C 
ATOM     12  C   UNL     1     -35.553  23.745   5.720  0.00  0.00    -0.000 C 
ATOM     13  C   UNL     1     -35.102  22.534   6.245  0.00  0.00    -0.000 C 
ENDBRANCH   7   8
ENDBRANCH   6   7
ENDBRANCH   1   6
BRANCH   1  14
ATOM     14  CA  UNL     1     -39.706  22.765   0.633  0.00  0.00    +0.074 C 
BRANCH  14  15
ATOM     15  N   UNL     1     -40.970  23.391   1.031  0.00  0.00    +0.391 N 
ATOM     16  H1  UNL     1     -41.588  22.686   1.432  0.00  0.00    -0.088 HD
ATOM     17  H2  UNL     1     -41.415  23.808   0.213  0.00  0.00    -0.088 HD
ATOM     18  H3  UNL     1     -40.788  24.117   1.724  0.00  0.00    -0.088 HD
ENDBRANCH  14  15
BRANCH  14  20
ATOM     19  OXT UNL     1     -39.560  20.376   0.142  0.00  0.00    -0.253 OA
ATOM     20  C   UNL     1     -39.819  21.276   0.931  0.00  0.00    +0.296 C 
BRANCH  20  21
ATOM     21  O   UNL     1     -40.265  21.039   2.192  0.00  0.00    -0.482 OA
ATOM     22  H   UNL     1     -40.058  20.231   2.618  0.00  0.00    +0.295 HD
ENDBRANCH  20  21
ENDBRANCH  14  20
ENDBRANCH   1  14
TORSDOF 9
ENDMDL
MODEL 3
REMARK VINA RESULT:      -4.9      3.462      5.396
REMARK  Name = 5311218
REMARK  9 active torsions:
REMARK  status: ('A' for Active; 'I' for Inactive)
REMARK    1  A    between atoms: C_1  and  C_3
REMARK    2  A    between atoms: C_1  and  O_6
REMARK    3  A    between atoms: C_1  and  CA_14
REMARK    4  A    between atoms: C_3  and  O_4
REMARK    5  A    between atoms: O_6  and  C_7
REMARK    6  A    between atoms: C_7  and  C_8
REMARK    7  A    between atoms: CA_14  and  N_15
REMARK    8  A    between atoms: CA_14  and  C_20
REMARK    9  A    between atoms: C_20  and  O_21
REMARK                            x       y       z     vdW  Elec       q    Type
REMARK                         _______ _______ _______ _____ _____    ______ ____
ROOT
ATOM      1  C   UNL     1     -36.686  24.357   4.098  0.00  0.00    +0.204 C 
ENDROOT
BRANCH   1   3
ATOM      2  O   UNL     1     -37.610  25.988   2.542  0.00  0.00    -0.248 OA
ATOM      3  C   UNL     1     -37.776  25.180   3.444  0.00  0.00    +0.340 C 
BRANCH   3   4
ATOM      4  O   UNL     1     -38.982  24.928   4.013  0.00  0.00    -0.479 OA
ATOM      5  H   UNL     1     -39.677  24.570   3.497  0.00  0.00    +0.295 HD
ENDBRANCH   3   4
ENDBRANCH   1   3
BRANCH   1   6
ATOM      6  O   UNL     1     -35.928  23.722   3.077  0.00  0.00    -0.342 OA
BRANCH   6   7
ATOM      7  C   UNL     1     -36.378  22.393   2.844  0.00  0.00    +0.169 C 
BRANCH   7   8
ATOM      8  C   UNL     1     -35.339  21.656   2.052  0.00  0.00    +0.007 C 
ATOM      9  C   UNL     1     -35.105  20.309   2.308  0.00  0.00    -0.002 C 
ATOM     10  C   UNL     1     -34.620  22.326   1.068  0.00  0.00    -0.002 C 
ATOM     11  C   UNL     1     -34.139  19.624   1.572  0.00  0.00    -0.000 C 
ATOM     12  C   UNL     1     -33.653  21.640   0.332  0.00  0.00    -0.000 C 
ATOM     13  C   UNL     1     -33.413  20.290   0.584  0.00  0.00    -0.000 C 
ENDBRANCH   7   8
ENDBRANCH   6   7
ENDBRANCH   1   6
BRANCH   1  14
ATOM     14  CA  UNL     1     -35.766  25.201   4.990  0.00  0.00    +0.074 C 
BRANCH  14  15
ATOM     15  N   UNL     1     -36.433  26.464   5.325  0.00  0.00    +0.391 N 
ATOM     16  H1  UNL     1     -35.908  27.242   4.927  0.00  0.00    -0.088 HD
ATOM     17  H2  UNL     1     -36.477  26.567   6.339  0.00  0.00    -0.088 HD
ATOM     18  H3  UNL     1     -37.379  26.461   4.943  0.00  0.00    -0.088 HD
ENDBRANCH  14  15
BRANCH  14  20
ATOM     19  OXT UNL     1     -33.350  25.133   4.639  0.00  0.00    -0.253 OA
ATOM     20  C   UNL     1     -34.452  25.547   4.303  0.00  0.00    +0.296 C 
BRANCH  20  21
ATOM     21  O   UNL     1     -34.629  26.398   3.259  0.00  0.00    -0.482 OA
ATOM     22  H   UNL     1     -34.534  26.087   2.380  0.00  0.00    +0.295 HD
ENDBRANCH  20  21
ENDBRANCH  14  20
ENDBRANCH   1  14
TORSDOF 9
ENDMDL
MODEL 4
REMARK VINA RESULT:      -4.8      3.367      5.789
REMARK  Name = 5311218
REMARK  9 active torsions:
REMARK  status: ('A' for Active; 'I' for Inactive)
REMARK    1  A    between atoms: C_1  and  C_3
REMARK    2  A    between atoms: C_1  and  O_6
REMARK    3  A    between atoms: C_1  and  CA_14
REMARK    4  A    between atoms: C_3  and  O_4
REMARK    5  A    between atoms: O_6  and  C_7
REMARK    6  A    between atoms: C_7  and  C_8
REMARK    7  A    between atoms: CA_14  and  N_15
REMARK    8  A    between atoms: CA_14  and  C_20
REMARK    9  A    between atoms: C_20  and  O_21
REMARK                            x       y       z     vdW  Elec       q    Type
REMARK                         _______ _______ _______ _____ _____    ______ ____
ROOT
ATOM      1  C   UNL     1     -35.725  25.431   3.693  0.00  0.00    +0.204 C 
ENDROOT
BRANCH   1   3
ATOM      2  O   UNL     1     -34.338  26.692   5.249  0.00  0.00    -0.248 OA
ATOM      3  C   UNL     1     -35.441  26.289   4.908  0.00  0.00    +0.340 C 
BRANCH   3   4
ATOM      4  O   UNL     1     -36.579  26.539   5.603  0.00  0.00    -0.479 OA
ATOM      5  H   UNL     1     -36.658  27.328   6.103  0.00  0.00    +0.295 HD
ENDBRANCH   3   4
ENDBRANCH   1   3
BRANCH   1   6
ATOM      6  O   UNL     1     -36.651  24.420   4.065  0.00  0.00    -0.342 OA
BRANCH   6   7
ATOM      7  C   UNL     1     -35.993  23.199   4.380  0.00  0.00    +0.169 C 
BRANCH   7   8
ATOM      8  C   UNL     1     -36.279  22.195   3.303  0.00  0.00    +0.007 C 
ATOM      9  C   UNL     1     -35.384  21.157   3.073  0.00  0.00    -0.002 C 
ATOM     10  C   UNL     1     -37.440  22.311   2.545  0.00  0.00    -0.002 C 
ATOM     11  C   UNL     1     -35.650  20.224   2.071  0.00  0.00    -0.000 C 
ATOM     12  C   UNL     1     -37.706  21.378   1.542  0.00  0.00    -0.000 C 
ATOM     13  C   UNL     1     -36.811  20.335   1.306  0.00  0.00    -0.000 C 
ENDBRANCH   7   8
ENDBRANCH   6   7
ENDBRANCH   1   6
BRANCH   1  14
ATOM     14  CA  UNL     1     -36.274  26.243   2.513  0.00  0.00    +0.074 C 
BRANCH  14  15
ATOM     15  N   UNL     1     -36.069  27.673   2.766  0.00  0.00    +0.391 N 
ATOM     16  H1  UNL     1     -35.611  27.797   3.669  0.00  0.00    -0.088 HD
ATOM     17  H2  UNL     1     -36.971  28.149   2.775  0.00  0.00    -0.088 HD
ATOM     18  H3  UNL     1     -35.484  28.068   2.031  0.00  0.00    -0.088 HD
ENDBRANCH  14  15
BRANCH  14  20
ATOM     19  OXT UNL     1     -38.276  25.538   1.305  0.00  0.00    -0.253 OA
ATOM     20  C   UNL     1     -37.766  26.024   2.306  0.00  0.00    +0.296 C 
BRANCH  20  21
ATOM     21  O   UNL     1     -38.498  26.450   3.368  0.00  0.00    -0.482 OA
ATOM     22  H   UNL     1     -39.048  25.848   3.830  0.00  0.00    +0.295 HD
ENDBRANCH  20  21
ENDBRANCH  14  20
ENDBRANCH   1  14
TORSDOF 9
ENDMDL
MODEL 5
REMARK VINA RESULT:      -4.8      3.311      5.625
REMARK  Name = 5311218
REMARK  9 active torsions:
REMARK  status: ('A' for Active; 'I' for Inactive)
REMARK    1  A    between atoms: C_1  and  C_3
REMARK    2  A    between atoms: C_1  and  O_6
REMARK    3  A    between atoms: C_1  and  CA_14
REMARK    4  A    between atoms: C_3  and  O_4
REMARK    5  A    between atoms: O_6  and  C_7
REMARK    6  A    between atoms: C_7  and  C_8
REMARK    7  A    between atoms: CA_14  and  N_15
REMARK    8  A    between atoms: CA_14  and  C_20
REMARK    9  A    between atoms: C_20  and  O_21
REMARK                            x       y       z     vdW  Elec       q    Type
REMARK                         _______ _______ _______ _____ _____    ______ ____
ROOT
ATOM      1  C   UNL     1     -35.698  24.631   3.517  0.00  0.00    +0.204 C 
ENDROOT
BRANCH   1   3
ATOM      2  O   UNL     1     -34.497  23.843   5.485  0.00  0.00    -0.248 OA
ATOM      3  C   UNL     1     -35.481  23.794   4.760  0.00  0.00    +0.340 C 
BRANCH   3   4
ATOM      4  O   UNL     1     -36.519  22.944   4.962  0.00  0.00    -0.479 OA
ATOM      5  H   UNL     1     -36.389  22.154   5.448  0.00  0.00    +0.295 HD
ENDBRANCH   3   4
ENDBRANCH   1   3
BRANCH   1   6
ATOM      6  O   UNL     1     -36.325  23.819   2.533  0.00  0.00    -0.342 OA
BRANCH   6   7
ATOM      7  C   UNL     1     -35.538  23.731   1.352  0.00  0.00    +0.169 C 
BRANCH   7   8
ATOM      8  C   UNL     1     -34.927  22.364   1.271  0.00  0.00    +0.007 C 
ATOM      9  C   UNL     1     -35.431  21.336   2.060  0.00  0.00    -0.002 C 
ATOM     10  C   UNL     1     -33.862  22.135   0.405  0.00  0.00    -0.002 C 
ATOM     11  C   UNL     1     -34.863  20.064   1.985  0.00  0.00    -0.000 C 
ATOM     12  C   UNL     1     -33.294  20.864   0.330  0.00  0.00    -0.000 C 
ATOM     13  C   UNL     1     -33.794  19.828   1.119  0.00  0.00    -0.000 C 
ENDBRANCH   7   8
ENDBRANCH   6   7
ENDBRANCH   1   6
BRANCH   1  14
ATOM     14  CA  UNL     1     -36.546  25.881   3.789  0.00  0.00    +0.074 C 
BRANCH  14  15
ATOM     15  N   UNL     1     -36.625  26.113   5.235  0.00  0.00    +0.391 N 
ATOM     16  H1  UNL     1     -36.100  26.954   5.473  0.00  0.00    -0.088 HD
ATOM     17  H2  UNL     1     -36.230  25.314   5.730  0.00  0.00    -0.088 HD
ATOM     18  H3  UNL     1     -37.600  26.233   5.508  0.00  0.00    -0.088 HD
ENDBRANCH  14  15
BRANCH  14  20
ATOM     19  OXT UNL     1     -38.475  26.426   2.394  0.00  0.00    -0.253 OA
ATOM     20  C   UNL     1     -37.970  25.737   3.271  0.00  0.00    +0.296 C 
BRANCH  20  21
ATOM     21  O   UNL     1     -38.649  24.748   3.908  0.00  0.00    -0.482 OA
ATOM     22  H   UNL     1     -38.477  23.851   3.698  0.00  0.00    +0.295 HD
ENDBRANCH  20  21
ENDBRANCH  14  20
ENDBRANCH   1  14
TORSDOF 9
ENDMDL
MODEL 6
REMARK VINA RESULT:      -4.8      2.084      3.166
REMARK  Name = 5311218
REMARK  9 active torsions:
REMARK  status: ('A' for Active; 'I' for Inactive)
REMARK    1  A    between atoms: C_1  and  C_3
REMARK    2  A    between atoms: C_1  and  O_6
REMARK    3  A    between atoms: C_1  and  CA_14
REMARK    4  A    between atoms: C_3  and  O_4
REMARK    5  A    between atoms: O_6  and  C_7
REMARK    6  A    between atoms: C_7  and  C_8
REMARK    7  A    between atoms: CA_14  and  N_15
REMARK    8  A    between atoms: CA_14  and  C_20
REMARK    9  A    between atoms: C_20  and  O_21
REMARK                            x       y       z     vdW  Elec       q    Type
REMARK                         _______ _______ _______ _____ _____    ______ ____
ROOT
ATOM      1  C   UNL     1     -37.673  24.075   2.588  0.00  0.00    +0.204 C 
ENDROOT
BRANCH   1   3
ATOM      2  O   UNL     1     -38.499  26.365   2.685  0.00  0.00    -0.248 OA
ATOM      3  C   UNL     1     -38.598  25.193   3.020  0.00  0.00    +0.340 C 
BRANCH   3   4
ATOM      4  O   UNL     1     -39.553  24.733   3.868  0.00  0.00    -0.479 OA
ATOM      5  H   UNL     1     -39.408  23.944   4.352  0.00  0.00    +0.295 HD
ENDBRANCH   3   4
ENDBRANCH   1   3
BRANCH   1   6
ATOM      6  O   UNL     1     -37.378  23.271   3.722  0.00  0.00    -0.342 OA
BRANCH   6   7
ATOM      7  C   UNL     1     -35.993  22.954   3.790  0.00  0.00    +0.169 C 
BRANCH   7   8
ATOM      8  C   UNL     1     -35.229  24.177   4.200  0.00  0.00    +0.007 C 
ATOM      9  C   UNL     1     -35.444  24.736   5.455  0.00  0.00    -0.002 C 
ATOM     10  C   UNL     1     -34.311  24.743   3.321  0.00  0.00    -0.002 C 
ATOM     11  C   UNL     1     -34.734  25.874   5.836  0.00  0.00    -0.000 C 
ATOM     12  C   UNL     1     -33.601  25.881   3.702  0.00  0.00    -0.000 C 
ATOM     13  C   UNL     1     -33.812  26.447   4.959  0.00  0.00    -0.000 C 
ENDBRANCH   7   8
ENDBRANCH   6   7
ENDBRANCH   1   6
BRANCH   1  14
ATOM     14  CA  UNL     1     -38.275  23.211   1.471  0.00  0.00    +0.074 C 
BRANCH  14  15
ATOM     15  N   UNL     1     -39.202  24.020   0.673  0.00  0.00    +0.391 N 
ATOM     16  H1  UNL     1     -39.892  24.452   1.288  0.00  0.00    -0.088 HD
ATOM     17  H2  UNL     1     -39.677  23.424  -0.005  0.00  0.00    -0.088 HD
ATOM     18  H3  UNL     1     -38.683  24.747   0.181  0.00  0.00    -0.088 HD
ENDBRANCH  14  15
BRANCH  14  20
ATOM     19  OXT UNL     1     -40.247  22.033   2.302  0.00  0.00    -0.253 OA
ATOM     20  C   UNL     1     -39.056  22.024   2.016  0.00  0.00    +0.296 C 
BRANCH  20  21
ATOM     21  O   UNL     1     -38.273  20.925   2.174  0.00  0.00    -0.482 OA
ATOM     22  H   UNL     1     -38.214  20.290   1.487  0.00  0.00    +0.295 HD
ENDBRANCH  20  21
ENDBRANCH  14  20
ENDBRANCH   1  14
TORSDOF 9
ENDMDL
MODEL 7
REMARK VINA RESULT:      -4.8      3.208      5.540
REMARK  Name = 5311218
REMARK  9 active torsions:
REMARK  status: ('A' for Active; 'I' for Inactive)
REMARK    1  A    between atoms: C_1  and  C_3
REMARK    2  A    between atoms: C_1  and  O_6
REMARK    3  A    between atoms: C_1  and  CA_14
REMARK    4  A    between atoms: C_3  and  O_4
REMARK    5  A    between atoms: O_6  and  C_7
REMARK    6  A    between atoms: C_7  and  C_8
REMARK    7  A    between atoms: CA_14  and  N_15
REMARK    8  A    between atoms: CA_14  and  C_20
REMARK    9  A    between atoms: C_20  and  O_21
REMARK                            x       y       z     vdW  Elec       q    Type
REMARK                         _______ _______ _______ _____ _____    ______ ____
ROOT
ATOM      1  C   UNL     1     -35.779  22.454   2.277  0.00  0.00    +0.204 C 
ENDROOT
BRANCH   1   3
ATOM      2  O   UNL     1     -35.056  22.897   4.561  0.00  0.00    -0.248 OA
ATOM      3  C   UNL     1     -35.465  22.112   3.718  0.00  0.00    +0.340 C 
BRANCH   3   4
ATOM      4  O   UNL     1     -35.670  20.792   3.959  0.00  0.00    -0.479 OA
ATOM      5  H   UNL     1     -35.834  20.496   4.833  0.00  0.00    +0.295 HD
ENDBRANCH   3   4
ENDBRANCH   1   3
BRANCH   1   6
ATOM      6  O   UNL     1     -35.432  21.341   1.465  0.00  0.00    -0.342 OA
BRANCH   6   7
ATOM      7  C   UNL     1     -34.308  21.626   0.641  0.00  0.00    +0.169 C 
BRANCH   7   8
ATOM      8  C   UNL     1     -33.358  20.466   0.691  0.00  0.00    +0.007 C 
ATOM      9  C   UNL     1     -32.137  20.547   0.031  0.00  0.00    -0.002 C 
ATOM     10  C   UNL     1     -33.707  19.320   1.398  0.00  0.00    -0.002 C 
ATOM     11  C   UNL     1     -31.253  19.469   0.078  0.00  0.00    -0.000 C 
ATOM     12  C   UNL     1     -32.823  18.242   1.444  0.00  0.00    -0.000 C 
ATOM     13  C   UNL     1     -31.597  18.316   0.784  0.00  0.00    -0.000 C 
ENDBRANCH   7   8
ENDBRANCH   6   7
ENDBRANCH   1   6
BRANCH   1  14
ATOM     14  CA  UNL     1     -37.253  22.823   2.066  0.00  0.00    +0.074 C 
BRANCH  14  15
ATOM     15  N   UNL     1     -37.888  23.063   3.366  0.00  0.00    +0.391 N 
ATOM     16  H1  UNL     1     -38.271  22.189   3.725  0.00  0.00    -0.088 HD
ATOM     17  H2  UNL     1     -38.639  23.744   3.257  0.00  0.00    -0.088 HD
ATOM     18  H3  UNL     1     -37.195  23.425   4.022  0.00  0.00    -0.088 HD
ENDBRANCH  14  15
BRANCH  14  20
ATOM     19  OXT UNL     1     -38.529  21.788   0.258  0.00  0.00    -0.253 OA
ATOM     20  C   UNL     1     -38.033  21.713   1.375  0.00  0.00    +0.296 C 
BRANCH  20  21
ATOM     21  O   UNL     1     -38.142  20.604   2.152  0.00  0.00    -0.482 OA
ATOM     22  H   UNL     1     -37.877  20.633   3.050  0.00  0.00    +0.295 HD
ENDBRANCH  20  21
ENDBRANCH  14  20
ENDBRANCH   1  14
TORSDOF 9
ENDMDL
MODEL 8
REMARK VINA RESULT:      -4.8      3.747      5.710
REMARK  Name = 5311218
REMARK  9 active torsions:
REMARK  status: ('A' for Active; 'I' for Inactive)
REMARK    1  A    between atoms: C_1  and  C_3
REMARK    2  A    between atoms: C_1  and  O_6
REMARK    3  A    between atoms: C_1  and  CA_14
REMARK    4  A    between atoms: C_3  and  O_4
REMARK    5  A    between atoms: O_6  and  C_7
REMARK    6  A    between atoms: C_7  and  C_8
REMARK    7  A    between atoms: CA_14  and  N_15
REMARK    8  A    between atoms: CA_14  and  C_20
REMARK    9  A    between atoms: C_20  and  O_21
REMARK                            x       y       z     vdW  Elec       q    Type
REMARK                         _______ _______ _______ _____ _____    ______ ____
ROOT
ATOM      1  C   UNL     1     -36.286  25.356   3.095  0.00  0.00    +0.204 C 
ENDROOT
BRANCH   1   3
ATOM      2  O   UNL     1     -34.828  27.293   2.861  0.00  0.00    -0.248 OA
ATOM      3  C   UNL     1     -35.931  26.782   2.732  0.00  0.00    +0.340 C 
BRANCH   3   4
ATOM      4  O   UNL     1     -37.017  27.449   2.265  0.00  0.00    -0.479 OA
ATOM      5  H   UNL     1     -37.877  27.114   2.426  0.00  0.00    +0.295 HD
ENDBRANCH   3   4
ENDBRANCH   1   3
BRANCH   1   6
ATOM      6  O   UNL     1     -35.187  24.520   2.759  0.00  0.00    -0.342 OA
BRANCH   6   7
ATOM      7  C   UNL     1     -35.316  23.989   1.447  0.00  0.00    +0.169 C 
BRANCH   7   8
ATOM      8  C   UNL     1     -34.949  22.535   1.468  0.00  0.00    +0.007 C 
ATOM      9  C   UNL     1     -35.532  21.690   2.406  0.00  0.00    -0.002 C 
ATOM     10  C   UNL     1     -34.030  22.043   0.547  0.00  0.00    -0.002 C 
ATOM     11  C   UNL     1     -35.190  20.338   2.425  0.00  0.00    -0.000 C 
ATOM     12  C   UNL     1     -33.688  20.691   0.566  0.00  0.00    -0.000 C 
ATOM     13  C   UNL     1     -34.268  19.839   1.505  0.00  0.00    -0.000 C 
ENDBRANCH   7   8
ENDBRANCH   6   7
ENDBRANCH   1   6
BRANCH   1  14
ATOM     14  CA  UNL     1     -36.638  25.196   4.580  0.00  0.00    +0.074 C 
BRANCH  14  15
ATOM     15  N   UNL     1     -36.486  26.485   5.260  0.00  0.00    +0.391 N 
ATOM     16  H1  UNL     1     -36.934  26.442   6.175  0.00  0.00    -0.088 HD
ATOM     17  H2  UNL     1     -36.923  27.218   4.702  0.00  0.00    -0.088 HD
ATOM     18  H3  UNL     1     -35.494  26.694   5.377  0.00  0.00    -0.088 HD
ENDBRANCH  14  15
BRANCH  14  20
ATOM     19  OXT UNL     1     -36.068  23.085   5.671  0.00  0.00    -0.253 OA
ATOM     20  C   UNL     1     -35.730  24.197   5.284  0.00  0.00    +0.296 C 
BRANCH  20  21
ATOM     21  O   UNL     1     -34.474  24.683   5.460  0.00  0.00    -0.482 OA
ATOM     22  H   UNL     1     -33.743  24.245   5.071  0.00  0.00    +0.295 HD
ENDBRANCH  20  21
ENDBRANCH  14  20
ENDBRANCH   1  14
TORSDOF 9
ENDMDL
MODEL 9
REMARK VINA RESULT:      -4.7      3.027      5.171
REMARK  Name = 5311218
REMARK  9 active torsions:
REMARK  status: ('A' for Active; 'I' for Inactive)
REMARK    1  A    between atoms: C_1  and  C_3
REMARK    2  A    between atoms: C_1  and  O_6
REMARK    3  A    between atoms: C_1  and  CA_14
REMARK    4  A    between atoms: C_3  and  O_4
REMARK    5  A    between atoms: O_6  and  C_7
REMARK    6  A    between atoms: C_7  and  C_8
REMARK    7  A    between atoms: CA_14  and  N_15
REMARK    8  A    between atoms: CA_14  and  C_20
REMARK    9  A    between atoms: C_20  and  O_21
REMARK                            x       y       z     vdW  Elec       q    Type
REMARK                         _______ _______ _______ _____ _____    ______ ____
ROOT
ATOM      1  C   UNL     1     -36.227  22.406   1.886  0.00  0.00    +0.204 C 
ENDROOT
BRANCH   1   3
ATOM      2  O   UNL     1     -36.601  24.237   3.448  0.00  0.00    -0.248 OA
ATOM      3  C   UNL     1     -36.445  23.042   3.242  0.00  0.00    +0.340 C 
BRANCH   3   4
ATOM      4  O   UNL     1     -36.415  22.109   4.227  0.00  0.00    -0.479 OA
ATOM      5  H   UNL     1     -35.779  22.173   4.913  0.00  0.00    +0.295 HD
ENDBRANCH   3   4
ENDBRANCH   1   3
BRANCH   1   6
ATOM      6  O   UNL     1     -35.080  21.571   1.959  0.00  0.00    -0.342 OA
BRANCH   6   7
ATOM      7  C   UNL     1     -34.301  21.650   0.772  0.00  0.00    +0.169 C 
BRANCH   7   8
ATOM      8  C   UNL     1     -33.338  20.500   0.741  0.00  0.00    +0.007 C 
ATOM      9  C   UNL     1     -33.634  19.333   1.437  0.00  0.00    -0.002 C 
ATOM     10  C   UNL     1     -32.157  20.611   0.014  0.00  0.00    -0.002 C 
ATOM     11  C   UNL     1     -32.738  18.265   1.408  0.00  0.00    -0.000 C 
ATOM     12  C   UNL     1     -31.261  19.542  -0.014  0.00  0.00    -0.000 C 
ATOM     13  C   UNL     1     -31.551  18.369   0.682  0.00  0.00    -0.000 C 
ENDBRANCH   7   8
ENDBRANCH   6   7
ENDBRANCH   1   6
BRANCH   1  14
ATOM     14  CA  UNL     1     -37.441  21.594   1.415  0.00  0.00    +0.074 C 
BRANCH  14  15
ATOM     15  N   UNL     1     -38.565  21.819   2.329  0.00  0.00    +0.391 N 
ATOM     16  H1  UNL     1     -38.307  22.525   3.018  0.00  0.00    -0.088 HD
ATOM     17  H2  UNL     1     -38.796  20.947   2.806  0.00  0.00    -0.088 HD
ATOM     18  H3  UNL     1     -39.376  22.141   1.800  0.00  0.00    -0.088 HD
ENDBRANCH  14  15
BRANCH  14  20
ATOM     19  OXT UNL     1     -37.164  19.393   0.391  0.00  0.00    -0.253 OA
ATOM     20  C   UNL     1     -37.163  20.098   1.393  0.00  0.00    +0.296 C 
BRANCH  20  21
ATOM     21  O   UNL     1     -36.920  19.604   2.635  0.00  0.00    -0.482 OA
ATOM     22  H   UNL     1     -36.959  20.171   3.380  0.00  0.00    +0.295 HD
ENDBRANCH  20  21
ENDBRANCH  14  20
ENDBRANCH   1  14
TORSDOF 9
ENDMDL
