MODEL 1
REMARK VINA RESULT:      -7.0      0.000      0.000
REMARK  Name = 52997
REMARK  4 active torsions:
REMARK  status: ('A' for Active; 'I' for Inactive)
REMARK    1  A    between atoms: N_2  and  S_15
REMARK    2  A    between atoms: S_15  and  C_18
REMARK    3  A    between atoms: C_19  and  C_25
REMARK    4  A    between atoms: C_25  and  O_26
REMARK                            x       y       z     vdW  Elec       q    Type
REMARK                         _______ _______ _______ _____ _____    ______ ____
ROOT
ATOM      1  O   UNL     1     -38.755  24.723   1.716  0.00  0.00    -0.250 OA
ATOM      2  N   UNL     1     -37.211  25.720   3.138  0.00  0.00    -0.168 N 
ATOM      3  N   UNL     1     -39.458  26.322   3.265  0.00  0.00    -0.192 N 
ATOM      4  N   UNL     1     -41.527  27.273   3.803  0.00  0.00    -0.336 NA
ATOM      5  N   UNL     1     -41.337  25.611   2.069  0.00  0.00    -0.336 NA
ATOM      6  C   UNL     1     -38.533  25.519   2.620  0.00  0.00    +0.333 C 
ATOM      7  C   UNL     1     -40.851  26.407   3.033  0.00  0.00    +0.205 C 
ATOM      8  C   UNL     1     -42.851  27.329   3.554  0.00  0.00    +0.107 C 
ATOM      9  C   UNL     1     -42.667  25.718   1.872  0.00  0.00    +0.107 C 
ATOM     10  C   UNL     1     -43.483  26.568   2.592  0.00  0.00    +0.111 C 
ATOM     11  C   UNL     1     -43.649  28.279   4.381  0.00  0.00    +0.063 C 
ATOM     12  C   UNL     1     -43.261  24.857   0.809  0.00  0.00    +0.063 C 
ATOM     13  H   UNL     1     -37.111  26.340   3.896  0.00  0.00    +0.178 HD
ATOM     14  H   UNL     1     -39.102  26.906   3.974  0.00  0.00    +0.170 HD
ENDROOT
BRANCH   2  15
ATOM     15  S   UNL     1     -35.790  24.970   2.542  0.00  0.00    +0.077 S 
ATOM     16  O   UNL     1     -34.695  25.927   2.590  0.00  0.00    -0.150 OA
ATOM     17  O   UNL     1     -36.105  24.295   1.292  0.00  0.00    -0.150 OA
BRANCH  15  18
ATOM     18  C   UNL     1     -35.512  23.734   3.750  0.00  0.00    +0.131 C 
ATOM     19  C   UNL     1     -35.133  24.065   5.051  0.00  0.00    +0.094 C 
ATOM     20  C   UNL     1     -35.675  22.397   3.389  0.00  0.00    +0.020 C 
ATOM     21  C   UNL     1     -34.919  23.057   5.992  0.00  0.00    +0.008 C 
ATOM     22  C   UNL     1     -35.460  21.390   4.330  0.00  0.00    +0.001 C 
ATOM     23  C   UNL     1     -35.081  21.720   5.631  0.00  0.00    +0.000 C 
BRANCH  19  25
ATOM     24  O   UNL     1     -35.858  26.232   5.748  0.00  0.00    -0.245 OA
ATOM     25  C   UNL     1     -34.951  25.450   5.466  0.00  0.00    +0.343 C 
BRANCH  25  26
ATOM     26  O   UNL     1     -33.622  25.783   5.502  0.00  0.00    -0.441 OA
ATOM     27  C   UNL     1     -33.237  26.737   6.498  0.00  0.00    +0.256 C 
ENDBRANCH  25  26
ENDBRANCH  19  25
ENDBRANCH  15  18
ENDBRANCH   2  15
TORSDOF 4
ENDMDL
MODEL 2
REMARK VINA RESULT:      -6.9      2.821      7.913
REMARK  Name = 52997
REMARK  4 active torsions:
REMARK  status: ('A' for Active; 'I' for Inactive)
REMARK    1  A    between atoms: N_2  and  S_15
REMARK    2  A    between atoms: S_15  and  C_18
REMARK    3  A    between atoms: C_19  and  C_25
REMARK    4  A    between atoms: C_25  and  O_26
REMARK                            x       y       z     vdW  Elec       q    Type
REMARK                         _______ _______ _______ _____ _____    ______ ____
ROOT
ATOM      1  O   UNL     1     -38.648  26.768   1.854  0.00  0.00    -0.250 OA
ATOM      2  N   UNL     1     -40.635  25.826   2.606  0.00  0.00    -0.168 N 
ATOM      3  N   UNL     1     -38.604  25.104   3.491  0.00  0.00    -0.192 N 
ATOM      4  N   UNL     1     -36.900  24.034   4.685  0.00  0.00    -0.336 NA
ATOM      5  N   UNL     1     -36.396  25.737   3.057  0.00  0.00    -0.336 NA
ATOM      6  C   UNL     1     -39.208  25.967   2.593  0.00  0.00    +0.333 C 
ATOM      7  C   UNL     1     -37.224  24.949   3.759  0.00  0.00    +0.205 C 
ATOM      8  C   UNL     1     -35.577  23.913   4.914  0.00  0.00    +0.107 C 
ATOM      9  C   UNL     1     -35.087  25.564   3.336  0.00  0.00    +0.107 C 
ATOM     10  C   UNL     1     -34.615  24.658   4.264  0.00  0.00    +0.111 C 
ATOM     11  C   UNL     1     -35.163  22.905   5.933  0.00  0.00    +0.063 C 
ATOM     12  C   UNL     1     -34.121  26.413   2.582  0.00  0.00    +0.063 C 
ATOM     13  H   UNL     1     -41.022  25.198   3.257  0.00  0.00    +0.178 HD
ATOM     14  H   UNL     1     -39.212  24.525   4.007  0.00  0.00    +0.170 HD
ENDROOT
BRANCH   2  15
ATOM     15  S   UNL     1     -41.721  26.662   1.578  0.00  0.00    +0.077 S 
ATOM     16  O   UNL     1     -41.745  26.002   0.281  0.00  0.00    -0.150 OA
ATOM     17  O   UNL     1     -41.440  28.087   1.658  0.00  0.00    -0.150 OA
BRANCH  15  18
ATOM     18  C   UNL     1     -43.251  26.383   2.380  0.00  0.00    +0.131 C 
ATOM     19  C   UNL     1     -43.601  27.079   3.537  0.00  0.00    +0.094 C 
ATOM     20  C   UNL     1     -44.128  25.442   1.840  0.00  0.00    +0.020 C 
ATOM     21  C   UNL     1     -44.828  26.835   4.154  0.00  0.00    +0.008 C 
ATOM     22  C   UNL     1     -45.355  25.197   2.457  0.00  0.00    +0.001 C 
ATOM     23  C   UNL     1     -45.705  25.893   3.614  0.00  0.00    +0.000 C 
BRANCH  19  25
ATOM     24  O   UNL     1     -41.588  27.837   4.575  0.00  0.00    -0.245 OA
ATOM     25  C   UNL     1     -42.712  28.068   4.132  0.00  0.00    +0.343 C 
BRANCH  25  26
ATOM     26  O   UNL     1     -43.291  29.310   4.141  0.00  0.00    -0.441 OA
ATOM     27  C   UNL     1     -43.551  29.878   5.430  0.00  0.00    +0.256 C 
ENDBRANCH  25  26
ENDBRANCH  19  25
ENDBRANCH  15  18
ENDBRANCH   2  15
TORSDOF 4
ENDMDL
MODEL 3
REMARK VINA RESULT:      -6.8      1.602      3.185
REMARK  Name = 52997
REMARK  4 active torsions:
REMARK  status: ('A' for Active; 'I' for Inactive)
REMARK    1  A    between atoms: N_2  and  S_15
REMARK    2  A    between atoms: S_15  and  C_18
REMARK    3  A    between atoms: C_19  and  C_25
REMARK    4  A    between atoms: C_25  and  O_26
REMARK                            x       y       z     vdW  Elec       q    Type
REMARK                         _______ _______ _______ _____ _____    ______ ____
ROOT
ATOM      1  O   UNL     1     -38.116  26.744   2.264  0.00  0.00    -0.250 OA
ATOM      2  N   UNL     1     -37.906  25.330   4.097  0.00  0.00    -0.168 N 
ATOM      3  N   UNL     1     -40.017  25.787   3.223  0.00  0.00    -0.192 N 
ATOM      4  N   UNL     1     -42.308  25.902   2.766  0.00  0.00    -0.336 NA
ATOM      5  N   UNL     1     -40.713  27.119   1.433  0.00  0.00    -0.336 NA
ATOM      6  C   UNL     1     -38.660  26.031   3.098  0.00  0.00    +0.333 C 
ATOM      7  C   UNL     1     -41.071  26.297   2.431  0.00  0.00    +0.205 C 
ATOM      8  C   UNL     1     -43.288  26.408   1.990  0.00  0.00    +0.107 C 
ATOM      9  C   UNL     1     -41.742  27.589   0.697  0.00  0.00    +0.107 C 
ATOM     10  C   UNL     1     -43.063  27.264   0.932  0.00  0.00    +0.111 C 
ATOM     11  C   UNL     1     -44.684  26.001   2.323  0.00  0.00    +0.063 C 
ATOM     12  C   UNL     1     -41.401  28.510  -0.425  0.00  0.00    +0.063 C 
ATOM     13  H   UNL     1     -38.402  24.737   4.706  0.00  0.00    +0.178 HD
ATOM     14  H   UNL     1     -40.281  25.183   3.956  0.00  0.00    +0.170 HD
ENDROOT
BRANCH   2  15
ATOM     15  S   UNL     1     -36.210  25.444   4.316  0.00  0.00    +0.077 S 
ATOM     16  O   UNL     1     -35.940  26.293   5.467  0.00  0.00    -0.150 OA
ATOM     17  O   UNL     1     -35.590  25.744   3.035  0.00  0.00    -0.150 OA
BRANCH  15  18
ATOM     18  C   UNL     1     -35.797  23.794   4.726  0.00  0.00    +0.131 C 
ATOM     19  C   UNL     1     -35.947  22.758   3.803  0.00  0.00    +0.094 C 
ATOM     20  C   UNL     1     -35.309  23.523   6.005  0.00  0.00    +0.020 C 
ATOM     21  C   UNL     1     -35.608  21.452   4.159  0.00  0.00    +0.008 C 
ATOM     22  C   UNL     1     -34.971  22.217   6.360  0.00  0.00    +0.001 C 
ATOM     23  C   UNL     1     -35.121  21.182   5.438  0.00  0.00    +0.000 C 
BRANCH  19  25
ATOM     24  O   UNL     1     -35.763  23.258   1.475  0.00  0.00    -0.245 OA
ATOM     25  C   UNL     1     -36.454  23.000   2.459  0.00  0.00    +0.343 C 
BRANCH  25  26
ATOM     26  O   UNL     1     -37.821  22.905   2.423  0.00  0.00    -0.441 OA
ATOM     27  C   UNL     1     -38.360  21.850   1.619  0.00  0.00    +0.256 C 
ENDBRANCH  25  26
ENDBRANCH  19  25
ENDBRANCH  15  18
ENDBRANCH   2  15
TORSDOF 4
ENDMDL
MODEL 4
REMARK VINA RESULT:      -6.8      2.181      3.266
REMARK  Name = 52997
REMARK  4 active torsions:
REMARK  status: ('A' for Active; 'I' for Inactive)
REMARK    1  A    between atoms: N_2  and  S_15
REMARK    2  A    between atoms: S_15  and  C_18
REMARK    3  A    between atoms: C_19  and  C_25
REMARK    4  A    between atoms: C_25  and  O_26
REMARK                            x       y       z     vdW  Elec       q    Type
REMARK                         _______ _______ _______ _____ _____    ______ ____
ROOT
ATOM      1  O   UNL     1     -40.843  25.143   2.372  0.00  0.00    -0.250 OA
ATOM      2  N   UNL     1     -38.925  25.663   3.577  0.00  0.00    -0.168 N 
ATOM      3  N   UNL     1     -40.853  26.940   3.863  0.00  0.00    -0.192 N 
ATOM      4  N   UNL     1     -42.461  28.508   4.517  0.00  0.00    -0.336 NA
ATOM      5  N   UNL     1     -42.975  26.805   2.893  0.00  0.00    -0.336 NA
ATOM      6  C   UNL     1     -40.293  25.865   3.195  0.00  0.00    +0.333 C 
ATOM      7  C   UNL     1     -42.169  27.446   3.752  0.00  0.00    +0.205 C 
ATOM      8  C   UNL     1     -43.723  28.964   4.384  0.00  0.00    +0.107 C 
ATOM      9  C   UNL     1     -44.223  27.313   2.809  0.00  0.00    +0.107 C 
ATOM     10  C   UNL     1     -44.656  28.402   3.539  0.00  0.00    +0.111 C 
ATOM     11  C   UNL     1     -44.099  30.147   5.212  0.00  0.00    +0.063 C 
ATOM     12  C   UNL     1     -45.161  26.640   1.866  0.00  0.00    +0.063 C 
ATOM     13  H   UNL     1     -38.559  26.249   4.278  0.00  0.00    +0.178 HD
ATOM     14  H   UNL     1     -40.261  27.411   4.495  0.00  0.00    +0.170 HD
ENDROOT
BRANCH   2  15
ATOM     15  S   UNL     1     -37.875  24.485   2.909  0.00  0.00    +0.077 S 
ATOM     16  O   UNL     1     -37.561  24.857   1.537  0.00  0.00    -0.150 OA
ATOM     17  O   UNL     1     -38.410  23.163   3.196  0.00  0.00    -0.150 OA
BRANCH  15  18
ATOM     18  C   UNL     1     -36.441  24.695   3.891  0.00  0.00    +0.131 C 
ATOM     19  C   UNL     1     -35.324  23.876   3.727  0.00  0.00    +0.094 C 
ATOM     20  C   UNL     1     -36.429  25.707   4.851  0.00  0.00    +0.020 C 
ATOM     21  C   UNL     1     -34.195  24.068   4.525  0.00  0.00    +0.008 C 
ATOM     22  C   UNL     1     -35.301  25.898   5.649  0.00  0.00    +0.001 C 
ATOM     23  C   UNL     1     -34.184  25.079   5.486  0.00  0.00    +0.000 C 
BRANCH  19  25
ATOM     24  O   UNL     1     -35.003  22.947   1.550  0.00  0.00    -0.245 OA
ATOM     25  C   UNL     1     -35.297  22.808   2.736  0.00  0.00    +0.343 C 
BRANCH  25  26
ATOM     26  O   UNL     1     -35.649  21.607   3.296  0.00  0.00    -0.441 OA
ATOM     27  C   UNL     1     -36.023  20.569   2.383  0.00  0.00    +0.256 C 
ENDBRANCH  25  26
ENDBRANCH  19  25
ENDBRANCH  15  18
ENDBRANCH   2  15
TORSDOF 4
ENDMDL
MODEL 5
REMARK VINA RESULT:      -6.7      4.941      8.864
REMARK  Name = 52997
REMARK  4 active torsions:
REMARK  status: ('A' for Active; 'I' for Inactive)
REMARK    1  A    between atoms: N_2  and  S_15
REMARK    2  A    between atoms: S_15  and  C_18
REMARK    3  A    between atoms: C_19  and  C_25
REMARK    4  A    between atoms: C_25  and  O_26
REMARK                            x       y       z     vdW  Elec       q    Type
REMARK                         _______ _______ _______ _____ _____    ______ ____
ROOT
ATOM      1  O   UNL     1     -34.149  21.354   1.142  0.00  0.00    -0.250 OA
ATOM      2  N   UNL     1     -36.207  20.525   1.833  0.00  0.00    -0.168 N 
ATOM      3  N   UNL     1     -34.552  19.054   1.107  0.00  0.00    -0.192 N 
ATOM      4  N   UNL     1     -33.288  17.186   0.489  0.00  0.00    -0.336 NA
ATOM      5  N   UNL     1     -32.376  19.410   0.331  0.00  0.00    -0.336 NA
ATOM      6  C   UNL     1     -34.871  20.382   1.331  0.00  0.00    +0.333 C 
ATOM      7  C   UNL     1     -33.339  18.520   0.615  0.00  0.00    +0.205 C 
ATOM      8  C   UNL     1     -32.117  16.712   0.017  0.00  0.00    +0.107 C 
ATOM      9  C   UNL     1     -31.232  18.868  -0.136  0.00  0.00    +0.107 C 
ATOM     10  C   UNL     1     -31.044  17.512  -0.316  0.00  0.00    +0.111 C 
ATOM     11  C   UNL     1     -32.009  15.233  -0.145  0.00  0.00    +0.063 C 
ATOM     12  C   UNL     1     -30.128  19.813  -0.471  0.00  0.00    +0.063 C 
ATOM     13  H   UNL     1     -36.716  19.700   2.007  0.00  0.00    +0.178 HD
ATOM     14  H   UNL     1     -35.259  18.400   1.316  0.00  0.00    +0.170 HD
ENDROOT
BRANCH   2  15
ATOM     15  S   UNL     1     -36.990  22.015   2.154  0.00  0.00    +0.077 S 
ATOM     16  O   UNL     1     -38.409  21.767   2.360  0.00  0.00    -0.150 OA
ATOM     17  O   UNL     1     -36.563  22.992   1.165  0.00  0.00    -0.150 OA
BRANCH  15  18
ATOM     18  C   UNL     1     -36.271  22.468   3.684  0.00  0.00    +0.131 C 
ATOM     19  C   UNL     1     -36.430  23.751   4.209  0.00  0.00    +0.094 C 
ATOM     20  C   UNL     1     -35.527  21.516   4.382  0.00  0.00    +0.020 C 
ATOM     21  C   UNL     1     -35.844  24.082   5.431  0.00  0.00    +0.008 C 
ATOM     22  C   UNL     1     -34.941  21.848   5.603  0.00  0.00    +0.001 C 
ATOM     23  C   UNL     1     -35.099  23.130   6.128  0.00  0.00    +0.000 C 
BRANCH  19  25
ATOM     24  O   UNL     1     -36.727  25.621   2.753  0.00  0.00    -0.245 OA
ATOM     25  C   UNL     1     -37.198  24.773   3.510  0.00  0.00    +0.343 C 
BRANCH  25  26
ATOM     26  O   UNL     1     -38.532  24.674   3.805  0.00  0.00    -0.441 OA
ATOM     27  C   UNL     1     -39.439  25.119   2.789  0.00  0.00    +0.256 C 
ENDBRANCH  25  26
ENDBRANCH  19  25
ENDBRANCH  15  18
ENDBRANCH   2  15
TORSDOF 4
ENDMDL
MODEL 6
REMARK VINA RESULT:      -6.7      3.388      7.518
REMARK  Name = 52997
REMARK  4 active torsions:
REMARK  status: ('A' for Active; 'I' for Inactive)
REMARK    1  A    between atoms: N_2  and  S_15
REMARK    2  A    between atoms: S_15  and  C_18
REMARK    3  A    between atoms: C_19  and  C_25
REMARK    4  A    between atoms: C_25  and  O_26
REMARK                            x       y       z     vdW  Elec       q    Type
REMARK                         _______ _______ _______ _____ _____    ______ ____
ROOT
ATOM      1  O   UNL     1     -33.933  26.018   5.914  0.00  0.00    -0.250 OA
ATOM      2  N   UNL     1     -34.475  24.663   4.104  0.00  0.00    -0.168 N 
ATOM      3  N   UNL     1     -33.284  26.635   3.758  0.00  0.00    -0.192 N 
ATOM      4  N   UNL     1     -32.112  28.453   2.866  0.00  0.00    -0.336 NA
ATOM      5  N   UNL     1     -32.529  28.286   5.232  0.00  0.00    -0.336 NA
ATOM      6  C   UNL     1     -33.882  25.823   4.705  0.00  0.00    +0.333 C 
ATOM      7  C   UNL     1     -32.604  27.859   3.963  0.00  0.00    +0.205 C 
ATOM      8  C   UNL     1     -31.472  29.617   3.098  0.00  0.00    +0.107 C 
ATOM      9  C   UNL     1     -31.876  29.455   5.393  0.00  0.00    +0.107 C 
ATOM     10  C   UNL     1     -31.321  30.172   4.352  0.00  0.00    +0.111 C 
ATOM     11  C   UNL     1     -30.908  30.320   1.910  0.00  0.00    +0.063 C 
ATOM     12  C   UNL     1     -31.765  29.977   6.785  0.00  0.00    +0.063 C 
ATOM     13  H   UNL     1     -34.356  24.545   3.135  0.00  0.00    +0.178 HD
ATOM     14  H   UNL     1     -33.338  26.323   2.825  0.00  0.00    +0.170 HD
ENDROOT
BRANCH   2  15
ATOM     15  S   UNL     1     -35.375  23.468   4.939  0.00  0.00    +0.077 S 
ATOM     16  O   UNL     1     -36.469  24.112   5.651  0.00  0.00    -0.150 OA
ATOM     17  O   UNL     1     -34.453  22.604   5.660  0.00  0.00    -0.150 OA
BRANCH  15  18
ATOM     18  C   UNL     1     -36.038  22.537   3.613  0.00  0.00    +0.131 C 
ATOM     19  C   UNL     1     -37.041  23.055   2.793  0.00  0.00    +0.094 C 
ATOM     20  C   UNL     1     -35.544  21.253   3.383  0.00  0.00    +0.020 C 
ATOM     21  C   UNL     1     -37.549  22.289   1.744  0.00  0.00    +0.008 C 
ATOM     22  C   UNL     1     -36.052  20.487   2.334  0.00  0.00    +0.001 C 
ATOM     23  C   UNL     1     -37.055  21.005   1.515  0.00  0.00    +0.000 C 
BRANCH  19  25
ATOM     24  O   UNL     1     -37.039  25.440   2.663  0.00  0.00    -0.245 OA
ATOM     25  C   UNL     1     -37.585  24.391   3.002  0.00  0.00    +0.343 C 
BRANCH  25  26
ATOM     26  O   UNL     1     -38.799  24.336   3.634  0.00  0.00    -0.441 OA
ATOM     27  C   UNL     1     -39.886  24.996   2.974  0.00  0.00    +0.256 C 
ENDBRANCH  25  26
ENDBRANCH  19  25
ENDBRANCH  15  18
ENDBRANCH   2  15
TORSDOF 4
ENDMDL
MODEL 7
REMARK VINA RESULT:      -6.6      2.889      8.076
REMARK  Name = 52997
REMARK  4 active torsions:
REMARK  status: ('A' for Active; 'I' for Inactive)
REMARK    1  A    between atoms: N_2  and  S_15
REMARK    2  A    between atoms: S_15  and  C_18
REMARK    3  A    between atoms: C_19  and  C_25
REMARK    4  A    between atoms: C_25  and  O_26
REMARK                            x       y       z     vdW  Elec       q    Type
REMARK                         _______ _______ _______ _____ _____    ______ ____
ROOT
ATOM      1  O   UNL     1     -38.951  26.835   2.266  0.00  0.00    -0.250 OA
ATOM      2  N   UNL     1     -40.822  26.143   3.458  0.00  0.00    -0.168 N 
ATOM      3  N   UNL     1     -38.863  24.885   3.548  0.00  0.00    -0.192 N 
ATOM      4  N   UNL     1     -37.208  23.289   3.978  0.00  0.00    -0.336 NA
ATOM      5  N   UNL     1     -36.774  25.172   2.539  0.00  0.00    -0.336 NA
ATOM      6  C   UNL     1     -39.463  26.015   3.019  0.00  0.00    +0.333 C 
ATOM      7  C   UNL     1     -37.542  24.423   3.344  0.00  0.00    +0.205 C 
ATOM      8  C   UNL     1     -35.941  22.878   3.760  0.00  0.00    +0.107 C 
ATOM      9  C   UNL     1     -35.520  24.704   2.365  0.00  0.00    +0.107 C 
ATOM     10  C   UNL     1     -35.045  23.550   2.957  0.00  0.00    +0.111 C 
ATOM     11  C   UNL     1     -35.520  21.620   4.441  0.00  0.00    +0.063 C 
ATOM     12  C   UNL     1     -34.623  25.497   1.477  0.00  0.00    +0.063 C 
ATOM     13  H   UNL     1     -41.155  25.475   4.100  0.00  0.00    +0.178 HD
ATOM     14  H   UNL     1     -39.427  24.334   4.139  0.00  0.00    +0.170 HD
ENDROOT
BRANCH   2  15
ATOM     15  S   UNL     1     -41.914  27.365   2.955  0.00  0.00    +0.077 S 
ATOM     16  O   UNL     1     -41.618  27.722   1.576  0.00  0.00    -0.150 OA
ATOM     17  O   UNL     1     -41.961  28.401   3.976  0.00  0.00    -0.150 OA
BRANCH  15  18
ATOM     18  C   UNL     1     -43.442  26.512   3.001  0.00  0.00    +0.131 C 
ATOM     19  C   UNL     1     -43.794  25.602   2.005  0.00  0.00    +0.094 C 
ATOM     20  C   UNL     1     -44.314  26.758   4.062  0.00  0.00    +0.020 C 
ATOM     21  C   UNL     1     -45.020  24.938   2.069  0.00  0.00    +0.008 C 
ATOM     22  C   UNL     1     -45.539  26.094   4.126  0.00  0.00    +0.001 C 
ATOM     23  C   UNL     1     -45.892  25.184   3.130  0.00  0.00    +0.000 C 
BRANCH  19  25
ATOM     24  O   UNL     1     -42.987  25.843  -0.230  0.00  0.00    -0.245 OA
ATOM     25  C   UNL     1     -42.912  25.319   0.880  0.00  0.00    +0.343 C 
BRANCH  25  26
ATOM     26  O   UNL     1     -41.972  24.381   1.216  0.00  0.00    -0.441 OA
ATOM     27  C   UNL     1     -40.927  24.163   0.260  0.00  0.00    +0.256 C 
ENDBRANCH  25  26
ENDBRANCH  19  25
ENDBRANCH  15  18
ENDBRANCH   2  15
TORSDOF 4
ENDMDL
MODEL 8
REMARK VINA RESULT:      -6.5      4.391      6.388
REMARK  Name = 52997
REMARK  4 active torsions:
REMARK  status: ('A' for Active; 'I' for Inactive)
REMARK    1  A    between atoms: N_2  and  S_15
REMARK    2  A    between atoms: S_15  and  C_18
REMARK    3  A    between atoms: C_19  and  C_25
REMARK    4  A    between atoms: C_25  and  O_26
REMARK                            x       y       z     vdW  Elec       q    Type
REMARK                         _______ _______ _______ _____ _____    ______ ____
ROOT
ATOM      1  O   UNL     1     -35.944  28.335   2.026  0.00  0.00    -0.250 OA
ATOM      2  N   UNL     1     -35.091  26.515   3.192  0.00  0.00    -0.168 N 
ATOM      3  N   UNL     1     -33.972  28.557   3.256  0.00  0.00    -0.192 N 
ATOM      4  N   UNL     1     -32.485  30.320   3.650  0.00  0.00    -0.336 NA
ATOM      5  N   UNL     1     -34.432  30.624   2.264  0.00  0.00    -0.336 NA
ATOM      6  C   UNL     1     -35.070  27.880   2.754  0.00  0.00    +0.333 C 
ATOM      7  C   UNL     1     -33.609  29.908   3.045  0.00  0.00    +0.205 C 
ATOM      8  C   UNL     1     -32.170  31.612   3.427  0.00  0.00    +0.107 C 
ATOM      9  C   UNL     1     -34.057  31.907   2.083  0.00  0.00    +0.107 C 
ATOM     10  C   UNL     1     -32.925  32.461   2.645  0.00  0.00    +0.111 C 
ATOM     11  C   UNL     1     -30.926  32.120   4.076  0.00  0.00    +0.063 C 
ATOM     12  C   UNL     1     -34.935  32.748   1.220  0.00  0.00    +0.063 C 
ATOM     13  H   UNL     1     -34.385  26.228   3.814  0.00  0.00    +0.178 HD
ATOM     14  H   UNL     1     -33.367  28.032   3.830  0.00  0.00    +0.170 HD
ENDROOT
BRANCH   2  15
ATOM     15  S   UNL     1     -36.246  25.341   2.717  0.00  0.00    +0.077 S 
ATOM     16  O   UNL     1     -36.010  24.984   1.325  0.00  0.00    -0.150 OA
ATOM     17  O   UNL     1     -37.566  25.786   3.135  0.00  0.00    -0.150 OA
BRANCH  15  18
ATOM     18  C   UNL     1     -35.805  23.983   3.729  0.00  0.00    +0.131 C 
ATOM     19  C   UNL     1     -35.263  24.173   5.000  0.00  0.00    +0.094 C 
ATOM     20  C   UNL     1     -36.005  22.692   3.241  0.00  0.00    +0.020 C 
ATOM     21  C   UNL     1     -34.921  23.070   5.784  0.00  0.00    +0.008 C 
ATOM     22  C   UNL     1     -35.662  21.590   4.024  0.00  0.00    +0.001 C 
ATOM     23  C   UNL     1     -35.120  21.778   5.295  0.00  0.00    +0.000 C 
BRANCH  19  25
ATOM     24  O   UNL     1     -35.914  26.256   5.969  0.00  0.00    -0.245 OA
ATOM     25  C   UNL     1     -35.037  25.505   5.544  0.00  0.00    +0.343 C 
BRANCH  25  26
ATOM     26  O   UNL     1     -33.706  25.827   5.524  0.00  0.00    -0.441 OA
ATOM     27  C   UNL     1     -33.255  26.718   6.552  0.00  0.00    +0.256 C 
ENDBRANCH  25  26
ENDBRANCH  19  25
ENDBRANCH  15  18
ENDBRANCH   2  15
TORSDOF 4
ENDMDL
MODEL 9
REMARK VINA RESULT:      -6.5      2.478      8.224
REMARK  Name = 52997
REMARK  4 active torsions:
REMARK  status: ('A' for Active; 'I' for Inactive)
REMARK    1  A    between atoms: N_2  and  S_15
REMARK    2  A    between atoms: S_15  and  C_18
REMARK    3  A    between atoms: C_19  and  C_25
REMARK    4  A    between atoms: C_25  and  O_26
REMARK                            x       y       z     vdW  Elec       q    Type
REMARK                         _______ _______ _______ _____ _____    ______ ____
ROOT
ATOM      1  O   UNL     1     -38.868  23.878   3.087  0.00  0.00    -0.250 OA
ATOM      2  N   UNL     1     -39.524  25.953   2.271  0.00  0.00    -0.168 N 
ATOM      3  N   UNL     1     -37.609  25.780   3.587  0.00  0.00    -0.192 N 
ATOM      4  N   UNL     1     -35.663  26.169   4.826  0.00  0.00    -0.336 NA
ATOM      5  N   UNL     1     -36.578  23.951   4.614  0.00  0.00    -0.336 NA
ATOM      6  C   UNL     1     -38.656  25.083   3.010  0.00  0.00    +0.333 C 
ATOM      7  C   UNL     1     -36.559  25.273   4.386  0.00  0.00    +0.205 C 
ATOM      8  C   UNL     1     -34.677  25.650   5.585  0.00  0.00    +0.107 C 
ATOM      9  C   UNL     1     -35.564  23.499   5.380  0.00  0.00    +0.107 C 
ATOM     10  C   UNL     1     -34.575  24.311   5.899  0.00  0.00    +0.111 C 
ATOM     11  C   UNL     1     -33.655  26.607   6.102  0.00  0.00    +0.063 C 
ATOM     12  C   UNL     1     -35.538  22.036   5.667  0.00  0.00    +0.063 C 
ATOM     13  H   UNL     1     -39.269  26.902   2.210  0.00  0.00    +0.178 HD
ATOM     14  H   UNL     1     -37.594  26.751   3.420  0.00  0.00    +0.170 HD
ENDROOT
BRANCH   2  15
ATOM     15  S   UNL     1     -40.970  25.475   1.486  0.00  0.00    +0.077 S 
ATOM     16  O   UNL     1     -41.119  24.032   1.609  0.00  0.00    -0.150 OA
ATOM     17  O   UNL     1     -41.018  26.097   0.172  0.00  0.00    -0.150 OA
BRANCH  15  18
ATOM     18  C   UNL     1     -42.184  26.252   2.479  0.00  0.00    +0.131 C 
ATOM     19  C   UNL     1     -43.543  26.136   2.187  0.00  0.00    +0.094 C 
ATOM     20  C   UNL     1     -41.768  27.000   3.581  0.00  0.00    +0.020 C 
ATOM     21  C   UNL     1     -44.487  26.767   2.998  0.00  0.00    +0.008 C 
ATOM     22  C   UNL     1     -42.712  27.631   4.391  0.00  0.00    +0.001 C 
ATOM     23  C   UNL     1     -44.071  27.515   4.100  0.00  0.00    +0.000 C 
BRANCH  19  25
ATOM     24  O   UNL     1     -44.241  24.156   1.048  0.00  0.00    -0.245 OA
ATOM     25  C   UNL     1     -44.016  25.365   1.045  0.00  0.00    +0.343 C 
BRANCH  25  26
ATOM     26  O   UNL     1     -44.183  26.166  -0.055  0.00  0.00    -0.441 OA
ATOM     27  C   UNL     1     -44.783  25.550  -1.200  0.00  0.00    +0.256 C 
ENDBRANCH  25  26
ENDBRANCH  19  25
ENDBRANCH  15  18
ENDBRANCH   2  15
TORSDOF 4
ENDMDL
