MODEL 1
REMARK VINA RESULT:      -5.5      0.000      0.000
REMARK  Name = 5283034
REMARK  17 active torsions:
REMARK  status: ('A' for Active; 'I' for Inactive)
REMARK    1  A    between atoms: C_2  and  C_9
REMARK    2  A    between atoms: C_3  and  C_21
REMARK    3  A    between atoms: C_4  and  O_7
REMARK    4  A    between atoms: C_10  and  C_11
REMARK    5  A    between atoms: C_11  and  O_12
REMARK    6  A    between atoms: C_11  and  C_14
REMARK    7  A    between atoms: C_14  and  C_15
REMARK    8  A    between atoms: C_15  and  C_16
REMARK    9  A    between atoms: C_16  and  C_17
REMARK   10  A    between atoms: C_17  and  C_18
REMARK   11  A    between atoms: C_18  and  O_19
REMARK   12  A    between atoms: C_21  and  C_22
REMARK   13  A    between atoms: C_23  and  C_24
REMARK   14  A    between atoms: C_24  and  C_25
REMARK   15  A    between atoms: C_25  and  C_26
REMARK   16  A    between atoms: C_26  and  C_28
REMARK   17  A    between atoms: C_28  and  O_29
REMARK                            x       y       z     vdW  Elec       q    Type
REMARK                         _______ _______ _______ _____ _____    ______ ____
ROOT
ATOM      1  O   UNL     1     -34.938  26.960   4.247  0.00  0.00    -0.296 OA
ATOM      2  C   UNL     1     -36.356  23.733   3.988  0.00  0.00    +0.056 C 
ATOM      3  C   UNL     1     -35.801  24.940   3.215  0.00  0.00    +0.068 C 
ATOM      4  C   UNL     1     -35.371  23.557   5.151  0.00  0.00    +0.122 C 
ATOM      5  C   UNL     1     -35.065  24.980   5.612  0.00  0.00    +0.094 C 
ATOM      6  C   UNL     1     -35.235  25.776   4.344  0.00  0.00    +0.153 C 
ENDROOT
BRANCH   4   7
ATOM      7  O   UNL     1     -35.978  22.815   6.196  0.00  0.00    -0.384 OA
ATOM      8  H   UNL     1     -36.452  22.055   5.822  0.00  0.00    +0.210 HD
ENDBRANCH   4   7
BRANCH   2   9
ATOM      9  C   UNL     1     -36.476  22.511   3.135  0.00  0.00    -0.026 C 
ATOM     10  C   UNL     1     -35.566  21.525   3.115  0.00  0.00    -0.002 C 
BRANCH  10  11
ATOM     11  C   UNL     1     -35.607  20.262   2.295  0.00  0.00    +0.132 C 
BRANCH  11  12
ATOM     12  O   UNL     1     -36.903  19.682   2.453  0.00  0.00    -0.380 OA
ATOM     13  H   UNL     1     -36.820  18.815   2.880  0.00  0.00    +0.211 HD
ENDBRANCH  11  12
BRANCH  11  14
ATOM     14  C   UNL     1     -35.298  20.396   0.795  0.00  0.00    +0.034 C 
BRANCH  14  15
ATOM     15  C   UNL     1     -34.369  19.283   0.295  0.00  0.00    +0.003 C 
BRANCH  15  16
ATOM     16  C   UNL     1     -33.394  18.841   1.387  0.00  0.00    +0.003 C 
BRANCH  16  17
ATOM     17  C   UNL     1     -31.969  18.731   0.850  0.00  0.00    +0.032 C 
BRANCH  17  18
ATOM     18  C   UNL     1     -31.716  17.379   0.199  0.00  0.00    +0.137 C 
BRANCH  18  19
ATOM     19  O   UNL     1     -30.567  16.791   0.792  0.00  0.00    -0.382 OA
ATOM     20  H   UNL     1     -30.133  17.440   1.369  0.00  0.00    +0.210 HD
ENDBRANCH  18  19
ENDBRANCH  17  18
ENDBRANCH  16  17
ENDBRANCH  15  16
ENDBRANCH  14  15
ENDBRANCH  11  14
ENDBRANCH  10  11
ENDBRANCH   2   9
BRANCH   3  21
ATOM     21  C   UNL     1     -36.857  25.681   2.414  0.00  0.00    +0.033 C 
BRANCH  21  22
ATOM     22  C   UNL     1     -38.086  26.130   3.157  0.00  0.00    -0.030 C 
ATOM     23  C   UNL     1     -39.364  25.866   2.841  0.00  0.00    -0.031 C 
BRANCH  23  24
ATOM     24  C   UNL     1     -39.774  25.049   1.651  0.00  0.00    +0.026 C 
BRANCH  24  25
ATOM     25  C   UNL     1     -39.863  23.544   1.937  0.00  0.00    +0.016 C 
BRANCH  25  26
ATOM     26  C   UNL     1     -39.437  22.661   0.761  0.00  0.00    +0.110 C 
BRANCH  26  28
ATOM     27  O   UNL     1     -39.587  20.308   0.154  0.00  0.00    -0.250 OA
ATOM     28  C   UNL     1     -39.623  21.181   1.010  0.00  0.00    +0.314 C 
BRANCH  28  29
ATOM     29  O   UNL     1     -39.885  20.921   2.318  0.00  0.00    -0.480 OA
ATOM     30  H   UNL     1     -40.468  20.224   2.550  0.00  0.00    +0.295 HD
ENDBRANCH  28  29
ENDBRANCH  26  28
ENDBRANCH  25  26
ENDBRANCH  24  25
ENDBRANCH  23  24
ENDBRANCH  21  22
ENDBRANCH   3  21
TORSDOF 17
ENDMDL
MODEL 2
REMARK VINA RESULT:      -5.3      2.565      5.488
REMARK  Name = 5283034
REMARK  17 active torsions:
REMARK  status: ('A' for Active; 'I' for Inactive)
REMARK    1  A    between atoms: C_2  and  C_9
REMARK    2  A    between atoms: C_3  and  C_21
REMARK    3  A    between atoms: C_4  and  O_7
REMARK    4  A    between atoms: C_10  and  C_11
REMARK    5  A    between atoms: C_11  and  O_12
REMARK    6  A    between atoms: C_11  and  C_14
REMARK    7  A    between atoms: C_14  and  C_15
REMARK    8  A    between atoms: C_15  and  C_16
REMARK    9  A    between atoms: C_16  and  C_17
REMARK   10  A    between atoms: C_17  and  C_18
REMARK   11  A    between atoms: C_18  and  O_19
REMARK   12  A    between atoms: C_21  and  C_22
REMARK   13  A    between atoms: C_23  and  C_24
REMARK   14  A    between atoms: C_24  and  C_25
REMARK   15  A    between atoms: C_25  and  C_26
REMARK   16  A    between atoms: C_26  and  C_28
REMARK   17  A    between atoms: C_28  and  O_29
REMARK                            x       y       z     vdW  Elec       q    Type
REMARK                         _______ _______ _______ _____ _____    ______ ____
ROOT
ATOM      1  O   UNL     1     -33.982  26.637   5.909  0.00  0.00    -0.296 OA
ATOM      2  C   UNL     1     -35.556  24.599   3.488  0.00  0.00    +0.056 C 
ATOM      3  C   UNL     1     -34.222  24.989   4.143  0.00  0.00    +0.068 C 
ATOM      4  C   UNL     1     -36.531  24.504   4.669  0.00  0.00    +0.122 C 
ATOM      5  C   UNL     1     -36.168  25.688   5.561  0.00  0.00    +0.094 C 
ATOM      6  C   UNL     1     -34.699  25.870   5.279  0.00  0.00    +0.153 C 
ENDROOT
BRANCH   4   7
ATOM      7  O   UNL     1     -37.868  24.619   4.208  0.00  0.00    -0.384 OA
ATOM      8  H   UNL     1     -37.890  25.174   3.412  0.00  0.00    +0.210 HD
ENDBRANCH   4   7
BRANCH   2   9
ATOM      9  C   UNL     1     -35.463  23.329   2.705  0.00  0.00    -0.026 C 
ATOM     10  C   UNL     1     -35.494  22.108   3.261  0.00  0.00    -0.002 C 
BRANCH  10  11
ATOM     11  C   UNL     1     -35.411  20.781   2.553  0.00  0.00    +0.132 C 
BRANCH  11  12
ATOM     12  O   UNL     1     -36.584  20.036   2.885  0.00  0.00    -0.380 OA
ATOM     13  H   UNL     1     -37.215  20.083   2.151  0.00  0.00    +0.211 HD
ENDBRANCH  11  12
BRANCH  11  14
ATOM     14  C   UNL     1     -35.257  20.816   1.024  0.00  0.00    +0.034 C 
BRANCH  14  15
ATOM     15  C   UNL     1     -33.786  20.848   0.591  0.00  0.00    +0.003 C 
BRANCH  15  16
ATOM     16  C   UNL     1     -33.065  19.557   0.984  0.00  0.00    +0.003 C 
BRANCH  16  17
ATOM     17  C   UNL     1     -31.668  19.492   0.370  0.00  0.00    +0.032 C 
BRANCH  17  18
ATOM     18  C   UNL     1     -31.001  18.149   0.629  0.00  0.00    +0.137 C 
BRANCH  18  19
ATOM     19  O   UNL     1     -31.917  17.306   1.313  0.00  0.00    -0.382 OA
ATOM     20  H   UNL     1     -32.720  17.808   1.529  0.00  0.00    +0.210 HD
ENDBRANCH  18  19
ENDBRANCH  17  18
ENDBRANCH  16  17
ENDBRANCH  15  16
ENDBRANCH  14  15
ENDBRANCH  11  14
ENDBRANCH  10  11
ENDBRANCH   2   9
BRANCH   3  21
ATOM     21  C   UNL     1     -33.277  25.715   3.202  0.00  0.00    +0.033 C 
BRANCH  21  22
ATOM     22  C   UNL     1     -33.891  26.389   2.004  0.00  0.00    -0.030 C 
ATOM     23  C   UNL     1     -34.223  27.684   1.888  0.00  0.00    -0.031 C 
BRANCH  23  24
ATOM     24  C   UNL     1     -34.025  28.695   2.979  0.00  0.00    +0.026 C 
BRANCH  24  25
ATOM     25  C   UNL     1     -32.738  29.518   2.831  0.00  0.00    +0.016 C 
BRANCH  25  26
ATOM     26  C   UNL     1     -32.135  29.975   4.163  0.00  0.00    +0.110 C 
BRANCH  26  28
ATOM     27  O   UNL     1     -30.941  27.924   4.707  0.00  0.00    -0.250 OA
ATOM     28  C   UNL     1     -31.682  28.837   5.050  0.00  0.00    +0.314 C 
BRANCH  28  29
ATOM     29  O   UNL     1     -32.233  28.914   6.289  0.00  0.00    -0.480 OA
ATOM     30  H   UNL     1     -33.078  28.542   6.450  0.00  0.00    +0.295 HD
ENDBRANCH  28  29
ENDBRANCH  26  28
ENDBRANCH  25  26
ENDBRANCH  24  25
ENDBRANCH  23  24
ENDBRANCH  21  22
ENDBRANCH   3  21
TORSDOF 17
ENDMDL
MODEL 3
REMARK VINA RESULT:      -5.3      2.094      6.226
REMARK  Name = 5283034
REMARK  17 active torsions:
REMARK  status: ('A' for Active; 'I' for Inactive)
REMARK    1  A    between atoms: C_2  and  C_9
REMARK    2  A    between atoms: C_3  and  C_21
REMARK    3  A    between atoms: C_4  and  O_7
REMARK    4  A    between atoms: C_10  and  C_11
REMARK    5  A    between atoms: C_11  and  O_12
REMARK    6  A    between atoms: C_11  and  C_14
REMARK    7  A    between atoms: C_14  and  C_15
REMARK    8  A    between atoms: C_15  and  C_16
REMARK    9  A    between atoms: C_16  and  C_17
REMARK   10  A    between atoms: C_17  and  C_18
REMARK   11  A    between atoms: C_18  and  O_19
REMARK   12  A    between atoms: C_21  and  C_22
REMARK   13  A    between atoms: C_23  and  C_24
REMARK   14  A    between atoms: C_24  and  C_25
REMARK   15  A    between atoms: C_25  and  C_26
REMARK   16  A    between atoms: C_26  and  C_28
REMARK   17  A    between atoms: C_28  and  O_29
REMARK                            x       y       z     vdW  Elec       q    Type
REMARK                         _______ _______ _______ _____ _____    ______ ____
ROOT
ATOM      1  O   UNL     1     -41.742  23.625   0.401  0.00  0.00    -0.296 OA
ATOM      2  C   UNL     1     -39.544  24.673   2.962  0.00  0.00    +0.056 C 
ATOM      3  C   UNL     1     -39.706  23.796   1.710  0.00  0.00    +0.068 C 
ATOM      4  C   UNL     1     -40.244  25.985   2.585  0.00  0.00    +0.122 C 
ATOM      5  C   UNL     1     -41.497  25.548   1.831  0.00  0.00    +0.094 C 
ATOM      6  C   UNL     1     -41.066  24.242   1.215  0.00  0.00    +0.153 C 
ENDROOT
BRANCH   4   7
ATOM      7  O   UNL     1     -40.594  26.705   3.756  0.00  0.00    -0.384 OA
ATOM      8  H   UNL     1     -39.879  27.321   3.984  0.00  0.00    +0.210 HD
ENDBRANCH   4   7
BRANCH   2   9
ATOM      9  C   UNL     1     -38.112  24.865   3.348  0.00  0.00    -0.026 C 
ATOM     10  C   UNL     1     -37.145  25.195   2.477  0.00  0.00    -0.002 C 
BRANCH  10  11
ATOM     11  C   UNL     1     -35.685  25.413   2.776  0.00  0.00    +0.132 C 
BRANCH  11  12
ATOM     12  O   UNL     1     -35.077  25.957   1.603  0.00  0.00    -0.380 OA
ATOM     13  H   UNL     1     -34.311  26.496   1.856  0.00  0.00    +0.211 HD
ENDBRANCH  11  12
BRANCH  11  14
ATOM     14  C   UNL     1     -35.346  26.310   3.977  0.00  0.00    +0.034 C 
BRANCH  14  15
ATOM     15  C   UNL     1     -34.530  25.568   5.042  0.00  0.00    +0.003 C 
BRANCH  15  16
ATOM     16  C   UNL     1     -35.377  24.507   5.750  0.00  0.00    +0.003 C 
BRANCH  16  17
ATOM     17  C   UNL     1     -34.859  23.100   5.463  0.00  0.00    +0.032 C 
BRANCH  17  18
ATOM     18  C   UNL     1     -35.512  22.065   6.367  0.00  0.00    +0.137 C 
BRANCH  18  19
ATOM     19  O   UNL     1     -35.326  20.776   5.800  0.00  0.00    -0.382 OA
ATOM     20  H   UNL     1     -34.448  20.727   5.390  0.00  0.00    +0.210 HD
ENDBRANCH  18  19
ENDBRANCH  17  18
ENDBRANCH  16  17
ENDBRANCH  15  16
ENDBRANCH  14  15
ENDBRANCH  11  14
ENDBRANCH  10  11
ENDBRANCH   2   9
BRANCH   3  21
ATOM     21  C   UNL     1     -39.652  22.308   2.004  0.00  0.00    +0.033 C 
BRANCH  21  22
ATOM     22  C   UNL     1     -38.801  21.463   1.095  0.00  0.00    -0.030 C 
ATOM     23  C   UNL     1     -37.525  21.097   1.291  0.00  0.00    -0.031 C 
BRANCH  23  24
ATOM     24  C   UNL     1     -36.722  21.492   2.496  0.00  0.00    +0.026 C 
BRANCH  24  25
ATOM     25  C   UNL     1     -35.207  21.341   2.304  0.00  0.00    +0.016 C 
BRANCH  25  26
ATOM     26  C   UNL     1     -34.806  20.779   0.937  0.00  0.00    +0.110 C 
BRANCH  26  28
ATOM     27  O   UNL     1     -32.508  20.194   0.386  0.00  0.00    -0.250 OA
ATOM     28  C   UNL     1     -33.552  19.934   0.969  0.00  0.00    +0.314 C 
BRANCH  28  29
ATOM     29  O   UNL     1     -33.727  18.803   1.701  0.00  0.00    -0.480 OA
ATOM     30  H   UNL     1     -33.252  18.025   1.481  0.00  0.00    +0.295 HD
ENDBRANCH  28  29
ENDBRANCH  26  28
ENDBRANCH  25  26
ENDBRANCH  24  25
ENDBRANCH  23  24
ENDBRANCH  21  22
ENDBRANCH   3  21
TORSDOF 17
ENDMDL
MODEL 4
REMARK VINA RESULT:      -5.3      2.422      7.316
REMARK  Name = 5283034
REMARK  17 active torsions:
REMARK  status: ('A' for Active; 'I' for Inactive)
REMARK    1  A    between atoms: C_2  and  C_9
REMARK    2  A    between atoms: C_3  and  C_21
REMARK    3  A    between atoms: C_4  and  O_7
REMARK    4  A    between atoms: C_10  and  C_11
REMARK    5  A    between atoms: C_11  and  O_12
REMARK    6  A    between atoms: C_11  and  C_14
REMARK    7  A    between atoms: C_14  and  C_15
REMARK    8  A    between atoms: C_15  and  C_16
REMARK    9  A    between atoms: C_16  and  C_17
REMARK   10  A    between atoms: C_17  and  C_18
REMARK   11  A    between atoms: C_18  and  O_19
REMARK   12  A    between atoms: C_21  and  C_22
REMARK   13  A    between atoms: C_23  and  C_24
REMARK   14  A    between atoms: C_24  and  C_25
REMARK   15  A    between atoms: C_25  and  C_26
REMARK   16  A    between atoms: C_26  and  C_28
REMARK   17  A    between atoms: C_28  and  O_29
REMARK                            x       y       z     vdW  Elec       q    Type
REMARK                         _______ _______ _______ _____ _____    ______ ____
ROOT
ATOM      1  O   UNL     1     -34.066  20.765  -1.735  0.00  0.00    -0.296 OA
ATOM      2  C   UNL     1     -35.191  20.165   1.561  0.00  0.00    +0.056 C 
ATOM      3  C   UNL     1     -34.042  20.698   0.691  0.00  0.00    +0.068 C 
ATOM      4  C   UNL     1     -36.451  20.727   0.891  0.00  0.00    +0.122 C 
ATOM      5  C   UNL     1     -36.186  20.583  -0.605  0.00  0.00    +0.094 C 
ATOM      6  C   UNL     1     -34.684  20.688  -0.681  0.00  0.00    +0.153 C 
ENDROOT
BRANCH   4   7
ATOM      7  O   UNL     1     -37.586  19.966   1.270  0.00  0.00    -0.384 OA
ATOM      8  H   UNL     1     -37.387  19.020   1.182  0.00  0.00    +0.210 HD
ENDBRANCH   4   7
BRANCH   2   9
ATOM      9  C   UNL     1     -35.062  20.570   2.995  0.00  0.00    -0.026 C 
ATOM     10  C   UNL     1     -35.639  21.665   3.513  0.00  0.00    -0.002 C 
BRANCH  10  11
ATOM     11  C   UNL     1     -35.568  22.147   4.939  0.00  0.00    +0.132 C 
BRANCH  11  12
ATOM     12  O   UNL     1     -35.542  20.996   5.786  0.00  0.00    -0.380 OA
ATOM     13  H   UNL     1     -36.299  20.426   5.579  0.00  0.00    +0.211 HD
ENDBRANCH  11  12
BRANCH  11  14
ATOM     14  C   UNL     1     -34.390  23.064   5.305  0.00  0.00    +0.034 C 
BRANCH  14  15
ATOM     15  C   UNL     1     -34.701  24.541   5.034  0.00  0.00    +0.003 C 
BRANCH  15  16
ATOM     16  C   UNL     1     -36.183  24.847   5.264  0.00  0.00    +0.003 C 
BRANCH  16  17
ATOM     17  C   UNL     1     -36.789  25.586   4.073  0.00  0.00    +0.032 C 
BRANCH  17  18
ATOM     18  C   UNL     1     -37.829  24.738   3.355  0.00  0.00    +0.137 C 
BRANCH  18  19
ATOM     19  O   UNL     1     -39.087  24.923   3.986  0.00  0.00    -0.382 OA
ATOM     20  H   UNL     1     -39.371  25.844   3.879  0.00  0.00    +0.210 HD
ENDBRANCH  18  19
ENDBRANCH  17  18
ENDBRANCH  16  17
ENDBRANCH  15  16
ENDBRANCH  14  15
ENDBRANCH  11  14
ENDBRANCH  10  11
ENDBRANCH   2   9
BRANCH   3  21
ATOM     21  C   UNL     1     -32.790  19.842   0.754  0.00  0.00    +0.033 C 
BRANCH  21  22
ATOM     22  C   UNL     1     -32.950  18.435   1.263  0.00  0.00    -0.030 C 
ATOM     23  C   UNL     1     -33.152  17.328   0.532  0.00  0.00    -0.031 C 
BRANCH  23  24
ATOM     24  C   UNL     1     -33.253  17.328  -0.966  0.00  0.00    +0.026 C 
BRANCH  24  25
ATOM     25  C   UNL     1     -34.439  16.516  -1.505  0.00  0.00    +0.016 C 
BRANCH  25  26
ATOM     26  C   UNL     1     -35.800  17.185  -1.290  0.00  0.00    +0.110 C 
BRANCH  26  28
ATOM     27  O   UNL     1     -36.959  15.196  -0.497  0.00  0.00    -0.250 OA
ATOM     28  C   UNL     1     -36.733  16.395  -0.399  0.00  0.00    +0.314 C 
BRANCH  28  29
ATOM     29  O   UNL     1     -37.344  17.189   0.519  0.00  0.00    -0.480 OA
ATOM     30  H   UNL     1     -37.718  18.007   0.255  0.00  0.00    +0.295 HD
ENDBRANCH  28  29
ENDBRANCH  26  28
ENDBRANCH  25  26
ENDBRANCH  24  25
ENDBRANCH  23  24
ENDBRANCH  21  22
ENDBRANCH   3  21
TORSDOF 17
ENDMDL
MODEL 5
REMARK VINA RESULT:      -5.3      2.940      5.477
REMARK  Name = 5283034
REMARK  17 active torsions:
REMARK  status: ('A' for Active; 'I' for Inactive)
REMARK    1  A    between atoms: C_2  and  C_9
REMARK    2  A    between atoms: C_3  and  C_21
REMARK    3  A    between atoms: C_4  and  O_7
REMARK    4  A    between atoms: C_10  and  C_11
REMARK    5  A    between atoms: C_11  and  O_12
REMARK    6  A    between atoms: C_11  and  C_14
REMARK    7  A    between atoms: C_14  and  C_15
REMARK    8  A    between atoms: C_15  and  C_16
REMARK    9  A    between atoms: C_16  and  C_17
REMARK   10  A    between atoms: C_17  and  C_18
REMARK   11  A    between atoms: C_18  and  O_19
REMARK   12  A    between atoms: C_21  and  C_22
REMARK   13  A    between atoms: C_23  and  C_24
REMARK   14  A    between atoms: C_24  and  C_25
REMARK   15  A    between atoms: C_25  and  C_26
REMARK   16  A    between atoms: C_26  and  C_28
REMARK   17  A    between atoms: C_28  and  O_29
REMARK                            x       y       z     vdW  Elec       q    Type
REMARK                         _______ _______ _______ _____ _____    ______ ____
ROOT
ATOM      1  O   UNL     1     -30.006  26.823   1.881  0.00  0.00    -0.296 OA
ATOM      2  C   UNL     1     -33.130  27.681   3.294  0.00  0.00    +0.056 C 
ATOM      3  C   UNL     1     -32.309  26.578   2.607  0.00  0.00    +0.068 C 
ATOM      4  C   UNL     1     -32.145  28.303   4.293  0.00  0.00    +0.122 C 
ATOM      5  C   UNL     1     -30.823  28.373   3.534  0.00  0.00    +0.094 C 
ATOM      6  C   UNL     1     -30.932  27.210   2.582  0.00  0.00    +0.153 C 
ENDROOT
BRANCH   4   7
ATOM      7  O   UNL     1     -32.578  29.604   4.658  0.00  0.00    -0.384 OA
ATOM      8  H   UNL     1     -31.894  30.034   5.195  0.00  0.00    +0.210 HD
ENDBRANCH   4   7
BRANCH   2   9
ATOM      9  C   UNL     1     -34.368  27.154   3.946  0.00  0.00    -0.026 C 
ATOM     10  C   UNL     1     -34.366  26.175   4.864  0.00  0.00    -0.002 C 
BRANCH  10  11
ATOM     11  C   UNL     1     -35.558  25.588   5.573  0.00  0.00    +0.132 C 
BRANCH  11  12
ATOM     12  O   UNL     1     -36.640  26.513   5.447  0.00  0.00    -0.380 OA
ATOM     13  H   UNL     1     -36.735  27.013   6.273  0.00  0.00    +0.211 HD
ENDBRANCH  11  12
BRANCH  11  14
ATOM     14  C   UNL     1     -36.030  24.200   5.109  0.00  0.00    +0.034 C 
BRANCH  14  15
ATOM     15  C   UNL     1     -35.155  23.074   5.670  0.00  0.00    +0.003 C 
BRANCH  15  16
ATOM     16  C   UNL     1     -35.366  21.770   4.898  0.00  0.00    +0.003 C 
BRANCH  16  17
ATOM     17  C   UNL     1     -35.494  22.026   3.398  0.00  0.00    +0.032 C 
BRANCH  17  18
ATOM     18  C   UNL     1     -35.453  20.730   2.600  0.00  0.00    +0.137 C 
BRANCH  18  19
ATOM     19  O   UNL     1     -36.583  19.943   2.946  0.00  0.00    -0.382 OA
ATOM     20  H   UNL     1     -37.264  20.510   3.341  0.00  0.00    +0.210 HD
ENDBRANCH  18  19
ENDBRANCH  17  18
ENDBRANCH  16  17
ENDBRANCH  15  16
ENDBRANCH  14  15
ENDBRANCH  11  14
ENDBRANCH  10  11
ENDBRANCH   2   9
BRANCH   3  21
ATOM     21  C   UNL     1     -32.813  26.227   1.219  0.00  0.00    +0.033 C 
BRANCH  21  22
ATOM     22  C   UNL     1     -33.374  24.844   1.026  0.00  0.00    -0.030 C 
ATOM     23  C   UNL     1     -34.661  24.473   1.114  0.00  0.00    -0.031 C 
BRANCH  23  24
ATOM     24  C   UNL     1     -35.780  25.422   1.432  0.00  0.00    +0.026 C 
BRANCH  24  25
ATOM     25  C   UNL     1     -37.136  24.994   0.854  0.00  0.00    +0.016 C 
BRANCH  25  26
ATOM     26  C   UNL     1     -38.111  24.445   1.899  0.00  0.00    +0.110 C 
BRANCH  26  28
ATOM     27  O   UNL     1     -39.002  26.658   2.384  0.00  0.00    -0.250 OA
ATOM     28  C   UNL     1     -38.760  25.515   2.748  0.00  0.00    +0.314 C 
BRANCH  28  29
ATOM     29  O   UNL     1     -39.015  25.072   4.007  0.00  0.00    -0.480 OA
ATOM     30  H   UNL     1     -38.704  25.557   4.746  0.00  0.00    +0.295 HD
ENDBRANCH  28  29
ENDBRANCH  26  28
ENDBRANCH  25  26
ENDBRANCH  24  25
ENDBRANCH  23  24
ENDBRANCH  21  22
ENDBRANCH   3  21
TORSDOF 17
ENDMDL
MODEL 6
REMARK VINA RESULT:      -5.2      2.756      7.005
REMARK  Name = 5283034
REMARK  17 active torsions:
REMARK  status: ('A' for Active; 'I' for Inactive)
REMARK    1  A    between atoms: C_2  and  C_9
REMARK    2  A    between atoms: C_3  and  C_21
REMARK    3  A    between atoms: C_4  and  O_7
REMARK    4  A    between atoms: C_10  and  C_11
REMARK    5  A    between atoms: C_11  and  O_12
REMARK    6  A    between atoms: C_11  and  C_14
REMARK    7  A    between atoms: C_14  and  C_15
REMARK    8  A    between atoms: C_15  and  C_16
REMARK    9  A    between atoms: C_16  and  C_17
REMARK   10  A    between atoms: C_17  and  C_18
REMARK   11  A    between atoms: C_18  and  O_19
REMARK   12  A    between atoms: C_21  and  C_22
REMARK   13  A    between atoms: C_23  and  C_24
REMARK   14  A    between atoms: C_24  and  C_25
REMARK   15  A    between atoms: C_25  and  C_26
REMARK   16  A    between atoms: C_26  and  C_28
REMARK   17  A    between atoms: C_28  and  O_29
REMARK                            x       y       z     vdW  Elec       q    Type
REMARK                         _______ _______ _______ _____ _____    ______ ____
ROOT
ATOM      1  O   UNL     1     -35.173  21.439  -1.405  0.00  0.00    -0.296 OA
ATOM      2  C   UNL     1     -35.745  20.683   2.000  0.00  0.00    +0.056 C 
ATOM      3  C   UNL     1     -34.732  21.210   0.971  0.00  0.00    +0.068 C 
ATOM      4  C   UNL     1     -37.064  21.356   1.595  0.00  0.00    +0.122 C 
ATOM      5  C   UNL     1     -37.072  21.297   0.070  0.00  0.00    +0.094 C 
ATOM      6  C   UNL     1     -35.603  21.325  -0.264  0.00  0.00    +0.153 C 
ENDROOT
BRANCH   4   7
ATOM      7  O   UNL     1     -38.162  20.633   2.127  0.00  0.00    -0.384 OA
ATOM      8  H   UNL     1     -38.986  21.111   1.939  0.00  0.00    +0.210 HD
ENDBRANCH   4   7
BRANCH   2   9
ATOM      9  C   UNL     1     -35.344  20.986   3.408  0.00  0.00    -0.026 C 
ATOM     10  C   UNL     1     -35.833  22.015   4.116  0.00  0.00    -0.002 C 
BRANCH  10  11
ATOM     11  C   UNL     1     -35.491  22.391   5.535  0.00  0.00    +0.132 C 
BRANCH  11  12
ATOM     12  O   UNL     1     -34.543  21.439   6.021  0.00  0.00    -0.380 OA
ATOM     13  H   UNL     1     -33.696  21.882   6.184  0.00  0.00    +0.211 HD
ENDBRANCH  11  12
BRANCH  11  14
ATOM     14  C   UNL     1     -34.942  23.808   5.765  0.00  0.00    +0.034 C 
BRANCH  14  15
ATOM     15  C   UNL     1     -34.320  24.401   4.495  0.00  0.00    +0.003 C 
BRANCH  15  16
ATOM     16  C   UNL     1     -34.000  25.886   4.675  0.00  0.00    +0.003 C 
BRANCH  16  17
ATOM     17  C   UNL     1     -33.786  26.235   6.147  0.00  0.00    +0.032 C 
BRANCH  17  18
ATOM     18  C   UNL     1     -32.690  27.275   6.324  0.00  0.00    +0.137 C 
BRANCH  18  19
ATOM     19  O   UNL     1     -32.839  28.274   5.325  0.00  0.00    -0.382 OA
ATOM     20  H   UNL     1     -33.410  28.984   5.660  0.00  0.00    +0.210 HD
ENDBRANCH  18  19
ENDBRANCH  17  18
ENDBRANCH  16  17
ENDBRANCH  15  16
ENDBRANCH  14  15
ENDBRANCH  11  14
ENDBRANCH  10  11
ENDBRANCH   2   9
BRANCH   3  21
ATOM     21  C   UNL     1     -33.547  20.286   0.763  0.00  0.00    +0.033 C 
BRANCH  21  22
ATOM     22  C   UNL     1     -33.742  18.835   1.112  0.00  0.00    -0.030 C 
ATOM     23  C   UNL     1     -34.164  17.857   0.296  0.00  0.00    -0.031 C 
BRANCH  23  24
ATOM     24  C   UNL     1     -34.518  18.072  -1.147  0.00  0.00    +0.026 C 
BRANCH  24  25
ATOM     25  C   UNL     1     -35.982  17.751  -1.477  0.00  0.00    +0.016 C 
BRANCH  25  26
ATOM     26  C   UNL     1     -36.904  17.723  -0.255  0.00  0.00    +0.110 C 
BRANCH  26  28
ATOM     27  O   UNL     1     -38.735  16.142  -0.522  0.00  0.00    -0.250 OA
ATOM     28  C   UNL     1     -37.631  16.410  -0.069  0.00  0.00    +0.314 C 
BRANCH  28  29
ATOM     29  O   UNL     1     -36.926  15.552   0.714  0.00  0.00    -0.480 OA
ATOM     30  H   UNL     1     -36.617  15.830   1.554  0.00  0.00    +0.295 HD
ENDBRANCH  28  29
ENDBRANCH  26  28
ENDBRANCH  25  26
ENDBRANCH  24  25
ENDBRANCH  23  24
ENDBRANCH  21  22
ENDBRANCH   3  21
TORSDOF 17
ENDMDL
MODEL 7
REMARK VINA RESULT:      -5.2      2.714      7.976
REMARK  Name = 5283034
REMARK  17 active torsions:
REMARK  status: ('A' for Active; 'I' for Inactive)
REMARK    1  A    between atoms: C_2  and  C_9
REMARK    2  A    between atoms: C_3  and  C_21
REMARK    3  A    between atoms: C_4  and  O_7
REMARK    4  A    between atoms: C_10  and  C_11
REMARK    5  A    between atoms: C_11  and  O_12
REMARK    6  A    between atoms: C_11  and  C_14
REMARK    7  A    between atoms: C_14  and  C_15
REMARK    8  A    between atoms: C_15  and  C_16
REMARK    9  A    between atoms: C_16  and  C_17
REMARK   10  A    between atoms: C_17  and  C_18
REMARK   11  A    between atoms: C_18  and  O_19
REMARK   12  A    between atoms: C_21  and  C_22
REMARK   13  A    between atoms: C_23  and  C_24
REMARK   14  A    between atoms: C_24  and  C_25
REMARK   15  A    between atoms: C_25  and  C_26
REMARK   16  A    between atoms: C_26  and  C_28
REMARK   17  A    between atoms: C_28  and  O_29
REMARK                            x       y       z     vdW  Elec       q    Type
REMARK                         _______ _______ _______ _____ _____    ______ ____
ROOT
ATOM      1  O   UNL     1     -33.877  19.570  -2.239  0.00  0.00    -0.296 OA
ATOM      2  C   UNL     1     -35.057  19.611   1.092  0.00  0.00    +0.056 C 
ATOM      3  C   UNL     1     -34.112  20.267   0.073  0.00  0.00    +0.068 C 
ATOM      4  C   UNL     1     -36.350  19.379   0.297  0.00  0.00    +0.122 C 
ATOM      5  C   UNL     1     -35.876  18.902  -1.073  0.00  0.00    +0.094 C 
ATOM      6  C   UNL     1     -34.536  19.577  -1.207  0.00  0.00    +0.153 C 
ENDROOT
BRANCH   4   7
ATOM      7  O   UNL     1     -37.136  18.381   0.927  0.00  0.00    -0.384 OA
ATOM      8  H   UNL     1     -37.609  18.768   1.680  0.00  0.00    +0.210 HD
ENDBRANCH   4   7
BRANCH   2   9
ATOM      9  C   UNL     1     -35.264  20.452   2.310  0.00  0.00    -0.026 C 
ATOM     10  C   UNL     1     -35.754  21.701   2.277  0.00  0.00    -0.002 C 
BRANCH  10  11
ATOM     11  C   UNL     1     -35.999  22.617   3.448  0.00  0.00    +0.132 C 
BRANCH  11  12
ATOM     12  O   UNL     1     -37.412  22.766   3.596  0.00  0.00    -0.380 OA
ATOM     13  H   UNL     1     -37.680  23.642   3.280  0.00  0.00    +0.211 HD
ENDBRANCH  11  12
BRANCH  11  14
ATOM     14  C   UNL     1     -35.395  22.196   4.798  0.00  0.00    +0.034 C 
BRANCH  14  15
ATOM     15  C   UNL     1     -35.046  23.404   5.676  0.00  0.00    +0.003 C 
BRANCH  15  16
ATOM     16  C   UNL     1     -34.126  24.379   4.939  0.00  0.00    +0.003 C 
BRANCH  16  17
ATOM     17  C   UNL     1     -34.755  25.766   4.835  0.00  0.00    +0.032 C 
BRANCH  17  18
ATOM     18  C   UNL     1     -36.122  25.816   5.503  0.00  0.00    +0.137 C 
BRANCH  18  19
ATOM     19  O   UNL     1     -37.123  25.876   4.497  0.00  0.00    -0.382 OA
ATOM     20  H   UNL     1     -36.934  25.215   3.813  0.00  0.00    +0.210 HD
ENDBRANCH  18  19
ENDBRANCH  17  18
ENDBRANCH  16  17
ENDBRANCH  15  16
ENDBRANCH  14  15
ENDBRANCH  11  14
ENDBRANCH  10  11
ENDBRANCH   2   9
BRANCH   3  21
ATOM     21  C   UNL     1     -32.643  20.056   0.390  0.00  0.00    +0.033 C 
BRANCH  21  22
ATOM     22  C   UNL     1     -32.294  18.874   1.254  0.00  0.00    -0.030 C 
ATOM     23  C   UNL     1     -31.902  17.658   0.842  0.00  0.00    -0.031 C 
BRANCH  23  24
ATOM     24  C   UNL     1     -31.747  17.280  -0.603  0.00  0.00    +0.026 C 
BRANCH  24  25
ATOM     25  C   UNL     1     -32.481  15.988  -0.985  0.00  0.00    +0.016 C 
BRANCH  25  26
ATOM     26  C   UNL     1     -33.866  15.847  -0.346  0.00  0.00    +0.110 C 
BRANCH  26  28
ATOM     27  O   UNL     1     -35.291  15.633  -2.308  0.00  0.00    -0.250 OA
ATOM     28  C   UNL     1     -34.887  15.184  -1.244  0.00  0.00    +0.314 C 
BRANCH  28  29
ATOM     29  O   UNL     1     -35.352  14.026  -0.706  0.00  0.00    -0.480 OA
ATOM     30  H   UNL     1     -36.269  13.917  -0.551  0.00  0.00    +0.295 HD
ENDBRANCH  28  29
ENDBRANCH  26  28
ENDBRANCH  25  26
ENDBRANCH  24  25
ENDBRANCH  23  24
ENDBRANCH  21  22
ENDBRANCH   3  21
TORSDOF 17
ENDMDL
MODEL 8
REMARK VINA RESULT:      -5.2      2.701      4.851
REMARK  Name = 5283034
REMARK  17 active torsions:
REMARK  status: ('A' for Active; 'I' for Inactive)
REMARK    1  A    between atoms: C_2  and  C_9
REMARK    2  A    between atoms: C_3  and  C_21
REMARK    3  A    between atoms: C_4  and  O_7
REMARK    4  A    between atoms: C_10  and  C_11
REMARK    5  A    between atoms: C_11  and  O_12
REMARK    6  A    between atoms: C_11  and  C_14
REMARK    7  A    between atoms: C_14  and  C_15
REMARK    8  A    between atoms: C_15  and  C_16
REMARK    9  A    between atoms: C_16  and  C_17
REMARK   10  A    between atoms: C_17  and  C_18
REMARK   11  A    between atoms: C_18  and  O_19
REMARK   12  A    between atoms: C_21  and  C_22
REMARK   13  A    between atoms: C_23  and  C_24
REMARK   14  A    between atoms: C_24  and  C_25
REMARK   15  A    between atoms: C_25  and  C_26
REMARK   16  A    between atoms: C_26  and  C_28
REMARK   17  A    between atoms: C_28  and  O_29
REMARK                            x       y       z     vdW  Elec       q    Type
REMARK                         _______ _______ _______ _____ _____    ______ ____
ROOT
ATOM      1  O   UNL     1     -36.731  27.913   1.772  0.00  0.00    -0.296 OA
ATOM      2  C   UNL     1     -35.232  26.067   4.387  0.00  0.00    +0.056 C 
ATOM      3  C   UNL     1     -36.172  26.011   3.172  0.00  0.00    +0.068 C 
ATOM      4  C   UNL     1     -34.071  26.950   3.912  0.00  0.00    +0.122 C 
ATOM      5  C   UNL     1     -34.740  28.069   3.118  0.00  0.00    +0.094 C 
ATOM      6  C   UNL     1     -35.979  27.396   2.588  0.00  0.00    +0.153 C 
ENDROOT
BRANCH   4   7
ATOM      7  O   UNL     1     -33.374  27.480   5.028  0.00  0.00    -0.384 OA
ATOM      8  H   UNL     1     -33.394  28.450   4.993  0.00  0.00    +0.210 HD
ENDBRANCH   4   7
BRANCH   2   9
ATOM      9  C   UNL     1     -34.790  24.711   4.834  0.00  0.00    -0.026 C 
ATOM     10  C   UNL     1     -35.602  23.819   5.420  0.00  0.00    -0.002 C 
BRANCH  10  11
ATOM     11  C   UNL     1     -35.246  22.434   5.896  0.00  0.00    +0.132 C 
BRANCH  11  12
ATOM     12  O   UNL     1     -36.320  21.964   6.712  0.00  0.00    -0.380 OA
ATOM     13  H   UNL     1     -36.669  22.698   7.242  0.00  0.00    +0.211 HD
ENDBRANCH  11  12
BRANCH  11  14
ATOM     14  C   UNL     1     -34.940  21.384   4.817  0.00  0.00    +0.034 C 
BRANCH  14  15
ATOM     15  C   UNL     1     -35.687  21.666   3.507  0.00  0.00    +0.003 C 
BRANCH  15  16
ATOM     16  C   UNL     1     -35.308  20.655   2.423  0.00  0.00    +0.003 C 
BRANCH  16  17
ATOM     17  C   UNL     1     -36.544  20.122   1.703  0.00  0.00    +0.032 C 
BRANCH  17  18
ATOM     18  C   UNL     1     -37.587  21.211   1.496  0.00  0.00    +0.137 C 
BRANCH  18  19
ATOM     19  O   UNL     1     -38.765  20.860   2.208  0.00  0.00    -0.382 OA
ATOM     20  H   UNL     1     -39.518  21.359   1.854  0.00  0.00    +0.210 HD
ENDBRANCH  18  19
ENDBRANCH  17  18
ENDBRANCH  16  17
ENDBRANCH  15  16
ENDBRANCH  14  15
ENDBRANCH  11  14
ENDBRANCH  10  11
ENDBRANCH   2   9
BRANCH   3  21
ATOM     21  C   UNL     1     -37.618  25.731   3.540  0.00  0.00    +0.033 C 
BRANCH  21  22
ATOM     22  C   UNL     1     -38.280  24.561   2.863  0.00  0.00    -0.030 C 
ATOM     23  C   UNL     1     -39.370  24.590   2.081  0.00  0.00    -0.031 C 
BRANCH  23  24
ATOM     24  C   UNL     1     -40.122  25.846   1.749  0.00  0.00    +0.026 C 
BRANCH  24  25
ATOM     25  C   UNL     1     -41.508  25.926   2.404  0.00  0.00    +0.016 C 
BRANCH  25  26
ATOM     26  C   UNL     1     -41.523  26.678   3.738  0.00  0.00    +0.110 C 
BRANCH  26  28
ATOM     27  O   UNL     1     -43.418  28.032   3.030  0.00  0.00    -0.250 OA
ATOM     28  C   UNL     1     -42.441  27.880   3.750  0.00  0.00    +0.314 C 
BRANCH  28  29
ATOM     29  O   UNL     1     -42.028  28.818   4.643  0.00  0.00    -0.480 OA
ATOM     30  H   UNL     1     -42.495  28.937   5.447  0.00  0.00    +0.295 HD
ENDBRANCH  28  29
ENDBRANCH  26  28
ENDBRANCH  25  26
ENDBRANCH  24  25
ENDBRANCH  23  24
ENDBRANCH  21  22
ENDBRANCH   3  21
TORSDOF 17
ENDMDL
MODEL 9
REMARK VINA RESULT:      -5.1      2.181      6.928
REMARK  Name = 5283034
REMARK  17 active torsions:
REMARK  status: ('A' for Active; 'I' for Inactive)
REMARK    1  A    between atoms: C_2  and  C_9
REMARK    2  A    between atoms: C_3  and  C_21
REMARK    3  A    between atoms: C_4  and  O_7
REMARK    4  A    between atoms: C_10  and  C_11
REMARK    5  A    between atoms: C_11  and  O_12
REMARK    6  A    between atoms: C_11  and  C_14
REMARK    7  A    between atoms: C_14  and  C_15
REMARK    8  A    between atoms: C_15  and  C_16
REMARK    9  A    between atoms: C_16  and  C_17
REMARK   10  A    between atoms: C_17  and  C_18
REMARK   11  A    between atoms: C_18  and  O_19
REMARK   12  A    between atoms: C_21  and  C_22
REMARK   13  A    between atoms: C_23  and  C_24
REMARK   14  A    between atoms: C_24  and  C_25
REMARK   15  A    between atoms: C_25  and  C_26
REMARK   16  A    between atoms: C_26  and  C_28
REMARK   17  A    between atoms: C_28  and  O_29
REMARK                            x       y       z     vdW  Elec       q    Type
REMARK                         _______ _______ _______ _____ _____    ______ ____
ROOT
ATOM      1  O   UNL     1     -30.781  19.875  -2.131  0.00  0.00    -0.296 OA
ATOM      2  C   UNL     1     -32.713  19.609   0.817  0.00  0.00    +0.056 C 
ATOM      3  C   UNL     1     -32.631  20.210  -0.596  0.00  0.00    +0.068 C 
ATOM      4  C   UNL     1     -32.208  18.172   0.635  0.00  0.00    +0.122 C 
ATOM      5  C   UNL     1     -31.029  18.299  -0.326  0.00  0.00    +0.094 C 
ATOM      6  C   UNL     1     -31.402  19.511  -1.140  0.00  0.00    +0.153 C 
ENDROOT
BRANCH   4   7
ATOM      7  O   UNL     1     -31.780  17.644   1.880  0.00  0.00    -0.384 OA
ATOM      8  H   UNL     1     -31.068  18.196   2.239  0.00  0.00    +0.210 HD
ENDBRANCH   4   7
BRANCH   2   9
ATOM      9  C   UNL     1     -34.093  19.675   1.389  0.00  0.00    -0.026 C 
ATOM     10  C   UNL     1     -35.210  19.584   0.651  0.00  0.00    -0.002 C 
BRANCH  10  11
ATOM     11  C   UNL     1     -36.634  19.635   1.141  0.00  0.00    +0.132 C 
BRANCH  11  12
ATOM     12  O   UNL     1     -36.603  19.929   2.540  0.00  0.00    -0.380 OA
ATOM     13  H   UNL     1     -37.427  20.371   2.795  0.00  0.00    +0.211 HD
ENDBRANCH  11  12
BRANCH  11  14
ATOM     14  C   UNL     1     -37.575  20.628   0.442  0.00  0.00    +0.034 C 
BRANCH  14  15
ATOM     15  C   UNL     1     -38.090  21.710   1.399  0.00  0.00    +0.003 C 
BRANCH  15  16
ATOM     16  C   UNL     1     -38.267  23.049   0.680  0.00  0.00    +0.003 C 
BRANCH  16  17
ATOM     17  C   UNL     1     -38.480  24.189   1.672  0.00  0.00    +0.032 C 
BRANCH  17  18
ATOM     18  C   UNL     1     -39.533  23.839   2.714  0.00  0.00    +0.137 C 
BRANCH  18  19
ATOM     19  O   UNL     1     -39.414  24.737   3.807  0.00  0.00    -0.382 OA
ATOM     20  H   UNL     1     -39.458  24.241   4.640  0.00  0.00    +0.210 HD
ENDBRANCH  18  19
ENDBRANCH  17  18
ENDBRANCH  16  17
ENDBRANCH  15  16
ENDBRANCH  14  15
ENDBRANCH  11  14
ENDBRANCH  10  11
ENDBRANCH   2   9
BRANCH   3  21
ATOM     21  C   UNL     1     -32.492  21.721  -0.601  0.00  0.00    +0.033 C 
BRANCH  21  22
ATOM     22  C   UNL     1     -33.695  22.516  -1.034  0.00  0.00    -0.030 C 
ATOM     23  C   UNL     1     -34.375  23.415  -0.305  0.00  0.00    -0.031 C 
BRANCH  23  24
ATOM     24  C   UNL     1     -34.023  23.778   1.108  0.00  0.00    +0.026 C 
BRANCH  24  25
ATOM     25  C   UNL     1     -34.933  23.124   2.158  0.00  0.00    +0.016 C 
BRANCH  25  26
ATOM     26  C   UNL     1     -34.879  23.798   3.532  0.00  0.00    +0.110 C 
BRANCH  26  28
ATOM     27  O   UNL     1     -36.711  24.423   5.009  0.00  0.00    -0.250 OA
ATOM     28  C   UNL     1     -36.115  23.564   4.374  0.00  0.00    +0.314 C 
BRANCH  28  29
ATOM     29  O   UNL     1     -36.476  22.254   4.383  0.00  0.00    -0.480 OA
ATOM     30  H   UNL     1     -35.844  21.593   4.182  0.00  0.00    +0.295 HD
ENDBRANCH  28  29
ENDBRANCH  26  28
ENDBRANCH  25  26
ENDBRANCH  24  25
ENDBRANCH  23  24
ENDBRANCH  21  22
ENDBRANCH   3  21
TORSDOF 17
ENDMDL
