MODEL 1
REMARK VINA RESULT:      -5.2      0.000      0.000
REMARK  Name = 192875
REMARK  9 active torsions:
REMARK  status: ('A' for Active; 'I' for Inactive)
REMARK    1  A    between atoms: S_1  and  S_2
REMARK    2  A    between atoms: S_1  and  C_15
REMARK    3  A    between atoms: S_2  and  C_3
REMARK    4  A    between atoms: C_3  and  C_4
REMARK    5  A    between atoms: C_4  and  C_7
REMARK    6  A    between atoms: C_4  and  N_11
REMARK    7  A    between atoms: C_15  and  C_16
REMARK    8  A    between atoms: C_16  and  C_19
REMARK    9  A    between atoms: C_16  and  N_23
REMARK                            x       y       z     vdW  Elec       q    Type
REMARK                         _______ _______ _______ _____ _____    ______ ____
ROOT
ATOM      1  S   UNL     1     -35.880  23.643   0.471  0.00  0.00    -0.080 S 
ENDROOT
BRANCH   1   2
ATOM      2  S   UNL     1     -36.417  25.623   0.373  0.00  0.00    -0.080 S 
BRANCH   2   3
ATOM      3  C   UNL     1     -35.117  26.407   1.356  0.00  0.00    +0.098 C 
BRANCH   3   4
ATOM      4  C   UNL     1     -35.645  27.232   2.532  0.00  0.00    +0.160 C 
BRANCH   4   7
ATOM      5  O   UNL     1     -36.237  29.199   1.238  0.00  0.00    -0.273 OA
ATOM      6  N   UNL     1     -35.074  29.480   3.226  0.00  0.00    -0.301 N 
ATOM      7  C   UNL     1     -35.705  28.732   2.244  0.00  0.00    +0.241 C 
ATOM      8  C   UNL     1     -34.976  30.921   3.167  0.00  0.00    +0.111 C 
ATOM      9  H   UNL     1     -34.677  29.012   3.996  0.00  0.00    +0.150 HD
ENDBRANCH   4   7
BRANCH   4  11
ATOM     10  O   UNL     1     -36.383  25.616   4.827  0.00  0.00    -0.275 OA
ATOM     11  N   UNL     1     -34.879  27.017   3.733  0.00  0.00    -0.298 N 
ATOM     12  C   UNL     1     -35.316  26.223   4.783  0.00  0.00    +0.223 C 
ATOM     13  C   UNL     1     -34.312  26.149   5.902  0.00  0.00    +0.095 C 
ATOM     14  H   UNL     1     -34.001  27.456   3.813  0.00  0.00    +0.150 HD
ENDBRANCH   4  11
ENDBRANCH   3   4
ENDBRANCH   2   3
ENDBRANCH   1   2
BRANCH   1  15
ATOM     15  C   UNL     1     -35.470  23.469   2.238  0.00  0.00    +0.098 C 
BRANCH  15  16
ATOM     16  C   UNL     1     -36.455  22.595   3.018  0.00  0.00    +0.160 C 
BRANCH  16  19
ATOM     17  O   UNL     1     -38.649  22.212   2.054  0.00  0.00    -0.273 OA
ATOM     18  N   UNL     1     -38.304  24.131   3.312  0.00  0.00    -0.301 N 
ATOM     19  C   UNL     1     -37.918  22.929   2.735  0.00  0.00    +0.241 C 
ATOM     20  C   UNL     1     -39.633  24.674   3.167  0.00  0.00    +0.111 C 
ATOM     21  H   UNL     1     -37.643  24.633   3.842  0.00  0.00    +0.150 HD
ENDBRANCH  16  19
BRANCH  16  23
ATOM     22  O   UNL     1     -35.008  20.686   4.657  0.00  0.00    -0.275 OA
ATOM     23  N   UNL     1     -36.227  22.658   4.440  0.00  0.00    -0.298 N 
ATOM     24  C   UNL     1     -35.519  21.693   5.140  0.00  0.00    +0.223 C 
ATOM     25  C   UNL     1     -35.409  22.016   6.607  0.00  0.00    +0.095 C 
ATOM     26  H   UNL     1     -36.592  23.424   4.938  0.00  0.00    +0.150 HD
ENDBRANCH  16  23
ENDBRANCH  15  16
ENDBRANCH   1  15
TORSDOF 9
ENDMDL
MODEL 2
REMARK VINA RESULT:      -5.2      0.762      5.911
REMARK  Name = 192875
REMARK  9 active torsions:
REMARK  status: ('A' for Active; 'I' for Inactive)
REMARK    1  A    between atoms: S_1  and  S_2
REMARK    2  A    between atoms: S_1  and  C_15
REMARK    3  A    between atoms: S_2  and  C_3
REMARK    4  A    between atoms: C_3  and  C_4
REMARK    5  A    between atoms: C_4  and  C_7
REMARK    6  A    between atoms: C_4  and  N_11
REMARK    7  A    between atoms: C_15  and  C_16
REMARK    8  A    between atoms: C_16  and  C_19
REMARK    9  A    between atoms: C_16  and  N_23
REMARK                            x       y       z     vdW  Elec       q    Type
REMARK                         _______ _______ _______ _____ _____    ______ ____
ROOT
ATOM      1  S   UNL     1     -35.486  25.913   0.466  0.00  0.00    -0.080 S 
ENDROOT
BRANCH   1   2
ATOM      2  S   UNL     1     -36.220  23.997   0.573  0.00  0.00    -0.080 S 
BRANCH   2   3
ATOM      3  C   UNL     1     -35.576  23.444   2.171  0.00  0.00    +0.098 C 
BRANCH   3   4
ATOM      4  C   UNL     1     -36.582  22.637   2.995  0.00  0.00    +0.160 C 
BRANCH   4   7
ATOM      5  O   UNL     1     -38.796  22.405   2.026  0.00  0.00    -0.273 OA
ATOM      6  N   UNL     1     -38.369  24.217   3.411  0.00  0.00    -0.301 N 
ATOM      7  C   UNL     1     -38.034  23.045   2.750  0.00  0.00    +0.241 C 
ATOM      8  C   UNL     1     -39.678  24.820   3.316  0.00  0.00    +0.111 C 
ATOM      9  H   UNL     1     -37.686  24.656   3.969  0.00  0.00    +0.150 HD
ENDBRANCH   4   7
BRANCH   4  11
ATOM     10  O   UNL     1     -35.034  20.769   4.589  0.00  0.00    -0.275 OA
ATOM     11  N   UNL     1     -36.308  22.710   4.408  0.00  0.00    -0.298 N 
ATOM     12  C   UNL     1     -35.554  21.765   5.086  0.00  0.00    +0.223 C 
ATOM     13  C   UNL     1     -35.401  22.095   6.547  0.00  0.00    +0.095 C 
ATOM     14  H   UNL     1     -36.675  23.469   4.917  0.00  0.00    +0.150 HD
ENDBRANCH   4  11
ENDBRANCH   3   4
ENDBRANCH   2   3
ENDBRANCH   1   2
BRANCH   1  15
ATOM     15  C   UNL     1     -36.253  26.673   1.934  0.00  0.00    +0.098 C 
BRANCH  15  16
ATOM     16  C   UNL     1     -35.244  27.276   2.915  0.00  0.00    +0.160 C 
BRANCH  16  19
ATOM     17  O   UNL     1     -36.099  25.821   4.660  0.00  0.00    -0.273 OA
ATOM     18  N   UNL     1     -34.028  26.824   4.960  0.00  0.00    -0.301 N 
ATOM     19  C   UNL     1     -35.192  26.548   4.257  0.00  0.00    +0.241 C 
ATOM     20  C   UNL     1     -33.757  26.274   6.267  0.00  0.00    +0.111 C 
ATOM     21  H   UNL     1     -33.360  27.420   4.550  0.00  0.00    +0.150 HD
ENDBRANCH  16  19
BRANCH  16  23
ATOM     22  O   UNL     1     -34.400  29.515   1.272  0.00  0.00    -0.275 OA
ATOM     23  N   UNL     1     -35.489  28.676   3.152  0.00  0.00    -0.298 N 
ATOM     24  C   UNL     1     -35.044  29.680   2.305  0.00  0.00    +0.223 C 
ATOM     25  C   UNL     1     -35.458  31.050   2.774  0.00  0.00    +0.095 C 
ATOM     26  H   UNL     1     -35.997  28.933   3.955  0.00  0.00    +0.150 HD
ENDBRANCH  16  23
ENDBRANCH  15  16
ENDBRANCH   1  15
TORSDOF 9
ENDMDL
MODEL 3
REMARK VINA RESULT:      -5.0      1.414      2.866
REMARK  Name = 192875
REMARK  9 active torsions:
REMARK  status: ('A' for Active; 'I' for Inactive)
REMARK    1  A    between atoms: S_1  and  S_2
REMARK    2  A    between atoms: S_1  and  C_15
REMARK    3  A    between atoms: S_2  and  C_3
REMARK    4  A    between atoms: C_3  and  C_4
REMARK    5  A    between atoms: C_4  and  C_7
REMARK    6  A    between atoms: C_4  and  N_11
REMARK    7  A    between atoms: C_15  and  C_16
REMARK    8  A    between atoms: C_16  and  C_19
REMARK    9  A    between atoms: C_16  and  N_23
REMARK                            x       y       z     vdW  Elec       q    Type
REMARK                         _______ _______ _______ _____ _____    ______ ____
ROOT
ATOM      1  S   UNL     1     -34.730  23.848   2.156  0.00  0.00    -0.080 S 
ENDROOT
BRANCH   1   2
ATOM      2  S   UNL     1     -35.696  25.589   1.652  0.00  0.00    -0.080 S 
BRANCH   2   3
ATOM      3  C   UNL     1     -35.671  26.492   3.219  0.00  0.00    +0.098 C 
BRANCH   3   4
ATOM      4  C   UNL     1     -34.454  27.406   3.386  0.00  0.00    +0.160 C 
BRANCH   4   7
ATOM      5  O   UNL     1     -33.399  25.840   4.911  0.00  0.00    -0.273 OA
ATOM      6  N   UNL     1     -32.954  28.104   5.153  0.00  0.00    -0.301 N 
ATOM      7  C   UNL     1     -33.550  27.006   4.551  0.00  0.00    +0.241 C 
ATOM      8  C   UNL     1     -32.074  27.987   6.292  0.00  0.00    +0.111 C 
ATOM      9  H   UNL     1     -33.138  29.001   4.789  0.00  0.00    +0.150 HD
ENDBRANCH   4   7
BRANCH   4  11
ATOM     10  O   UNL     1     -34.999  29.327   1.279  0.00  0.00    -0.275 OA
ATOM     11  N   UNL     1     -34.831  28.788   3.538  0.00  0.00    -0.298 N 
ATOM     12  C   UNL     1     -35.072  29.634   2.466  0.00  0.00    +0.223 C 
ATOM     13  C   UNL     1     -35.473  31.017   2.906  0.00  0.00    +0.095 C 
ATOM     14  H   UNL     1     -34.921  29.151   4.450  0.00  0.00    +0.150 HD
ENDBRANCH   4  11
ENDBRANCH   3   4
ENDBRANCH   2   3
ENDBRANCH   1   2
BRANCH   1  15
ATOM     15  C   UNL     1     -35.963  22.598   1.665  0.00  0.00    +0.098 C 
BRANCH  15  16
ATOM     16  C   UNL     1     -36.929  22.210   2.787  0.00  0.00    +0.160 C 
BRANCH  16  19
ATOM     17  O   UNL     1     -39.201  22.233   1.936  0.00  0.00    -0.273 OA
ATOM     18  N   UNL     1     -38.489  23.999   3.262  0.00  0.00    -0.301 N 
ATOM     19  C   UNL     1     -38.331  22.786   2.607  0.00  0.00    +0.241 C 
ATOM     20  C   UNL     1     -39.720  24.753   3.221  0.00  0.00    +0.111 C 
ATOM     21  H   UNL     1     -37.731  24.360   3.775  0.00  0.00    +0.150 HD
ENDBRANCH  16  19
BRANCH  16  23
ATOM     22  O   UNL     1     -35.143  20.692   4.500  0.00  0.00    -0.275 OA
ATOM     23  N   UNL     1     -36.430  22.588   4.085  0.00  0.00    -0.298 N 
ATOM     24  C   UNL     1     -35.576  21.792   4.834  0.00  0.00    +0.223 C 
ATOM     25  C   UNL     1     -35.191  22.436   6.140  0.00  0.00    +0.095 C 
ATOM     26  H   UNL     1     -36.711  23.454   4.460  0.00  0.00    +0.150 HD
ENDBRANCH  16  23
ENDBRANCH  15  16
ENDBRANCH   1  15
TORSDOF 9
ENDMDL
MODEL 4
REMARK VINA RESULT:      -5.0      2.290      5.674
REMARK  Name = 192875
REMARK  9 active torsions:
REMARK  status: ('A' for Active; 'I' for Inactive)
REMARK    1  A    between atoms: S_1  and  S_2
REMARK    2  A    between atoms: S_1  and  C_15
REMARK    3  A    between atoms: S_2  and  C_3
REMARK    4  A    between atoms: C_3  and  C_4
REMARK    5  A    between atoms: C_4  and  C_7
REMARK    6  A    between atoms: C_4  and  N_11
REMARK    7  A    between atoms: C_15  and  C_16
REMARK    8  A    between atoms: C_16  and  C_19
REMARK    9  A    between atoms: C_16  and  N_23
REMARK                            x       y       z     vdW  Elec       q    Type
REMARK                         _______ _______ _______ _____ _____    ______ ____
ROOT
ATOM      1  S   UNL     1     -33.637  26.442   1.167  0.00  0.00    -0.080 S 
ENDROOT
BRANCH   1   2
ATOM      2  S   UNL     1     -35.414  25.441   1.419  0.00  0.00    -0.080 S 
BRANCH   2   3
ATOM      3  C   UNL     1     -34.843  23.783   1.865  0.00  0.00    +0.098 C 
BRANCH   3   4
ATOM      4  C   UNL     1     -35.894  22.947   2.601  0.00  0.00    +0.160 C 
BRANCH   4   7
ATOM      5  O   UNL     1     -37.823  23.062   1.133  0.00  0.00    -0.273 OA
ATOM      6  N   UNL     1     -37.984  23.976   3.260  0.00  0.00    -0.301 N 
ATOM      7  C   UNL     1     -37.330  23.314   2.231  0.00  0.00    +0.241 C 
ATOM      8  C   UNL     1     -39.344  24.448   3.143  0.00  0.00    +0.111 C 
ATOM      9  H   UNL     1     -37.501  24.130   4.105  0.00  0.00    +0.150 HD
ENDBRANCH   4   7
BRANCH   4  11
ATOM     10  O   UNL     1     -35.169  20.803   4.418  0.00  0.00    -0.275 OA
ATOM     11  N   UNL     1     -35.744  23.025   4.032  0.00  0.00    -0.298 N 
ATOM     12  C   UNL     1     -35.393  21.941   4.821  0.00  0.00    +0.223 C 
ATOM     13  C   UNL     1     -35.281  22.304   6.278  0.00  0.00    +0.095 C 
ATOM     14  H   UNL     1     -35.900  23.893   4.472  0.00  0.00    +0.150 HD
ENDBRANCH   4  11
ENDBRANCH   3   4
ENDBRANCH   2   3
ENDBRANCH   1   2
BRANCH   1  15
ATOM     15  C   UNL     1     -33.774  27.742   2.436  0.00  0.00    +0.098 C 
BRANCH  15  16
ATOM     16  C   UNL     1     -33.143  27.363   3.779  0.00  0.00    +0.160 C 
BRANCH  16  19
ATOM     17  O   UNL     1     -33.526  25.204   4.818  0.00  0.00    -0.273 OA
ATOM     18  N   UNL     1     -35.209  26.798   4.907  0.00  0.00    -0.301 N 
ATOM     19  C   UNL     1     -33.951  26.328   4.558  0.00  0.00    +0.241 C 
ATOM     20  C   UNL     1     -36.169  25.995   5.628  0.00  0.00    +0.111 C 
ATOM     21  H   UNL     1     -35.457  27.716   4.653  0.00  0.00    +0.150 HD
ENDBRANCH  16  19
BRANCH  16  23
ATOM     22  O   UNL     1     -30.931  27.818   5.603  0.00  0.00    -0.275 OA
ATOM     23  N   UNL     1     -32.924  28.514   4.618  0.00  0.00    -0.298 N 
ATOM     24  C   UNL     1     -31.831  28.643   5.462  0.00  0.00    +0.223 C 
ATOM     25  C   UNL     1     -31.833  29.952   6.206  0.00  0.00    +0.095 C 
ATOM     26  H   UNL     1     -33.582  29.245   4.591  0.00  0.00    +0.150 HD
ENDBRANCH  16  23
ENDBRANCH  15  16
ENDBRANCH   1  15
TORSDOF 9
ENDMDL
MODEL 5
REMARK VINA RESULT:      -5.0      2.449      6.084
REMARK  Name = 192875
REMARK  9 active torsions:
REMARK  status: ('A' for Active; 'I' for Inactive)
REMARK    1  A    between atoms: S_1  and  S_2
REMARK    2  A    between atoms: S_1  and  C_15
REMARK    3  A    between atoms: S_2  and  C_3
REMARK    4  A    between atoms: C_3  and  C_4
REMARK    5  A    between atoms: C_4  and  C_7
REMARK    6  A    between atoms: C_4  and  N_11
REMARK    7  A    between atoms: C_15  and  C_16
REMARK    8  A    between atoms: C_16  and  C_19
REMARK    9  A    between atoms: C_16  and  N_23
REMARK                            x       y       z     vdW  Elec       q    Type
REMARK                         _______ _______ _______ _____ _____    ______ ____
ROOT
ATOM      1  S   UNL     1     -33.571  26.348   1.261  0.00  0.00    -0.080 S 
ENDROOT
BRANCH   1   2
ATOM      2  S   UNL     1     -35.512  25.677   1.314  0.00  0.00    -0.080 S 
BRANCH   2   3
ATOM      3  C   UNL     1     -35.296  23.966   1.861  0.00  0.00    +0.098 C 
BRANCH   3   4
ATOM      4  C   UNL     1     -36.318  23.521   2.911  0.00  0.00    +0.160 C 
BRANCH   4   7
ATOM      5  O   UNL     1     -35.455  21.289   3.316  0.00  0.00    -0.273 OA
ATOM      6  N   UNL     1     -35.887  22.665   5.134  0.00  0.00    -0.301 N 
ATOM      7  C   UNL     1     -35.830  22.364   3.781  0.00  0.00    +0.241 C 
ATOM      8  C   UNL     1     -35.502  21.723   6.159  0.00  0.00    +0.111 C 
ATOM      9  H   UNL     1     -36.203  23.557   5.407  0.00  0.00    +0.150 HD
ENDBRANCH   4   7
BRANCH   4  11
ATOM     10  O   UNL     1     -38.946  24.536   3.611  0.00  0.00    -0.275 OA
ATOM     11  N   UNL     1     -37.582  23.161   2.319  0.00  0.00    -0.298 N 
ATOM     12  C   UNL     1     -38.793  23.702   2.722  0.00  0.00    +0.223 C 
ATOM     13  C   UNL     1     -39.953  23.172   1.921  0.00  0.00    +0.095 C 
ATOM     14  H   UNL     1     -37.585  22.497   1.591  0.00  0.00    +0.150 HD
ENDBRANCH   4  11
ENDBRANCH   3   4
ENDBRANCH   2   3
ENDBRANCH   1   2
BRANCH   1  15
ATOM     15  C   UNL     1     -33.614  27.674   2.510  0.00  0.00    +0.098 C 
BRANCH  15  16
ATOM     16  C   UNL     1     -33.091  27.246   3.884  0.00  0.00    +0.160 C 
BRANCH  16  19
ATOM     17  O   UNL     1     -33.653  25.073   4.805  0.00  0.00    -0.273 OA
ATOM     18  N   UNL     1     -35.226  26.774   4.924  0.00  0.00    -0.301 N 
ATOM     19  C   UNL     1     -33.992  26.235   4.588  0.00  0.00    +0.241 C 
ATOM     20  C   UNL     1     -36.261  26.008   5.576  0.00  0.00    +0.111 C 
ATOM     21  H   UNL     1     -35.402  27.718   4.707  0.00  0.00    +0.150 HD
ENDBRANCH  16  19
BRANCH  16  23
ATOM     22  O   UNL     1     -30.788  27.756   5.576  0.00  0.00    -0.275 OA
ATOM     23  N   UNL     1     -32.880  28.373   4.757  0.00  0.00    -0.298 N 
ATOM     24  C   UNL     1     -31.740  28.531   5.532  0.00  0.00    +0.223 C 
ATOM     25  C   UNL     1     -31.765  29.806   6.333  0.00  0.00    +0.095 C 
ATOM     26  H   UNL     1     -33.579  29.064   4.807  0.00  0.00    +0.150 HD
ENDBRANCH  16  23
ENDBRANCH  15  16
ENDBRANCH   1  15
TORSDOF 9
ENDMDL
MODEL 6
REMARK VINA RESULT:      -5.0      2.408      4.071
REMARK  Name = 192875
REMARK  9 active torsions:
REMARK  status: ('A' for Active; 'I' for Inactive)
REMARK    1  A    between atoms: S_1  and  S_2
REMARK    2  A    between atoms: S_1  and  C_15
REMARK    3  A    between atoms: S_2  and  C_3
REMARK    4  A    between atoms: C_3  and  C_4
REMARK    5  A    between atoms: C_4  and  C_7
REMARK    6  A    between atoms: C_4  and  N_11
REMARK    7  A    between atoms: C_15  and  C_16
REMARK    8  A    between atoms: C_16  and  C_19
REMARK    9  A    between atoms: C_16  and  N_23
REMARK                            x       y       z     vdW  Elec       q    Type
REMARK                         _______ _______ _______ _____ _____    ______ ____
ROOT
ATOM      1  S   UNL     1     -35.259  25.242   1.085  0.00  0.00    -0.080 S 
ENDROOT
BRANCH   1   2
ATOM      2  S   UNL     1     -33.349  25.992   1.191  0.00  0.00    -0.080 S 
BRANCH   2   3
ATOM      3  C   UNL     1     -33.570  27.408   2.296  0.00  0.00    +0.098 C 
BRANCH   3   4
ATOM      4  C   UNL     1     -33.092  27.153   3.728  0.00  0.00    +0.160 C 
BRANCH   4   7
ATOM      5  O   UNL     1     -33.650  25.097   4.890  0.00  0.00    -0.273 OA
ATOM      6  N   UNL     1     -35.262  26.757   4.725  0.00  0.00    -0.301 N 
ATOM      7  C   UNL     1     -34.004  26.213   4.515  0.00  0.00    +0.241 C 
ATOM      8  C   UNL     1     -36.310  26.050   5.423  0.00  0.00    +0.111 C 
ATOM      9  H   UNL     1     -35.449  27.662   4.384  0.00  0.00    +0.150 HD
ENDBRANCH   4   7
BRANCH   4  11
ATOM     10  O   UNL     1     -30.865  27.895   5.435  0.00  0.00    -0.275 OA
ATOM     11  N   UNL     1     -32.928  28.377   4.471  0.00  0.00    -0.298 N 
ATOM     12  C   UNL     1     -31.823  28.644   5.264  0.00  0.00    +0.223 C 
ATOM     13  C   UNL     1     -31.894  30.003   5.908  0.00  0.00    +0.095 C 
ATOM     14  H   UNL     1     -33.637  29.058   4.412  0.00  0.00    +0.150 HD
ENDBRANCH   4  11
ENDBRANCH   3   4
ENDBRANCH   2   3
ENDBRANCH   1   2
BRANCH   1  15
ATOM     15  C   UNL     1     -35.052  23.620   1.889  0.00  0.00    +0.098 C 
BRANCH  15  16
ATOM     16  C   UNL     1     -36.151  23.289   2.902  0.00  0.00    +0.160 C 
BRANCH  16  19
ATOM     17  O   UNL     1     -35.429  21.101   3.666  0.00  0.00    -0.273 OA
ATOM     18  N   UNL     1     -35.732  22.785   5.233  0.00  0.00    -0.301 N 
ATOM     19  C   UNL     1     -35.723  22.262   3.948  0.00  0.00    +0.241 C 
ATOM     20  C   UNL     1     -35.389  22.002   6.396  0.00  0.00    +0.111 C 
ATOM     21  H   UNL     1     -35.983  23.729   5.356  0.00  0.00    +0.150 HD
ENDBRANCH  16  19
BRANCH  16  23
ATOM     22  O   UNL     1     -38.863  24.204   3.388  0.00  0.00    -0.275 OA
ATOM     23  N   UNL     1     -37.358  22.830   2.262  0.00  0.00    -0.298 N 
ATOM     24  C   UNL     1     -38.616  23.330   2.562  0.00  0.00    +0.223 C 
ATOM     25  C   UNL     1     -39.698  22.693   1.730  0.00  0.00    +0.095 C 
ATOM     26  H   UNL     1     -37.285  22.126   1.577  0.00  0.00    +0.150 HD
ENDBRANCH  16  23
ENDBRANCH  15  16
ENDBRANCH   1  15
TORSDOF 9
ENDMDL
MODEL 7
REMARK VINA RESULT:      -4.8      0.774      5.438
REMARK  Name = 192875
REMARK  9 active torsions:
REMARK  status: ('A' for Active; 'I' for Inactive)
REMARK    1  A    between atoms: S_1  and  S_2
REMARK    2  A    between atoms: S_1  and  C_15
REMARK    3  A    between atoms: S_2  and  C_3
REMARK    4  A    between atoms: C_3  and  C_4
REMARK    5  A    between atoms: C_4  and  C_7
REMARK    6  A    between atoms: C_4  and  N_11
REMARK    7  A    between atoms: C_15  and  C_16
REMARK    8  A    between atoms: C_16  and  C_19
REMARK    9  A    between atoms: C_16  and  N_23
REMARK                            x       y       z     vdW  Elec       q    Type
REMARK                         _______ _______ _______ _____ _____    ______ ____
ROOT
ATOM      1  S   UNL     1     -34.661  25.130   1.835  0.00  0.00    -0.080 S 
ENDROOT
BRANCH   1   2
ATOM      2  S   UNL     1     -35.650  23.609   0.873  0.00  0.00    -0.080 S 
BRANCH   2   3
ATOM      3  C   UNL     1     -35.486  22.254   2.061  0.00  0.00    +0.098 C 
BRANCH   3   4
ATOM      4  C   UNL     1     -36.666  22.136   3.030  0.00  0.00    +0.160 C 
BRANCH   4   7
ATOM      5  O   UNL     1     -38.595  22.598   1.631  0.00  0.00    -0.273 OA
ATOM      6  N   UNL     1     -38.103  24.054   3.368  0.00  0.00    -0.301 N 
ATOM      7  C   UNL     1     -37.896  22.927   2.587  0.00  0.00    +0.241 C 
ATOM      8  C   UNL     1     -39.189  24.978   3.132  0.00  0.00    +0.111 C 
ATOM      9  H   UNL     1     -37.486  24.233   4.114  0.00  0.00    +0.150 HD
ENDBRANCH   4   7
BRANCH   4  11
ATOM     10  O   UNL     1     -35.029  20.671   4.927  0.00  0.00    -0.275 OA
ATOM     11  N   UNL     1     -36.310  22.533   4.368  0.00  0.00    -0.298 N 
ATOM     12  C   UNL     1     -35.519  21.763   5.206  0.00  0.00    +0.223 C 
ATOM     13  C   UNL     1     -35.281  22.423   6.538  0.00  0.00    +0.095 C 
ATOM     14  H   UNL     1     -36.647  23.395   4.705  0.00  0.00    +0.150 HD
ENDBRANCH   4  11
ENDBRANCH   3   4
ENDBRANCH   2   3
ENDBRANCH   1   2
BRANCH   1  15
ATOM     15  C   UNL     1     -35.947  26.420   1.885  0.00  0.00    +0.098 C 
BRANCH  15  16
ATOM     16  C   UNL     1     -35.709  27.489   2.955  0.00  0.00    +0.160 C 
BRANCH  16  19
ATOM     17  O   UNL     1     -34.692  28.896   1.258  0.00  0.00    -0.273 OA
ATOM     18  N   UNL     1     -35.226  29.834   3.312  0.00  0.00    -0.301 N 
ATOM     19  C   UNL     1     -35.158  28.798   2.392  0.00  0.00    +0.241 C 
ATOM     20  C   UNL     1     -34.745  31.165   3.025  0.00  0.00    +0.111 C 
ATOM     21  H   UNL     1     -35.619  29.655   4.197  0.00  0.00    +0.150 HD
ENDBRANCH  16  19
BRANCH  16  23
ATOM     22  O   UNL     1     -36.392  25.771   5.193  0.00  0.00    -0.275 OA
ATOM     23  N   UNL     1     -34.832  27.023   4.000  0.00  0.00    -0.298 N 
ATOM     24  C   UNL     1     -35.252  26.200   5.034  0.00  0.00    +0.223 C 
ATOM     25  C   UNL     1     -34.130  25.845   5.974  0.00  0.00    +0.095 C 
ATOM     26  H   UNL     1     -33.889  27.304   3.978  0.00  0.00    +0.150 HD
ENDBRANCH  16  23
ENDBRANCH  15  16
ENDBRANCH   1  15
TORSDOF 9
ENDMDL
MODEL 8
REMARK VINA RESULT:      -4.8      2.506      5.447
REMARK  Name = 192875
REMARK  9 active torsions:
REMARK  status: ('A' for Active; 'I' for Inactive)
REMARK    1  A    between atoms: S_1  and  S_2
REMARK    2  A    between atoms: S_1  and  C_15
REMARK    3  A    between atoms: S_2  and  C_3
REMARK    4  A    between atoms: C_3  and  C_4
REMARK    5  A    between atoms: C_4  and  C_7
REMARK    6  A    between atoms: C_4  and  N_11
REMARK    7  A    between atoms: C_15  and  C_16
REMARK    8  A    between atoms: C_16  and  C_19
REMARK    9  A    between atoms: C_16  and  N_23
REMARK                            x       y       z     vdW  Elec       q    Type
REMARK                         _______ _______ _______ _____ _____    ______ ____
ROOT
ATOM      1  S   UNL     1     -35.332  26.001   1.856  0.00  0.00    -0.080 S 
ENDROOT
BRANCH   1   2
ATOM      2  S   UNL     1     -35.463  24.415   0.558  0.00  0.00    -0.080 S 
BRANCH   2   3
ATOM      3  C   UNL     1     -37.254  24.200   0.418  0.00  0.00    +0.098 C 
BRANCH   3   4
ATOM      4  C   UNL     1     -37.788  22.974   1.163  0.00  0.00    +0.160 C 
BRANCH   4   7
ATOM      5  O   UNL     1     -39.960  22.499   2.137  0.00  0.00    -0.273 OA
ATOM      6  N   UNL     1     -38.929  24.516   2.640  0.00  0.00    -0.301 N 
ATOM      7  C   UNL     1     -39.012  23.274   2.028  0.00  0.00    +0.241 C 
ATOM      8  C   UNL     1     -39.975  25.037   3.490  0.00  0.00    +0.111 C 
ATOM      9  H   UNL     1     -38.125  25.065   2.491  0.00  0.00    +0.150 HD
ENDBRANCH   4   7
BRANCH   4  11
ATOM     10  O   UNL     1     -37.013  20.177   1.192  0.00  0.00    -0.275 OA
ATOM     11  N   UNL     1     -36.777  22.355   1.982  0.00  0.00    -0.298 N 
ATOM     12  C   UNL     1     -36.475  21.003   1.926  0.00  0.00    +0.223 C 
ATOM     13  C   UNL     1     -35.363  20.624   2.868  0.00  0.00    +0.095 C 
ATOM     14  H   UNL     1     -36.275  22.920   2.614  0.00  0.00    +0.150 HD
ENDBRANCH   4  11
ENDBRANCH   3   4
ENDBRANCH   2   3
ENDBRANCH   1   2
BRANCH   1  15
ATOM     15  C   UNL     1     -34.138  25.367   3.079  0.00  0.00    +0.098 C 
BRANCH  15  16
ATOM     16  C   UNL     1     -34.554  25.612   4.532  0.00  0.00    +0.160 C 
BRANCH  16  19
ATOM     17  O   UNL     1     -33.535  26.667   6.466  0.00  0.00    -0.273 OA
ATOM     18  N   UNL     1     -33.120  27.555   4.363  0.00  0.00    -0.301 N 
ATOM     19  C   UNL     1     -33.686  26.646   5.245  0.00  0.00    +0.241 C 
ATOM     20  C   UNL     1     -32.277  28.644   4.799  0.00  0.00    +0.111 C 
ATOM     21  H   UNL     1     -33.300  27.454   3.401  0.00  0.00    +0.150 HD
ENDBRANCH  16  19
BRANCH  16  23
ATOM     22  O   UNL     1     -36.683  23.645   4.698  0.00  0.00    -0.275 OA
ATOM     23  N   UNL     1     -34.563  24.396   5.305  0.00  0.00    -0.298 N 
ATOM     24  C   UNL     1     -35.632  23.513   5.321  0.00  0.00    +0.223 C 
ATOM     25  C   UNL     1     -35.370  22.312   6.191  0.00  0.00    +0.095 C 
ATOM     26  H   UNL     1     -33.771  24.181   5.848  0.00  0.00    +0.150 HD
ENDBRANCH  16  23
ENDBRANCH  15  16
ENDBRANCH   1  15
TORSDOF 9
ENDMDL
MODEL 9
REMARK VINA RESULT:      -4.8      2.228      6.882
REMARK  Name = 192875
REMARK  9 active torsions:
REMARK  status: ('A' for Active; 'I' for Inactive)
REMARK    1  A    between atoms: S_1  and  S_2
REMARK    2  A    between atoms: S_1  and  C_15
REMARK    3  A    between atoms: S_2  and  C_3
REMARK    4  A    between atoms: C_3  and  C_4
REMARK    5  A    between atoms: C_4  and  C_7
REMARK    6  A    between atoms: C_4  and  N_11
REMARK    7  A    between atoms: C_15  and  C_16
REMARK    8  A    between atoms: C_16  and  C_19
REMARK    9  A    between atoms: C_16  and  N_23
REMARK                            x       y       z     vdW  Elec       q    Type
REMARK                         _______ _______ _______ _____ _____    ______ ____
ROOT
ATOM      1  S   UNL     1     -35.718  25.873   1.335  0.00  0.00    -0.080 S 
ENDROOT
BRANCH   1   2
ATOM      2  S   UNL     1     -34.825  24.024   1.360  0.00  0.00    -0.080 S 
BRANCH   2   3
ATOM      3  C   UNL     1     -36.259  22.921   1.309  0.00  0.00    +0.098 C 
BRANCH   3   4
ATOM      4  C   UNL     1     -36.235  21.828   2.382  0.00  0.00    +0.160 C 
BRANCH   4   7
ATOM      5  O   UNL     1     -37.028  23.334   4.112  0.00  0.00    -0.273 OA
ATOM      6  N   UNL     1     -35.506  21.679   4.685  0.00  0.00    -0.301 N 
ATOM      7  C   UNL     1     -36.323  22.374   3.806  0.00  0.00    +0.241 C 
ATOM      8  C   UNL     1     -35.396  22.022   6.085  0.00  0.00    +0.111 C 
ATOM      9  H   UNL     1     -34.978  20.922   4.342  0.00  0.00    +0.150 HD
ENDBRANCH   4   7
BRANCH   4  11
ATOM     10  O   UNL     1     -35.924  19.446   0.753  0.00  0.00    -0.275 OA
ATOM     11  N   UNL     1     -35.069  20.988   2.273  0.00  0.00    -0.298 N 
ATOM     12  C   UNL     1     -35.014  19.864   1.464  0.00  0.00    +0.223 C 
ATOM     13  C   UNL     1     -33.672  19.184   1.519  0.00  0.00    +0.095 C 
ATOM     14  H   UNL     1     -34.271  21.225   2.801  0.00  0.00    +0.150 HD
ENDBRANCH   4  11
ENDBRANCH   3   4
ENDBRANCH   2   3
ENDBRANCH   1   2
BRANCH   1  15
ATOM     15  C   UNL     1     -35.566  26.369   3.082  0.00  0.00    +0.098 C 
BRANCH  15  16
ATOM     16  C   UNL     1     -34.412  27.339   3.350  0.00  0.00    +0.160 C 
BRANCH  16  19
ATOM     17  O   UNL     1     -33.440  25.780   4.936  0.00  0.00    -0.273 OA
ATOM     18  N   UNL     1     -32.943  28.037   5.144  0.00  0.00    -0.301 N 
ATOM     19  C   UNL     1     -33.551  26.941   4.547  0.00  0.00    +0.241 C 
ATOM     20  C   UNL     1     -32.099  27.921   6.309  0.00  0.00    +0.111 C 
ATOM     21  H   UNL     1     -33.094  28.929   4.756  0.00  0.00    +0.150 HD
ENDBRANCH  16  19
BRANCH  16  23
ATOM     22  O   UNL     1     -34.644  29.411   1.330  0.00  0.00    -0.275 OA
ATOM     23  N   UNL     1     -34.873  28.692   3.534  0.00  0.00    -0.298 N 
ATOM     24  C   UNL     1     -34.949  29.616   2.503  0.00  0.00    +0.223 C 
ATOM     25  C   UNL     1     -35.486  30.945   2.963  0.00  0.00    +0.095 C 
ATOM     26  H   UNL     1     -35.147  28.974   4.436  0.00  0.00    +0.150 HD
ENDBRANCH  16  23
ENDBRANCH  15  16
ENDBRANCH   1  15
TORSDOF 9
ENDMDL
