MODEL 1
REMARK VINA RESULT:      -7.0      0.000      0.000
REMARK  Name = 5477784
REMARK  14 active torsions:
REMARK  status: ('A' for Active; 'I' for Inactive)
REMARK    1  A    between atoms: C_1  and  C_2
REMARK    2  A    between atoms: C_1  and  O_15
REMARK    3  A    between atoms: C_1  and  C_22
REMARK    4  A    between atoms: C_2  and  O_4
REMARK    5  A    between atoms: C_2  and  C_6
REMARK    6  A    between atoms: C_7  and  C_10
REMARK    7  A    between atoms: O_15  and  P_16
REMARK    8  A    between atoms: P_16  and  O_18
REMARK    9  A    between atoms: P_16  and  O_20
REMARK   10  A    between atoms: C_22  and  C_23
REMARK   11  A    between atoms: C_23  and  O_24
REMARK   12  A    between atoms: C_23  and  C_26
REMARK   13  A    between atoms: C_27  and  C_28
REMARK   14  A    between atoms: C_29  and  C_30
REMARK                            x       y       z     vdW  Elec       q    Type
REMARK                         _______ _______ _______ _____ _____    ______ ____
ROOT
ATOM      1  C   UNL     1     -36.007  24.913   3.609  0.00  0.00    +0.157 C 
ENDROOT
BRANCH   1   2
ATOM      2  C   UNL     1     -35.341  25.873   4.637  0.00  0.00    +0.132 C 
ATOM      3  C   UNL     1     -34.771  25.088   5.830  0.00  0.00    +0.036 C 
BRANCH   2   4
ATOM      4  O   UNL     1     -36.379  26.724   5.150  0.00  0.00    -0.380 OA
ATOM      5  H   UNL     1     -36.028  27.619   5.281  0.00  0.00    +0.211 HD
ENDBRANCH   2   4
BRANCH   2   6
ATOM      6  C   UNL     1     -34.242  26.770   4.095  0.00  0.00    +0.001 C 
ATOM      7  C   UNL     1     -33.229  27.325   4.779  0.00  0.00    +0.015 C 
BRANCH   7  10
ATOM      8  O   UNL     1     -30.879  27.813   4.661  0.00  0.00    -0.444 OA
ATOM      9  O   UNL     1     -29.444  27.804   6.414  0.00  0.00    -0.245 OA
ATOM     10  C   UNL     1     -32.181  28.192   4.151  0.00  0.00    +0.195 C 
ATOM     11  C   UNL     1     -32.424  29.686   4.336  0.00  0.00    +0.075 C 
ATOM     12  C   UNL     1     -32.036  30.112   5.711  0.00  0.00    -0.015 C 
ATOM     13  C   UNL     1     -30.420  28.287   5.848  0.00  0.00    +0.341 C 
ATOM     14  C   UNL     1     -31.129  29.441   6.427  0.00  0.00    +0.077 C 
ENDBRANCH   7  10
ENDBRANCH   2   6
ENDBRANCH   1   2
BRANCH   1  15
ATOM     15  O   UNL     1     -37.344  24.615   4.029  0.00  0.00    -0.273 OA
BRANCH  15  16
ATOM     16  P   UNL     1     -38.555  25.018   3.046  0.00  0.00    +0.473 P 
ATOM     17  O   UNL     1     -38.648  24.216   1.781  0.00  0.00    -0.227 OA
BRANCH  16  18
ATOM     18  O   UNL     1     -39.842  24.913   4.018  0.00  0.00    -0.303 OA
ATOM     19  H   UNL     1     -39.548  24.876   4.942  0.00  0.00    +0.222 HD
ENDBRANCH  16  18
BRANCH  16  20
ATOM     20  O   UNL     1     -38.373  26.613   2.841  0.00  0.00    -0.303 OA
ATOM     21  H   UNL     1     -39.167  27.072   3.157  0.00  0.00    +0.222 HD
ENDBRANCH  16  20
ENDBRANCH  15  16
ENDBRANCH   1  15
BRANCH   1  22
ATOM     22  C   UNL     1     -35.263  23.576   3.424  0.00  0.00    +0.067 C 
BRANCH  22  23
ATOM     23  C   UNL     1     -36.131  22.336   3.708  0.00  0.00    +0.135 C 
BRANCH  23  24
ATOM     24  O   UNL     1     -36.193  22.144   5.124  0.00  0.00    -0.380 OA
ATOM     25  H   UNL     1     -35.435  21.613   5.412  0.00  0.00    +0.211 HD
ENDBRANCH  23  24
BRANCH  23  26
ATOM     26  C   UNL     1     -35.548  21.081   3.120  0.00  0.00    +0.003 C 
ATOM     27  C   UNL     1     -35.196  20.845   1.846  0.00  0.00    -0.002 C 
BRANCH  27  28
ATOM     28  C   UNL     1     -34.637  19.623   1.312  0.00  0.00    -0.000 C 
ATOM     29  C   UNL     1     -33.370  19.244   1.540  0.00  0.00    -0.000 C 
BRANCH  29  30
ATOM     30  C   UNL     1     -32.803  18.026   1.005  0.00  0.00    -0.005 C 
ATOM     31  C   UNL     1     -33.524  17.112   0.338  0.00  0.00    -0.026 C 
ATOM     32  C   UNL     1     -32.950  15.851  -0.219  0.00  0.00    +0.031 C 
ENDBRANCH  29  30
ENDBRANCH  27  28
ENDBRANCH  23  26
ENDBRANCH  22  23
ENDBRANCH   1  22
TORSDOF 14
ENDMDL
MODEL 2
REMARK VINA RESULT:      -6.6      2.088      2.570
REMARK  Name = 5477784
REMARK  14 active torsions:
REMARK  status: ('A' for Active; 'I' for Inactive)
REMARK    1  A    between atoms: C_1  and  C_2
REMARK    2  A    between atoms: C_1  and  O_15
REMARK    3  A    between atoms: C_1  and  C_22
REMARK    4  A    between atoms: C_2  and  O_4
REMARK    5  A    between atoms: C_2  and  C_6
REMARK    6  A    between atoms: C_7  and  C_10
REMARK    7  A    between atoms: O_15  and  P_16
REMARK    8  A    between atoms: P_16  and  O_18
REMARK    9  A    between atoms: P_16  and  O_20
REMARK   10  A    between atoms: C_22  and  C_23
REMARK   11  A    between atoms: C_23  and  O_24
REMARK   12  A    between atoms: C_23  and  C_26
REMARK   13  A    between atoms: C_27  and  C_28
REMARK   14  A    between atoms: C_29  and  C_30
REMARK                            x       y       z     vdW  Elec       q    Type
REMARK                         _______ _______ _______ _____ _____    ______ ____
ROOT
ATOM      1  C   UNL     1     -35.728  24.759   4.274  0.00  0.00    +0.157 C 
ENDROOT
BRANCH   1   2
ATOM      2  C   UNL     1     -35.269  26.158   4.776  0.00  0.00    +0.132 C 
ATOM      3  C   UNL     1     -34.213  26.024   5.885  0.00  0.00    +0.036 C 
BRANCH   2   4
ATOM      4  O   UNL     1     -36.419  26.791   5.361  0.00  0.00    -0.380 OA
ATOM      5  H   UNL     1     -36.256  27.744   5.443  0.00  0.00    +0.211 HD
ENDBRANCH   2   4
BRANCH   2   6
ATOM      6  C   UNL     1     -34.722  27.098   3.716  0.00  0.00    +0.001 C 
ATOM      7  C   UNL     1     -35.421  27.851   2.852  0.00  0.00    +0.015 C 
BRANCH   7  10
ATOM      8  O   UNL     1     -33.614  29.376   2.426  0.00  0.00    -0.444 OA
ATOM      9  O   UNL     1     -32.779  30.873   3.908  0.00  0.00    -0.245 OA
ATOM     10  C   UNL     1     -34.788  28.761   1.843  0.00  0.00    +0.195 C 
ATOM     11  C   UNL     1     -35.736  29.817   1.284  0.00  0.00    +0.075 C 
ATOM     12  C   UNL     1     -35.913  30.928   2.262  0.00  0.00    -0.015 C 
ATOM     13  C   UNL     1     -33.711  30.479   3.214  0.00  0.00    +0.341 C 
ATOM     14  C   UNL     1     -34.987  31.214   3.181  0.00  0.00    +0.077 C 
ENDBRANCH   7  10
ENDBRANCH   2   6
ENDBRANCH   1   2
BRANCH   1  15
ATOM     15  O   UNL     1     -37.152  24.652   4.389  0.00  0.00    -0.273 OA
BRANCH  15  16
ATOM     16  P   UNL     1     -38.042  24.959   3.081  0.00  0.00    +0.473 P 
ATOM     17  O   UNL     1     -37.323  24.826   1.771  0.00  0.00    -0.227 OA
BRANCH  16  18
ATOM     18  O   UNL     1     -39.300  23.961   3.275  0.00  0.00    -0.303 OA
ATOM     19  H   UNL     1     -39.901  24.324   3.945  0.00  0.00    +0.222 HD
ENDBRANCH  16  18
BRANCH  16  20
ATOM     20  O   UNL     1     -38.676  26.418   3.377  0.00  0.00    -0.303 OA
ATOM     21  H   UNL     1     -38.244  27.078   2.813  0.00  0.00    +0.222 HD
ENDBRANCH  16  20
ENDBRANCH  15  16
ENDBRANCH   1  15
BRANCH   1  22
ATOM     22  C   UNL     1     -35.106  23.579   5.047  0.00  0.00    +0.067 C 
BRANCH  22  23
ATOM     23  C   UNL     1     -35.940  22.286   4.988  0.00  0.00    +0.135 C 
BRANCH  23  24
ATOM     24  O   UNL     1     -35.864  21.642   6.262  0.00  0.00    -0.380 OA
ATOM     25  H   UNL     1     -34.962  21.717   6.610  0.00  0.00    +0.211 HD
ENDBRANCH  23  24
BRANCH  23  26
ATOM     26  C   UNL     1     -35.414  21.311   3.971  0.00  0.00    +0.003 C 
ATOM     27  C   UNL     1     -35.760  21.190   2.678  0.00  0.00    -0.002 C 
BRANCH  27  28
ATOM     28  C   UNL     1     -35.234  20.238   1.725  0.00  0.00    -0.000 C 
ATOM     29  C   UNL     1     -34.039  19.646   1.875  0.00  0.00    -0.000 C 
BRANCH  29  30
ATOM     30  C   UNL     1     -33.505  18.698   0.923  0.00  0.00    -0.005 C 
ATOM     31  C   UNL     1     -32.410  17.958   1.158  0.00  0.00    -0.026 C 
ATOM     32  C   UNL     1     -31.850  16.976   0.183  0.00  0.00    +0.031 C 
ENDBRANCH  29  30
ENDBRANCH  27  28
ENDBRANCH  23  26
ENDBRANCH  22  23
ENDBRANCH   1  22
TORSDOF 14
ENDMDL
MODEL 3
REMARK VINA RESULT:      -6.5      2.086      3.053
REMARK  Name = 5477784
REMARK  14 active torsions:
REMARK  status: ('A' for Active; 'I' for Inactive)
REMARK    1  A    between atoms: C_1  and  C_2
REMARK    2  A    between atoms: C_1  and  O_15
REMARK    3  A    between atoms: C_1  and  C_22
REMARK    4  A    between atoms: C_2  and  O_4
REMARK    5  A    between atoms: C_2  and  C_6
REMARK    6  A    between atoms: C_7  and  C_10
REMARK    7  A    between atoms: O_15  and  P_16
REMARK    8  A    between atoms: P_16  and  O_18
REMARK    9  A    between atoms: P_16  and  O_20
REMARK   10  A    between atoms: C_22  and  C_23
REMARK   11  A    between atoms: C_23  and  O_24
REMARK   12  A    between atoms: C_23  and  C_26
REMARK   13  A    between atoms: C_27  and  C_28
REMARK   14  A    between atoms: C_29  and  C_30
REMARK                            x       y       z     vdW  Elec       q    Type
REMARK                         _______ _______ _______ _____ _____    ______ ____
ROOT
ATOM      1  C   UNL     1     -36.006  22.901   3.621  0.00  0.00    +0.157 C 
ENDROOT
BRANCH   1   2
ATOM      2  C   UNL     1     -35.508  23.767   4.814  0.00  0.00    +0.132 C 
ATOM      3  C   UNL     1     -35.093  22.881   6.000  0.00  0.00    +0.036 C 
BRANCH   2   4
ATOM      4  O   UNL     1     -36.625  24.560   5.251  0.00  0.00    -0.380 OA
ATOM      5  H   UNL     1     -36.425  24.951   6.116  0.00  0.00    +0.211 HD
ENDBRANCH   2   4
BRANCH   2   6
ATOM      6  C   UNL     1     -34.364  24.719   4.514  0.00  0.00    +0.001 C 
ATOM      7  C   UNL     1     -34.413  26.057   4.434  0.00  0.00    +0.015 C 
BRANCH   7  10
ATOM      8  O   UNL     1     -33.610  28.310   4.203  0.00  0.00    -0.444 OA
ATOM      9  O   UNL     1     -34.747  30.020   3.243  0.00  0.00    -0.245 OA
ATOM     10  C   UNL     1     -33.221  26.917   4.141  0.00  0.00    +0.195 C 
ATOM     11  C   UNL     1     -32.543  26.599   2.812  0.00  0.00    +0.075 C 
ATOM     12  C   UNL     1     -33.316  27.184   1.679  0.00  0.00    -0.015 C 
ATOM     13  C   UNL     1     -34.194  28.930   3.143  0.00  0.00    +0.341 C 
ATOM     14  C   UNL     1     -34.110  28.246   1.841  0.00  0.00    +0.077 C 
ENDBRANCH   7  10
ENDBRANCH   2   6
ENDBRANCH   1   2
BRANCH   1  15
ATOM     15  O   UNL     1     -37.436  22.822   3.651  0.00  0.00    -0.273 OA
BRANCH  15  16
ATOM     16  P   UNL     1     -38.269  23.803   2.682  0.00  0.00    +0.473 P 
ATOM     17  O   UNL     1     -39.101  23.118   1.637  0.00  0.00    -0.227 OA
BRANCH  16  18
ATOM     18  O   UNL     1     -39.101  24.706   3.734  0.00  0.00    -0.303 OA
ATOM     19  H   UNL     1     -39.792  25.199   3.263  0.00  0.00    +0.222 HD
ENDBRANCH  16  18
BRANCH  16  20
ATOM     20  O   UNL     1     -37.152  24.827   2.114  0.00  0.00    -0.303 OA
ATOM     21  H   UNL     1     -37.387  25.095   1.212  0.00  0.00    +0.222 HD
ENDBRANCH  16  20
ENDBRANCH  15  16
ENDBRANCH   1  15
BRANCH   1  22
ATOM     22  C   UNL     1     -35.456  21.461   3.618  0.00  0.00    +0.067 C 
BRANCH  22  23
ATOM     23  C   UNL     1     -35.717  20.697   2.307  0.00  0.00    +0.135 C 
BRANCH  23  24
ATOM     24  O   UNL     1     -36.782  19.768   2.531  0.00  0.00    -0.380 OA
ATOM     25  H   UNL     1     -37.534  19.995   1.963  0.00  0.00    +0.211 HD
ENDBRANCH  23  24
BRANCH  23  26
ATOM     26  C   UNL     1     -34.525  19.897   1.861  0.00  0.00    +0.003 C 
ATOM     27  C   UNL     1     -33.614  20.214   0.926  0.00  0.00    -0.002 C 
BRANCH  27  28
ATOM     28  C   UNL     1     -32.476  19.419   0.520  0.00  0.00    -0.000 C 
ATOM     29  C   UNL     1     -32.165  18.248   1.097  0.00  0.00    -0.000 C 
BRANCH  29  30
ATOM     30  C   UNL     1     -31.025  17.452   0.700  0.00  0.00    -0.005 C 
ATOM     31  C   UNL     1     -29.758  17.880   0.804  0.00  0.00    -0.026 C 
ATOM     32  C   UNL     1     -28.573  17.067   0.397  0.00  0.00    +0.031 C 
ENDBRANCH  29  30
ENDBRANCH  27  28
ENDBRANCH  23  26
ENDBRANCH  22  23
ENDBRANCH   1  22
TORSDOF 14
ENDMDL
MODEL 4
REMARK VINA RESULT:      -6.4      3.639      6.854
REMARK  Name = 5477784
REMARK  14 active torsions:
REMARK  status: ('A' for Active; 'I' for Inactive)
REMARK    1  A    between atoms: C_1  and  C_2
REMARK    2  A    between atoms: C_1  and  O_15
REMARK    3  A    between atoms: C_1  and  C_22
REMARK    4  A    between atoms: C_2  and  O_4
REMARK    5  A    between atoms: C_2  and  C_6
REMARK    6  A    between atoms: C_7  and  C_10
REMARK    7  A    between atoms: O_15  and  P_16
REMARK    8  A    between atoms: P_16  and  O_18
REMARK    9  A    between atoms: P_16  and  O_20
REMARK   10  A    between atoms: C_22  and  C_23
REMARK   11  A    between atoms: C_23  and  O_24
REMARK   12  A    between atoms: C_23  and  C_26
REMARK   13  A    between atoms: C_27  and  C_28
REMARK   14  A    between atoms: C_29  and  C_30
REMARK                            x       y       z     vdW  Elec       q    Type
REMARK                         _______ _______ _______ _____ _____    ______ ____
ROOT
ATOM      1  C   UNL     1     -36.655  24.870   2.996  0.00  0.00    +0.157 C 
ENDROOT
BRANCH   1   2
ATOM      2  C   UNL     1     -37.579  25.921   2.314  0.00  0.00    +0.132 C 
ATOM      3  C   UNL     1     -36.760  27.110   1.787  0.00  0.00    +0.036 C 
BRANCH   2   4
ATOM      4  O   UNL     1     -38.457  26.430   3.331  0.00  0.00    -0.380 OA
ATOM      5  H   UNL     1     -37.931  26.837   4.038  0.00  0.00    +0.211 HD
ENDBRANCH   2   4
BRANCH   2   6
ATOM      6  C   UNL     1     -38.447  25.406   1.179  0.00  0.00    +0.001 C 
ATOM      7  C   UNL     1     -39.565  24.670   1.274  0.00  0.00    +0.015 C 
BRANCH   7  10
ATOM      8  O   UNL     1     -41.019  22.964   0.408  0.00  0.00    -0.444 OA
ATOM      9  O   UNL     1     -40.808  20.740   0.785  0.00  0.00    -0.245 OA
ATOM     10  C   UNL     1     -40.363  24.216   0.090  0.00  0.00    +0.195 C 
ATOM     11  C   UNL     1     -39.549  24.093  -1.193  0.00  0.00    +0.075 C 
ATOM     12  C   UNL     1     -38.744  22.838  -1.182  0.00  0.00    -0.015 C 
ATOM     13  C   UNL     1     -40.368  21.777   0.300  0.00  0.00    +0.341 C 
ATOM     14  C   UNL     1     -39.106  21.774  -0.461  0.00  0.00    +0.077 C 
ENDBRANCH   7  10
ENDBRANCH   2   6
ENDBRANCH   1   2
BRANCH   1  15
ATOM     15  O   UNL     1     -35.542  25.535   3.605  0.00  0.00    -0.273 OA
BRANCH  15  16
ATOM     16  P   UNL     1     -35.433  25.512   5.212  0.00  0.00    +0.473 P 
ATOM     17  O   UNL     1     -34.072  25.817   5.766  0.00  0.00    -0.227 OA
BRANCH  16  18
ATOM     18  O   UNL     1     -36.597  26.544   5.654  0.00  0.00    -0.303 OA
ATOM     19  H   UNL     1     -36.623  26.607   6.622  0.00  0.00    +0.222 HD
ENDBRANCH  16  18
BRANCH  16  20
ATOM     20  O   UNL     1     -36.039  24.069   5.621  0.00  0.00    -0.303 OA
ATOM     21  H   UNL     1     -36.750  23.831   5.006  0.00  0.00    +0.222 HD
ENDBRANCH  16  20
ENDBRANCH  15  16
ENDBRANCH   1  15
BRANCH   1  22
ATOM     22  C   UNL     1     -36.096  23.805   2.032  0.00  0.00    +0.067 C 
BRANCH  22  23
ATOM     23  C   UNL     1     -36.655  22.391   2.274  0.00  0.00    +0.135 C 
BRANCH  23  24
ATOM     24  O   UNL     1     -37.401  22.404   3.495  0.00  0.00    -0.380 OA
ATOM     25  H   UNL     1     -38.256  22.836   3.346  0.00  0.00    +0.211 HD
ENDBRANCH  23  24
BRANCH  23  26
ATOM     26  C   UNL     1     -35.567  21.365   2.436  0.00  0.00    +0.003 C 
ATOM     27  C   UNL     1     -35.102  20.495   1.524  0.00  0.00    -0.002 C 
BRANCH  27  28
ATOM     28  C   UNL     1     -34.053  19.518   1.713  0.00  0.00    -0.000 C 
ATOM     29  C   UNL     1     -33.020  19.390   0.866  0.00  0.00    -0.000 C 
BRANCH  29  30
ATOM     30  C   UNL     1     -31.970  18.412   1.046  0.00  0.00    -0.005 C 
ATOM     31  C   UNL     1     -30.743  18.547   0.522  0.00  0.00    -0.026 C 
ATOM     32  C   UNL     1     -29.651  17.544   0.701  0.00  0.00    +0.031 C 
ENDBRANCH  29  30
ENDBRANCH  27  28
ENDBRANCH  23  26
ENDBRANCH  22  23
ENDBRANCH   1  22
TORSDOF 14
ENDMDL
MODEL 5
REMARK VINA RESULT:      -6.4      2.199      3.176
REMARK  Name = 5477784
REMARK  14 active torsions:
REMARK  status: ('A' for Active; 'I' for Inactive)
REMARK    1  A    between atoms: C_1  and  C_2
REMARK    2  A    between atoms: C_1  and  O_15
REMARK    3  A    between atoms: C_1  and  C_22
REMARK    4  A    between atoms: C_2  and  O_4
REMARK    5  A    between atoms: C_2  and  C_6
REMARK    6  A    between atoms: C_7  and  C_10
REMARK    7  A    between atoms: O_15  and  P_16
REMARK    8  A    between atoms: P_16  and  O_18
REMARK    9  A    between atoms: P_16  and  O_20
REMARK   10  A    between atoms: C_22  and  C_23
REMARK   11  A    between atoms: C_23  and  O_24
REMARK   12  A    between atoms: C_23  and  C_26
REMARK   13  A    between atoms: C_27  and  C_28
REMARK   14  A    between atoms: C_29  and  C_30
REMARK                            x       y       z     vdW  Elec       q    Type
REMARK                         _______ _______ _______ _____ _____    ______ ____
ROOT
ATOM      1  C   UNL     1     -36.960  23.076   2.914  0.00  0.00    +0.157 C 
ENDROOT
BRANCH   1   2
ATOM      2  C   UNL     1     -36.700  24.379   3.724  0.00  0.00    +0.132 C 
ATOM      3  C   UNL     1     -35.905  24.078   5.005  0.00  0.00    +0.036 C 
BRANCH   2   4
ATOM      4  O   UNL     1     -37.983  24.882   4.132  0.00  0.00    -0.380 OA
ATOM      5  H   UNL     1     -38.352  24.307   4.821  0.00  0.00    +0.211 HD
ENDBRANCH   2   4
BRANCH   2   6
ATOM      6  C   UNL     1     -35.989  25.494   2.980  0.00  0.00    +0.001 C 
ATOM      7  C   UNL     1     -34.766  25.459   2.428  0.00  0.00    +0.015 C 
BRANCH   7  10
ATOM      8  O   UNL     1     -32.745  26.342   1.475  0.00  0.00    -0.444 OA
ATOM      9  O   UNL     1     -30.672  26.140   2.369  0.00  0.00    -0.245 OA
ATOM     10  C   UNL     1     -34.149  26.614   1.700  0.00  0.00    +0.195 C 
ATOM     11  C   UNL     1     -34.339  27.956   2.399  0.00  0.00    +0.075 C 
ATOM     12  C   UNL     1     -33.386  28.090   3.538  0.00  0.00    -0.015 C 
ATOM     13  C   UNL     1     -31.815  26.579   2.438  0.00  0.00    +0.341 C 
ATOM     14  C   UNL     1     -32.229  27.423   3.572  0.00  0.00    +0.077 C 
ENDBRANCH   7  10
ENDBRANCH   2   6
ENDBRANCH   1   2
BRANCH   1  15
ATOM     15  O   UNL     1     -38.311  22.645   3.121  0.00  0.00    -0.273 OA
BRANCH  15  16
ATOM     16  P   UNL     1     -39.265  22.497   1.831  0.00  0.00    +0.473 P 
ATOM     17  O   UNL     1     -40.523  23.314   1.868  0.00  0.00    -0.227 OA
BRANCH  16  18
ATOM     18  O   UNL     1     -38.259  22.844   0.614  0.00  0.00    -0.303 OA
ATOM     19  H   UNL     1     -38.593  23.614   0.127  0.00  0.00    +0.222 HD
ENDBRANCH  16  18
BRANCH  16  20
ATOM     20  O   UNL     1     -39.482  20.900   1.691  0.00  0.00    -0.303 OA
ATOM     21  H   UNL     1     -39.662  20.678   0.764  0.00  0.00    +0.222 HD
ENDBRANCH  16  20
ENDBRANCH  15  16
ENDBRANCH   1  15
BRANCH   1  22
ATOM     22  C   UNL     1     -36.030  21.905   3.291  0.00  0.00    +0.067 C 
BRANCH  22  23
ATOM     23  C   UNL     1     -35.974  20.789   2.232  0.00  0.00    +0.135 C 
BRANCH  23  24
ATOM     24  O   UNL     1     -36.843  19.731   2.646  0.00  0.00    -0.380 OA
ATOM     25  H   UNL     1     -37.699  19.821   2.199  0.00  0.00    +0.211 HD
ENDBRANCH  23  24
BRANCH  23  26
ATOM     26  C   UNL     1     -34.599  20.198   2.094  0.00  0.00    +0.003 C 
ATOM     27  C   UNL     1     -34.176  19.272   1.218  0.00  0.00    -0.002 C 
BRANCH  27  28
ATOM     28  C   UNL     1     -32.842  18.723   1.112  0.00  0.00    -0.000 C 
ATOM     29  C   UNL     1     -31.860  19.329   0.426  0.00  0.00    -0.000 C 
BRANCH  29  30
ATOM     30  C   UNL     1     -30.526  18.783   0.312  0.00  0.00    -0.005 C 
ATOM     31  C   UNL     1     -30.118  17.695   0.982  0.00  0.00    -0.026 C 
ATOM     32  C   UNL     1     -28.743  17.123   0.873  0.00  0.00    +0.031 C 
ENDBRANCH  29  30
ENDBRANCH  27  28
ENDBRANCH  23  26
ENDBRANCH  22  23
ENDBRANCH   1  22
TORSDOF 14
ENDMDL
MODEL 6
REMARK VINA RESULT:      -6.3      1.541      2.283
REMARK  Name = 5477784
REMARK  14 active torsions:
REMARK  status: ('A' for Active; 'I' for Inactive)
REMARK    1  A    between atoms: C_1  and  C_2
REMARK    2  A    between atoms: C_1  and  O_15
REMARK    3  A    between atoms: C_1  and  C_22
REMARK    4  A    between atoms: C_2  and  O_4
REMARK    5  A    between atoms: C_2  and  C_6
REMARK    6  A    between atoms: C_7  and  C_10
REMARK    7  A    between atoms: O_15  and  P_16
REMARK    8  A    between atoms: P_16  and  O_18
REMARK    9  A    between atoms: P_16  and  O_20
REMARK   10  A    between atoms: C_22  and  C_23
REMARK   11  A    between atoms: C_23  and  O_24
REMARK   12  A    between atoms: C_23  and  C_26
REMARK   13  A    between atoms: C_27  and  C_28
REMARK   14  A    between atoms: C_29  and  C_30
REMARK                            x       y       z     vdW  Elec       q    Type
REMARK                         _______ _______ _______ _____ _____    ______ ____
ROOT
ATOM      1  C   UNL     1     -35.132  24.553   3.587  0.00  0.00    +0.157 C 
ENDROOT
BRANCH   1   2
ATOM      2  C   UNL     1     -35.108  25.961   4.249  0.00  0.00    +0.132 C 
ATOM      3  C   UNL     1     -35.131  25.847   5.782  0.00  0.00    +0.036 C 
BRANCH   2   4
ATOM      4  O   UNL     1     -36.319  26.629   3.858  0.00  0.00    -0.380 OA
ATOM      5  H   UNL     1     -36.413  27.451   4.365  0.00  0.00    +0.211 HD
ENDBRANCH   2   4
BRANCH   2   6
ATOM      6  C   UNL     1     -33.946  26.859   3.862  0.00  0.00    +0.001 C 
ATOM      7  C   UNL     1     -33.205  27.632   4.671  0.00  0.00    +0.015 C 
BRANCH   7  10
ATOM      8  O   UNL     1     -30.824  27.953   4.721  0.00  0.00    -0.444 OA
ATOM      9  O   UNL     1     -29.494  27.647   6.530  0.00  0.00    -0.245 OA
ATOM     10  C   UNL     1     -32.066  28.481   4.195  0.00  0.00    +0.195 C 
ATOM     11  C   UNL     1     -32.215  29.960   4.533  0.00  0.00    +0.075 C 
ATOM     12  C   UNL     1     -31.875  30.206   5.964  0.00  0.00    -0.015 C 
ATOM     13  C   UNL     1     -30.400  28.260   5.975  0.00  0.00    +0.341 C 
ATOM     14  C   UNL     1     -31.059  29.396   6.643  0.00  0.00    +0.077 C 
ENDBRANCH   7  10
ENDBRANCH   2   6
ENDBRANCH   1   2
BRANCH   1  15
ATOM     15  O   UNL     1     -34.655  23.577   4.521  0.00  0.00    -0.273 OA
BRANCH  15  16
ATOM     16  P   UNL     1     -35.583  22.293   4.814  0.00  0.00    +0.473 P 
ATOM     17  O   UNL     1     -34.968  20.967   4.475  0.00  0.00    -0.227 OA
BRANCH  16  18
ATOM     18  O   UNL     1     -35.966  22.490   6.373  0.00  0.00    -0.303 OA
ATOM     19  H   UNL     1     -35.181  22.337   6.922  0.00  0.00    +0.222 HD
ENDBRANCH  16  18
BRANCH  16  20
ATOM     20  O   UNL     1     -36.966  22.631   4.046  0.00  0.00    -0.303 OA
ATOM     21  H   UNL     1     -37.714  22.466   4.640  0.00  0.00    +0.222 HD
ENDBRANCH  16  20
ENDBRANCH  15  16
ENDBRANCH   1  15
BRANCH   1  22
ATOM     22  C   UNL     1     -34.271  24.444   2.313  0.00  0.00    +0.067 C 
BRANCH  22  23
ATOM     23  C   UNL     1     -34.957  23.685   1.161  0.00  0.00    +0.135 C 
BRANCH  23  24
ATOM     24  O   UNL     1     -36.362  23.643   1.424  0.00  0.00    -0.380 OA
ATOM     25  H   UNL     1     -36.573  22.841   1.927  0.00  0.00    +0.211 HD
ENDBRANCH  23  24
BRANCH  23  26
ATOM     26  C   UNL     1     -34.487  22.261   1.053  0.00  0.00    +0.003 C 
ATOM     27  C   UNL     1     -35.227  21.140   1.045  0.00  0.00    -0.002 C 
BRANCH  27  28
ATOM     28  C   UNL     1     -34.742  19.782   0.939  0.00  0.00    -0.000 C 
ATOM     29  C   UNL     1     -33.478  19.437   1.231  0.00  0.00    -0.000 C 
BRANCH  29  30
ATOM     30  C   UNL     1     -32.986  18.082   1.122  0.00  0.00    -0.005 C 
ATOM     31  C   UNL     1     -33.320  17.257   0.118  0.00  0.00    -0.026 C 
ATOM     32  C   UNL     1     -32.818  15.857  -0.005  0.00  0.00    +0.031 C 
ENDBRANCH  29  30
ENDBRANCH  27  28
ENDBRANCH  23  26
ENDBRANCH  22  23
ENDBRANCH   1  22
TORSDOF 14
ENDMDL
MODEL 7
REMARK VINA RESULT:      -6.2      2.691      4.485
REMARK  Name = 5477784
REMARK  14 active torsions:
REMARK  status: ('A' for Active; 'I' for Inactive)
REMARK    1  A    between atoms: C_1  and  C_2
REMARK    2  A    between atoms: C_1  and  O_15
REMARK    3  A    between atoms: C_1  and  C_22
REMARK    4  A    between atoms: C_2  and  O_4
REMARK    5  A    between atoms: C_2  and  C_6
REMARK    6  A    between atoms: C_7  and  C_10
REMARK    7  A    between atoms: O_15  and  P_16
REMARK    8  A    between atoms: P_16  and  O_18
REMARK    9  A    between atoms: P_16  and  O_20
REMARK   10  A    between atoms: C_22  and  C_23
REMARK   11  A    between atoms: C_23  and  O_24
REMARK   12  A    between atoms: C_23  and  C_26
REMARK   13  A    between atoms: C_27  and  C_28
REMARK   14  A    between atoms: C_29  and  C_30
REMARK                            x       y       z     vdW  Elec       q    Type
REMARK                         _______ _______ _______ _____ _____    ______ ____
ROOT
ATOM      1  C   UNL     1     -37.781  22.598   1.383  0.00  0.00    +0.157 C 
ENDROOT
BRANCH   1   2
ATOM      2  C   UNL     1     -38.277  23.830   2.193  0.00  0.00    +0.132 C 
ATOM      3  C   UNL     1     -39.755  23.670   2.585  0.00  0.00    +0.036 C 
BRANCH   2   4
ATOM      4  O   UNL     1     -38.193  24.968   1.319  0.00  0.00    -0.380 OA
ATOM      5  H   UNL     1     -37.768  24.705   0.487  0.00  0.00    +0.211 HD
ENDBRANCH   2   4
BRANCH   2   6
ATOM      6  C   UNL     1     -37.489  24.162   3.448  0.00  0.00    +0.001 C 
ATOM      7  C   UNL     1     -37.022  25.362   3.827  0.00  0.00    +0.015 C 
BRANCH   7  10
ATOM      8  O   UNL     1     -35.477  26.805   4.969  0.00  0.00    -0.444 OA
ATOM      9  O   UNL     1     -33.695  27.836   4.022  0.00  0.00    -0.245 OA
ATOM     10  C   UNL     1     -36.260  25.593   5.096  0.00  0.00    +0.195 C 
ATOM     11  C   UNL     1     -35.381  24.418   5.511  0.00  0.00    +0.075 C 
ATOM     12  C   UNL     1     -34.131  24.388   4.699  0.00  0.00    -0.015 C 
ATOM     13  C   UNL     1     -34.264  26.802   4.357  0.00  0.00    +0.341 C 
ATOM     14  C   UNL     1     -33.631  25.490   4.133  0.00  0.00    +0.077 C 
ENDBRANCH   7  10
ENDBRANCH   2   6
ENDBRANCH   1   2
BRANCH   1  15
ATOM     15  O   UNL     1     -38.704  21.515   1.547  0.00  0.00    -0.273 OA
BRANCH  15  16
ATOM     16  P   UNL     1     -39.565  21.053   0.265  0.00  0.00    +0.473 P 
ATOM     17  O   UNL     1     -41.055  21.118   0.437  0.00  0.00    -0.227 OA
BRANCH  16  18
ATOM     18  O   UNL     1     -38.971  21.992  -0.909  0.00  0.00    -0.303 OA
ATOM     19  H   UNL     1     -39.582  21.993  -1.664  0.00  0.00    +0.222 HD
ENDBRANCH  16  18
BRANCH  16  20
ATOM     20  O   UNL     1     -38.974  19.591  -0.093  0.00  0.00    -0.303 OA
ATOM     21  H   UNL     1     -38.142  19.452   0.387  0.00  0.00    +0.222 HD
ENDBRANCH  16  20
ENDBRANCH  15  16
ENDBRANCH   1  15
BRANCH   1  22
ATOM     22  C   UNL     1     -36.385  22.092   1.799  0.00  0.00    +0.067 C 
BRANCH  22  23
ATOM     23  C   UNL     1     -36.150  20.600   1.502  0.00  0.00    +0.135 C 
BRANCH  23  24
ATOM     24  O   UNL     1     -36.499  19.848   2.668  0.00  0.00    -0.380 OA
ATOM     25  H   UNL     1     -37.279  19.304   2.480  0.00  0.00    +0.211 HD
ENDBRANCH  23  24
BRANCH  23  26
ATOM     26  C   UNL     1     -34.708  20.296   1.199  0.00  0.00    +0.003 C 
ATOM     27  C   UNL     1     -34.046  19.142   1.381  0.00  0.00    -0.002 C 
BRANCH  27  28
ATOM     28  C   UNL     1     -32.656  18.882   1.078  0.00  0.00    -0.000 C 
ATOM     29  C   UNL     1     -31.909  19.711   0.333  0.00  0.00    -0.000 C 
BRANCH  29  30
ATOM     30  C   UNL     1     -30.520  19.455   0.022  0.00  0.00    -0.005 C 
ATOM     31  C   UNL     1     -29.867  18.356   0.429  0.00  0.00    -0.026 C 
ATOM     32  C   UNL     1     -28.433  18.081   0.115  0.00  0.00    +0.031 C 
ENDBRANCH  29  30
ENDBRANCH  27  28
ENDBRANCH  23  26
ENDBRANCH  22  23
ENDBRANCH   1  22
TORSDOF 14
ENDMDL
MODEL 8
REMARK VINA RESULT:      -6.2      2.721      8.631
REMARK  Name = 5477784
REMARK  14 active torsions:
REMARK  status: ('A' for Active; 'I' for Inactive)
REMARK    1  A    between atoms: C_1  and  C_2
REMARK    2  A    between atoms: C_1  and  O_15
REMARK    3  A    between atoms: C_1  and  C_22
REMARK    4  A    between atoms: C_2  and  O_4
REMARK    5  A    between atoms: C_2  and  C_6
REMARK    6  A    between atoms: C_7  and  C_10
REMARK    7  A    between atoms: O_15  and  P_16
REMARK    8  A    between atoms: P_16  and  O_18
REMARK    9  A    between atoms: P_16  and  O_20
REMARK   10  A    between atoms: C_22  and  C_23
REMARK   11  A    between atoms: C_23  and  O_24
REMARK   12  A    between atoms: C_23  and  C_26
REMARK   13  A    between atoms: C_27  and  C_28
REMARK   14  A    between atoms: C_29  and  C_30
REMARK                            x       y       z     vdW  Elec       q    Type
REMARK                         _______ _______ _______ _____ _____    ______ ____
ROOT
ATOM      1  C   UNL     1     -36.818  22.116   2.590  0.00  0.00    +0.157 C 
ENDROOT
BRANCH   1   2
ATOM      2  C   UNL     1     -36.592  20.794   1.802  0.00  0.00    +0.132 C 
ATOM      3  C   UNL     1     -37.624  20.645   0.672  0.00  0.00    +0.036 C 
BRANCH   2   4
ATOM      4  O   UNL     1     -36.815  19.713   2.723  0.00  0.00    -0.380 OA
ATOM      5  H   UNL     1     -37.689  19.813   3.132  0.00  0.00    +0.211 HD
ENDBRANCH   2   4
BRANCH   2   6
ATOM      6  C   UNL     1     -35.209  20.604   1.203  0.00  0.00    +0.001 C 
ATOM      7  C   UNL     1     -34.883  19.906   0.105  0.00  0.00    +0.015 C 
BRANCH   7  10
ATOM      8  O   UNL     1     -33.402  18.643  -1.305  0.00  0.00    -0.444 OA
ATOM      9  O   UNL     1     -33.396  16.388  -1.520  0.00  0.00    -0.245 OA
ATOM     10  C   UNL     1     -33.483  19.784  -0.417  0.00  0.00    +0.195 C 
ATOM     11  C   UNL     1     -32.422  19.701   0.675  0.00  0.00    +0.075 C 
ATOM     12  C   UNL     1     -32.384  18.331   1.262  0.00  0.00    -0.015 C 
ATOM     13  C   UNL     1     -33.227  17.384  -0.825  0.00  0.00    +0.341 C 
ATOM     14  C   UNL     1     -32.791  17.259   0.577  0.00  0.00    +0.077 C 
ENDBRANCH   7  10
ENDBRANCH   2   6
ENDBRANCH   1   2
BRANCH   1  15
ATOM     15  O   UNL     1     -37.550  23.040   1.775  0.00  0.00    -0.273 OA
BRANCH  15  16
ATOM     16  P   UNL     1     -38.706  23.917   2.476  0.00  0.00    +0.473 P 
ATOM     17  O   UNL     1     -38.383  24.419   3.853  0.00  0.00    -0.227 OA
BRANCH  16  18
ATOM     18  O   UNL     1     -38.983  25.069   1.376  0.00  0.00    -0.303 OA
ATOM     19  H   UNL     1     -38.702  25.928   1.729  0.00  0.00    +0.222 HD
ENDBRANCH  16  18
BRANCH  16  20
ATOM     20  O   UNL     1     -40.020  22.979   2.372  0.00  0.00    -0.303 OA
ATOM     21  H   UNL     1     -40.353  22.789   3.263  0.00  0.00    +0.222 HD
ENDBRANCH  16  20
ENDBRANCH  15  16
ENDBRANCH   1  15
BRANCH   1  22
ATOM     22  C   UNL     1     -35.517  22.813   3.036  0.00  0.00    +0.067 C 
BRANCH  22  23
ATOM     23  C   UNL     1     -35.220  22.674   4.540  0.00  0.00    +0.135 C 
BRANCH  23  24
ATOM     24  O   UNL     1     -36.436  22.327   5.209  0.00  0.00    -0.380 OA
ATOM     25  H   UNL     1     -36.235  22.019   6.106  0.00  0.00    +0.211 HD
ENDBRANCH  23  24
BRANCH  23  26
ATOM     26  C   UNL     1     -34.735  23.960   5.150  0.00  0.00    +0.003 C 
ATOM     27  C   UNL     1     -34.436  25.113   4.530  0.00  0.00    -0.002 C 
BRANCH  27  28
ATOM     28  C   UNL     1     -33.970  26.335   5.149  0.00  0.00    -0.000 C 
ATOM     29  C   UNL     1     -33.243  26.346   6.276  0.00  0.00    -0.000 C 
BRANCH  29  30
ATOM     30  C   UNL     1     -32.779  27.564   6.902  0.00  0.00    -0.005 C 
ATOM     31  C   UNL     1     -31.836  28.353   6.365  0.00  0.00    -0.026 C 
ATOM     32  C   UNL     1     -31.349  29.613   7.001  0.00  0.00    +0.031 C 
ENDBRANCH  29  30
ENDBRANCH  27  28
ENDBRANCH  23  26
ENDBRANCH  22  23
ENDBRANCH   1  22
TORSDOF 14
ENDMDL
MODEL 9
REMARK VINA RESULT:      -6.1      3.025      8.460
REMARK  Name = 5477784
REMARK  14 active torsions:
REMARK  status: ('A' for Active; 'I' for Inactive)
REMARK    1  A    between atoms: C_1  and  C_2
REMARK    2  A    between atoms: C_1  and  O_15
REMARK    3  A    between atoms: C_1  and  C_22
REMARK    4  A    between atoms: C_2  and  O_4
REMARK    5  A    between atoms: C_2  and  C_6
REMARK    6  A    between atoms: C_7  and  C_10
REMARK    7  A    between atoms: O_15  and  P_16
REMARK    8  A    between atoms: P_16  and  O_18
REMARK    9  A    between atoms: P_16  and  O_20
REMARK   10  A    between atoms: C_22  and  C_23
REMARK   11  A    between atoms: C_23  and  O_24
REMARK   12  A    between atoms: C_23  and  C_26
REMARK   13  A    between atoms: C_27  and  C_28
REMARK   14  A    between atoms: C_29  and  C_30
REMARK                            x       y       z     vdW  Elec       q    Type
REMARK                         _______ _______ _______ _____ _____    ______ ____
ROOT
ATOM      1  C   UNL     1     -35.902  22.134   2.544  0.00  0.00    +0.157 C 
ENDROOT
BRANCH   1   2
ATOM      2  C   UNL     1     -36.504  20.890   1.828  0.00  0.00    +0.132 C 
ATOM      3  C   UNL     1     -37.882  21.216   1.230  0.00  0.00    +0.036 C 
BRANCH   2   4
ATOM      4  O   UNL     1     -36.708  19.885   2.835  0.00  0.00    -0.380 OA
ATOM      5  H   UNL     1     -35.895  19.366   2.941  0.00  0.00    +0.211 HD
ENDBRANCH   2   4
BRANCH   2   6
ATOM      6  C   UNL     1     -35.650  20.274   0.735  0.00  0.00    +0.001 C 
ATOM      7  C   UNL     1     -34.813  19.230   0.842  0.00  0.00    +0.015 C 
BRANCH   7  10
ATOM      8  O   UNL     1     -33.052  17.726   0.199  0.00  0.00    -0.444 OA
ATOM      9  O   UNL     1     -31.137  17.373   1.357  0.00  0.00    -0.245 OA
ATOM     10  C   UNL     1     -34.015  18.684  -0.303  0.00  0.00    +0.195 C 
ATOM     11  C   UNL     1     -33.330  19.756  -1.144  0.00  0.00    +0.075 C 
ATOM     12  C   UNL     1     -32.106  20.256  -0.455  0.00  0.00    -0.015 C 
ATOM     13  C   UNL     1     -31.859  18.126   0.712  0.00  0.00    +0.341 C 
ATOM     14  C   UNL     1     -31.443  19.512   0.433  0.00  0.00    +0.077 C 
ENDBRANCH   7  10
ENDBRANCH   2   6
ENDBRANCH   1   2
BRANCH   1  15
ATOM     15  O   UNL     1     -34.770  22.610   1.807  0.00  0.00    -0.273 OA
BRANCH  15  16
ATOM     16  P   UNL     1     -34.836  24.098   1.194  0.00  0.00    +0.473 P 
ATOM     17  O   UNL     1     -33.611  24.937   1.414  0.00  0.00    -0.227 OA
BRANCH  16  18
ATOM     18  O   UNL     1     -35.205  23.820  -0.356  0.00  0.00    -0.303 OA
ATOM     19  H   UNL     1     -34.508  23.280  -0.762  0.00  0.00    +0.222 HD
ENDBRANCH  16  18
BRANCH  16  20
ATOM     20  O   UNL     1     -36.208  24.706   1.799  0.00  0.00    -0.303 OA
ATOM     21  H   UNL     1     -36.949  24.124   1.568  0.00  0.00    +0.222 HD
ENDBRANCH  16  20
ENDBRANCH  15  16
ENDBRANCH   1  15
BRANCH   1  22
ATOM     22  C   UNL     1     -35.441  21.864   3.990  0.00  0.00    +0.067 C 
BRANCH  22  23
ATOM     23  C   UNL     1     -35.902  22.931   5.000  0.00  0.00    +0.135 C 
BRANCH  23  24
ATOM     24  O   UNL     1     -37.022  23.625   4.443  0.00  0.00    -0.380 OA
ATOM     25  H   UNL     1     -37.516  23.027   3.861  0.00  0.00    +0.211 HD
ENDBRANCH  23  24
BRANCH  23  26
ATOM     26  C   UNL     1     -34.840  23.960   5.273  0.00  0.00    +0.003 C 
ATOM     27  C   UNL     1     -34.867  25.275   5.001  0.00  0.00    -0.002 C 
BRANCH  27  28
ATOM     28  C   UNL     1     -33.825  26.240   5.277  0.00  0.00    -0.000 C 
ATOM     29  C   UNL     1     -33.430  26.545   6.522  0.00  0.00    -0.000 C 
BRANCH  29  30
ATOM     30  C   UNL     1     -32.393  27.512   6.804  0.00  0.00    -0.005 C 
ATOM     31  C   UNL     1     -31.972  28.420   5.911  0.00  0.00    -0.026 C 
ATOM     32  C   UNL     1     -30.902  29.424   6.191  0.00  0.00    +0.031 C 
ENDBRANCH  29  30
ENDBRANCH  27  28
ENDBRANCH  23  26
ENDBRANCH  22  23
ENDBRANCH   1  22
TORSDOF 14
ENDMDL
