MODEL 1
REMARK VINA RESULT:      -6.1      0.000      0.000
REMARK  Name = 59854420
REMARK  3 active torsions:
REMARK  status: ('A' for Active; 'I' for Inactive)
REMARK    1  A    between atoms: C_6  and  N_11
REMARK    2  A    between atoms: C_7  and  C_23
REMARK    3  A    between atoms: C_23  and  O_24
REMARK                            x       y       z     vdW  Elec       q    Type
REMARK                         _______ _______ _______ _____ _____    ______ ____
ROOT
ATOM      1  O   UNL     1     -35.031  22.999   3.666  0.00  0.00    -0.330 OA
ATOM      2  O   UNL     1     -36.812  24.121   4.662  0.00  0.00    -0.332 OA
ATOM      3  O   UNL     1     -36.404  24.242   1.362  0.00  0.00    -0.333 OA
ATOM      4  C   UNL     1     -36.213  22.576   2.985  0.00  0.00    +0.194 C 
ATOM      5  C   UNL     1     -37.285  23.530   3.456  0.00  0.00    +0.178 C 
ATOM      6  C   UNL     1     -36.114  22.838   1.489  0.00  0.00    +0.225 C 
ATOM      7  C   UNL     1     -37.450  24.533   2.310  0.00  0.00    +0.176 C 
ATOM      8  C   UNL     1     -35.482  23.639   4.858  0.00  0.00    +0.188 C 
ATOM      9  C   UNL     1     -35.488  22.632   6.006  0.00  0.00    +0.061 C 
ATOM     10  C   UNL     1     -34.558  24.807   5.168  0.00  0.00    +0.061 C 
ENDROOT
BRANCH   6  11
ATOM     11  N   UNL     1     -34.793  22.456   0.872  0.00  0.00    -0.247 N 
ATOM     12  N   UNL     1     -32.893  22.658  -0.275  0.00  0.00    -0.242 NA
ATOM     13  N   UNL     1     -34.618  20.133   1.562  0.00  0.00    -0.228 NA
ATOM     14  N   UNL     1     -32.557  19.118   0.741  0.00  0.00    -0.229 NA
ATOM     15  C   UNL     1     -34.179  21.238   0.938  0.00  0.00    +0.152 C 
ATOM     16  C   UNL     1     -33.982  23.275   0.132  0.00  0.00    +0.223 C 
ATOM     17  C   UNL     1     -33.003  21.384   0.221  0.00  0.00    +0.140 C 
ATOM     18  C   UNL     1     -32.177  20.268   0.133  0.00  0.00    +0.143 C 
ATOM     19  C   UNL     1     -33.736  19.122   1.407  0.00  0.00    +0.253 C 
ATOM     20  N   UNL     1     -30.963  20.327  -0.573  0.00  0.00    -0.342 N 
ATOM     21  H   UNL     1     -30.387  19.531  -0.628  0.00  0.00    +0.144 HD
ATOM     22  H   UNL     1     -30.689  21.164  -1.012  0.00  0.00    +0.144 HD
ENDBRANCH   6  11
BRANCH   7  23
ATOM     23  C   UNL     1     -37.401  26.002   2.681  0.00  0.00    +0.169 C 
BRANCH  23  24
ATOM     24  O   UNL     1     -38.536  26.314   3.473  0.00  0.00    -0.379 OA
ATOM     25  H   UNL     1     -38.716  27.265   3.421  0.00  0.00    +0.211 HD
ENDBRANCH  23  24
ENDBRANCH   7  23
TORSDOF 3
ENDMDL
MODEL 2
REMARK VINA RESULT:      -6.1      3.273      5.060
REMARK  Name = 59854420
REMARK  3 active torsions:
REMARK  status: ('A' for Active; 'I' for Inactive)
REMARK    1  A    between atoms: C_6  and  N_11
REMARK    2  A    between atoms: C_7  and  C_23
REMARK    3  A    between atoms: C_23  and  O_24
REMARK                            x       y       z     vdW  Elec       q    Type
REMARK                         _______ _______ _______ _____ _____    ______ ____
ROOT
ATOM      1  O   UNL     1     -36.189  24.785   1.799  0.00  0.00    -0.330 OA
ATOM      2  O   UNL     1     -34.479  25.605   3.149  0.00  0.00    -0.332 OA
ATOM      3  O   UNL     1     -36.985  23.881   4.498  0.00  0.00    -0.333 OA
ATOM      4  C   UNL     1     -35.702  23.678   2.559  0.00  0.00    +0.194 C 
ATOM      5  C   UNL     1     -34.816  24.301   3.612  0.00  0.00    +0.178 C 
ATOM      6  C   UNL     1     -36.819  23.021   3.356  0.00  0.00    +0.225 C 
ATOM      7  C   UNL     1     -35.665  24.306   4.887  0.00  0.00    +0.176 C 
ATOM      8  C   UNL     1     -35.206  25.809   1.938  0.00  0.00    +0.188 C 
ATOM      9  C   UNL     1     -34.232  25.745   0.764  0.00  0.00    +0.061 C 
ATOM     10  C   UNL     1     -35.906  27.159   1.987  0.00  0.00    +0.061 C 
ENDROOT
BRANCH   6  11
ATOM     11  N   UNL     1     -38.100  22.815   2.588  0.00  0.00    -0.247 N 
ATOM     12  N   UNL     1     -40.196  23.145   1.904  0.00  0.00    -0.242 NA
ATOM     13  N   UNL     1     -37.512  20.895   1.221  0.00  0.00    -0.228 NA
ATOM     14  N   UNL     1     -39.371  20.225  -0.211  0.00  0.00    -0.229 NA
ATOM     15  C   UNL     1     -38.348  21.853   1.652  0.00  0.00    +0.152 C 
ATOM     16  C   UNL     1     -39.240  23.565   2.706  0.00  0.00    +0.223 C 
ATOM     17  C   UNL     1     -39.652  22.074   1.240  0.00  0.00    +0.140 C 
ATOM     18  C   UNL     1     -40.161  21.215   0.271  0.00  0.00    +0.143 C 
ATOM     19  C   UNL     1     -38.115  20.128   0.287  0.00  0.00    +0.253 C 
ATOM     20  N   UNL     1     -41.474  21.368  -0.206  0.00  0.00    -0.342 N 
ATOM     21  H   UNL     1     -41.823  20.753  -0.892  0.00  0.00    +0.144 HD
ATOM     22  H   UNL     1     -42.045  22.088   0.145  0.00  0.00    +0.144 HD
ENDBRANCH   6  11
BRANCH   7  23
ATOM     23  C   UNL     1     -35.757  25.622   5.635  0.00  0.00    +0.169 C 
BRANCH  23  24
ATOM     24  O   UNL     1     -36.861  26.359   5.135  0.00  0.00    -0.379 OA
ATOM     25  H   UNL     1     -36.548  27.199   4.764  0.00  0.00    +0.211 HD
ENDBRANCH  23  24
ENDBRANCH   7  23
TORSDOF 3
ENDMDL
MODEL 3
REMARK VINA RESULT:      -6.1      3.229      5.204
REMARK  Name = 59854420
REMARK  3 active torsions:
REMARK  status: ('A' for Active; 'I' for Inactive)
REMARK    1  A    between atoms: C_6  and  N_11
REMARK    2  A    between atoms: C_7  and  C_23
REMARK    3  A    between atoms: C_23  and  O_24
REMARK                            x       y       z     vdW  Elec       q    Type
REMARK                         _______ _______ _______ _____ _____    ______ ____
ROOT
ATOM      1  O   UNL     1     -35.366  24.697   2.142  0.00  0.00    -0.330 OA
ATOM      2  O   UNL     1     -34.163  26.044   3.613  0.00  0.00    -0.332 OA
ATOM      3  O   UNL     1     -36.328  23.810   4.793  0.00  0.00    -0.333 OA
ATOM      4  C   UNL     1     -34.741  23.821   3.081  0.00  0.00    +0.194 C 
ATOM      5  C   UNL     1     -34.225  24.734   4.168  0.00  0.00    +0.178 C 
ATOM      6  C   UNL     1     -35.766  22.946   3.788  0.00  0.00    +0.225 C 
ATOM      7  C   UNL     1     -35.240  24.602   5.307  0.00  0.00    +0.176 C 
ATOM      8  C   UNL     1     -34.713  25.956   2.298  0.00  0.00    +0.188 C 
ATOM      9  C   UNL     1     -33.580  26.072   1.282  0.00  0.00    +0.061 C 
ATOM     10  C   UNL     1     -35.734  27.066   2.100  0.00  0.00    +0.061 C 
ENDROOT
BRANCH   6  11
ATOM     11  N   UNL     1     -36.811  22.347   2.882  0.00  0.00    -0.247 N 
ATOM     12  N   UNL     1     -37.767  20.921   1.460  0.00  0.00    -0.242 NA
ATOM     13  N   UNL     1     -38.604  23.971   3.111  0.00  0.00    -0.228 NA
ATOM     14  N   UNL     1     -40.540  23.350   1.761  0.00  0.00    -0.229 NA
ATOM     15  C   UNL     1     -38.055  22.849   2.621  0.00  0.00    +0.152 C 
ATOM     16  C   UNL     1     -36.685  21.190   2.161  0.00  0.00    +0.223 C 
ATOM     17  C   UNL     1     -38.630  21.951   1.737  0.00  0.00    +0.140 C 
ATOM     18  C   UNL     1     -39.923  22.233   1.305  0.00  0.00    +0.143 C 
ATOM     19  C   UNL     1     -39.852  24.138   2.622  0.00  0.00    +0.253 C 
ATOM     20  N   UNL     1     -40.584  21.375   0.410  0.00  0.00    -0.342 N 
ATOM     21  H   UNL     1     -41.498  21.586   0.112  0.00  0.00    +0.144 HD
ATOM     22  H   UNL     1     -40.134  20.564   0.081  0.00  0.00    +0.144 HD
ENDBRANCH   6  11
BRANCH   7  23
ATOM     23  C   UNL     1     -35.785  25.895   5.883  0.00  0.00    +0.169 C 
BRANCH  23  24
ATOM     24  O   UNL     1     -36.917  26.294   5.128  0.00  0.00    -0.379 OA
ATOM     25  H   UNL     1     -36.777  27.190   4.783  0.00  0.00    +0.211 HD
ENDBRANCH  23  24
ENDBRANCH   7  23
TORSDOF 3
ENDMDL
MODEL 4
REMARK VINA RESULT:      -5.9      4.139      6.291
REMARK  Name = 59854420
REMARK  3 active torsions:
REMARK  status: ('A' for Active; 'I' for Inactive)
REMARK    1  A    between atoms: C_6  and  N_11
REMARK    2  A    between atoms: C_7  and  C_23
REMARK    3  A    between atoms: C_23  and  O_24
REMARK                            x       y       z     vdW  Elec       q    Type
REMARK                         _______ _______ _______ _____ _____    ______ ____
ROOT
ATOM      1  O   UNL     1     -35.913  25.785   3.075  0.00  0.00    -0.330 OA
ATOM      2  O   UNL     1     -37.121  24.365   4.471  0.00  0.00    -0.332 OA
ATOM      3  O   UNL     1     -33.822  24.630   4.815  0.00  0.00    -0.333 OA
ATOM      4  C   UNL     1     -35.561  26.133   4.415  0.00  0.00    +0.194 C 
ATOM      5  C   UNL     1     -36.129  25.015   5.259  0.00  0.00    +0.178 C 
ATOM      6  C   UNL     1     -34.059  26.037   4.635  0.00  0.00    +0.225 C 
ATOM      7  C   UNL     1     -34.928  24.123   5.586  0.00  0.00    +0.176 C 
ATOM      8  C   UNL     1     -37.085  24.978   3.182  0.00  0.00    +0.188 C 
ATOM      9  C   UNL     1     -38.324  25.855   3.020  0.00  0.00    +0.061 C 
ATOM     10  C   UNL     1     -37.039  23.901   2.108  0.00  0.00    +0.061 C 
ENDROOT
BRANCH   6  11
ATOM     11  N   UNL     1     -33.224  26.634   3.530  0.00  0.00    -0.247 N 
ATOM     12  N   UNL     1     -31.947  26.735   1.706  0.00  0.00    -0.242 NA
ATOM     13  N   UNL     1     -33.339  28.995   4.091  0.00  0.00    -0.228 NA
ATOM     14  N   UNL     1     -32.079  30.346   2.497  0.00  0.00    -0.229 NA
ATOM     15  C   UNL     1     -32.940  27.956   3.340  0.00  0.00    +0.152 C 
ATOM     16  C   UNL     1     -32.604  25.941   2.524  0.00  0.00    +0.223 C 
ATOM     17  C   UNL     1     -32.147  27.998   2.205  0.00  0.00    +0.140 C 
ATOM     18  C   UNL     1     -31.712  29.252   1.787  0.00  0.00    +0.143 C 
ATOM     19  C   UNL     1     -32.858  30.153   3.588  0.00  0.00    +0.253 C 
ATOM     20  N   UNL     1     -30.905  29.388   0.644  0.00  0.00    -0.342 N 
ATOM     21  H   UNL     1     -30.605  30.280   0.358  0.00  0.00    +0.144 HD
ATOM     22  H   UNL     1     -30.642  28.591   0.130  0.00  0.00    +0.144 HD
ENDBRANCH   6  11
BRANCH   7  23
ATOM     23  C   UNL     1     -35.093  22.639   5.319  0.00  0.00    +0.169 C 
BRANCH  23  24
ATOM     24  O   UNL     1     -36.130  22.135   6.146  0.00  0.00    -0.379 OA
ATOM     25  H   UNL     1     -35.742  21.667   6.902  0.00  0.00    +0.211 HD
ENDBRANCH  23  24
ENDBRANCH   7  23
TORSDOF 3
ENDMDL
MODEL 5
REMARK VINA RESULT:      -5.8      3.348      5.824
REMARK  Name = 59854420
REMARK  3 active torsions:
REMARK  status: ('A' for Active; 'I' for Inactive)
REMARK    1  A    between atoms: C_6  and  N_11
REMARK    2  A    between atoms: C_7  and  C_23
REMARK    3  A    between atoms: C_23  and  O_24
REMARK                            x       y       z     vdW  Elec       q    Type
REMARK                         _______ _______ _______ _____ _____    ______ ____
ROOT
ATOM      1  O   UNL     1     -35.162  22.648   2.144  0.00  0.00    -0.330 OA
ATOM      2  O   UNL     1     -36.560  21.473   0.700  0.00  0.00    -0.332 OA
ATOM      3  O   UNL     1     -37.863  23.401   3.078  0.00  0.00    -0.333 OA
ATOM      4  C   UNL     1     -36.073  23.600   1.594  0.00  0.00    +0.194 C 
ATOM      5  C   UNL     1     -37.127  22.762   0.906  0.00  0.00    +0.178 C 
ATOM      6  C   UNL     1     -36.837  24.331   2.688  0.00  0.00    +0.225 C 
ATOM      7  C   UNL     1     -38.317  22.759   1.871  0.00  0.00    +0.176 C 
ATOM      8  C   UNL     1     -35.275  21.487   1.324  0.00  0.00    +0.188 C 
ATOM      9  C   UNL     1     -34.202  21.522   0.238  0.00  0.00    +0.061 C 
ATOM     10  C   UNL     1     -35.121  20.251   2.198  0.00  0.00    +0.061 C 
ENDROOT
BRANCH   6  11
ATOM     11  N   UNL     1     -35.989  24.787   3.848  0.00  0.00    -0.247 N 
ATOM     12  N   UNL     1     -35.113  24.834   5.897  0.00  0.00    -0.242 NA
ATOM     13  N   UNL     1     -34.839  26.684   2.858  0.00  0.00    -0.228 NA
ATOM     14  N   UNL     1     -33.323  27.734   4.457  0.00  0.00    -0.229 NA
ATOM     15  C   UNL     1     -35.119  25.840   3.863  0.00  0.00    +0.152 C 
ATOM     16  C   UNL     1     -35.951  24.215   5.092  0.00  0.00    +0.223 C 
ATOM     17  C   UNL     1     -34.587  25.852   5.142  0.00  0.00    +0.140 C 
ATOM     18  C   UNL     1     -33.655  26.846   5.426  0.00  0.00    +0.143 C 
ATOM     19  C   UNL     1     -33.927  27.599   3.252  0.00  0.00    +0.253 C 
ATOM     20  N   UNL     1     -33.063  26.932   6.698  0.00  0.00    -0.342 N 
ATOM     21  H   UNL     1     -32.405  27.640   6.886  0.00  0.00    +0.144 HD
ATOM     22  H   UNL     1     -33.305  26.286   7.399  0.00  0.00    +0.144 HD
ENDBRANCH   6  11
BRANCH   7  23
ATOM     23  C   UNL     1     -38.911  21.405   2.210  0.00  0.00    +0.169 C 
BRANCH  23  24
ATOM     24  O   UNL     1     -39.475  20.844   1.036  0.00  0.00    -0.379 OA
ATOM     25  H   UNL     1     -38.770  20.651   0.398  0.00  0.00    +0.211 HD
ENDBRANCH  23  24
ENDBRANCH   7  23
TORSDOF 3
ENDMDL
MODEL 6
REMARK VINA RESULT:      -5.7      3.253      6.086
REMARK  Name = 59854420
REMARK  3 active torsions:
REMARK  status: ('A' for Active; 'I' for Inactive)
REMARK    1  A    between atoms: C_6  and  N_11
REMARK    2  A    between atoms: C_7  and  C_23
REMARK    3  A    between atoms: C_23  and  O_24
REMARK                            x       y       z     vdW  Elec       q    Type
REMARK                         _______ _______ _______ _____ _____    ______ ____
ROOT
ATOM      1  O   UNL     1     -34.538  21.549   1.106  0.00  0.00    -0.330 OA
ATOM      2  O   UNL     1     -34.636  19.932  -0.567  0.00  0.00    -0.332 OA
ATOM      3  O   UNL     1     -37.440  21.281   0.612  0.00  0.00    -0.333 OA
ATOM      4  C   UNL     1     -35.328  22.100   0.051  0.00  0.00    +0.194 C 
ATOM      5  C   UNL     1     -35.606  20.931  -0.865  0.00  0.00    +0.178 C 
ATOM      6  C   UNL     1     -36.704  22.516   0.550  0.00  0.00    +0.225 C 
ATOM      7  C   UNL     1     -37.040  20.507  -0.535  0.00  0.00    +0.176 C 
ATOM      8  C   UNL     1     -33.879  20.417   0.542  0.00  0.00    +0.188 C 
ATOM      9  C   UNL     1     -32.493  20.827   0.049  0.00  0.00    +0.061 C 
ATOM     10  C   UNL     1     -33.776  19.329   1.601  0.00  0.00    +0.061 C 
ENDROOT
BRANCH   6  11
ATOM     11  N   UNL     1     -36.697  23.259   1.861  0.00  0.00    -0.247 N 
ATOM     12  N   UNL     1     -36.973  23.645   4.039  0.00  0.00    -0.242 NA
ATOM     13  N   UNL     1     -35.840  25.422   1.160  0.00  0.00    -0.228 NA
ATOM     14  N   UNL     1     -35.671  26.962   3.045  0.00  0.00    -0.229 NA
ATOM     15  C   UNL     1     -36.302  24.550   2.070  0.00  0.00    +0.152 C 
ATOM     16  C   UNL     1     -37.093  22.759   3.073  0.00  0.00    +0.223 C 
ATOM     17  C   UNL     1     -36.481  24.770   3.426  0.00  0.00    +0.140 C 
ATOM     18  C   UNL     1     -36.146  26.032   3.909  0.00  0.00    +0.143 C 
ATOM     19  C   UNL     1     -35.550  26.605   1.744  0.00  0.00    +0.253 C 
ATOM     20  N   UNL     1     -36.294  26.341   5.271  0.00  0.00    -0.342 N 
ATOM     21  H   UNL     1     -36.053  27.237   5.601  0.00  0.00    +0.144 HD
ATOM     22  H   UNL     1     -36.638  25.663   5.896  0.00  0.00    +0.144 HD
ENDBRANCH   6  11
BRANCH   7  23
ATOM     23  C   UNL     1     -37.264  19.034  -0.254  0.00  0.00    +0.169 C 
BRANCH  23  24
ATOM     24  O   UNL     1     -37.045  18.791   1.127  0.00  0.00    -0.379 OA
ATOM     25  H   UNL     1     -36.630  19.569   1.530  0.00  0.00    +0.211 HD
ENDBRANCH  23  24
ENDBRANCH   7  23
TORSDOF 3
ENDMDL
MODEL 7
REMARK VINA RESULT:      -5.6      6.207      7.836
REMARK  Name = 59854420
REMARK  3 active torsions:
REMARK  status: ('A' for Active; 'I' for Inactive)
REMARK    1  A    between atoms: C_6  and  N_11
REMARK    2  A    between atoms: C_7  and  C_23
REMARK    3  A    between atoms: C_23  and  O_24
REMARK                            x       y       z     vdW  Elec       q    Type
REMARK                         _______ _______ _______ _____ _____    ______ ____
ROOT
ATOM      1  O   UNL     1     -33.252  26.594   4.739  0.00  0.00    -0.330 OA
ATOM      2  O   UNL     1     -34.731  26.221   2.979  0.00  0.00    -0.332 OA
ATOM      3  O   UNL     1     -33.122  29.123   3.216  0.00  0.00    -0.333 OA
ATOM      4  C   UNL     1     -32.539  26.887   3.537  0.00  0.00    +0.194 C 
ATOM      5  C   UNL     1     -33.602  26.917   2.463  0.00  0.00    +0.178 C 
ATOM      6  C   UNL     1     -31.988  28.305   3.552  0.00  0.00    +0.225 C 
ATOM      7  C   UNL     1     -33.864  28.405   2.212  0.00  0.00    +0.176 C 
ATOM      8  C   UNL     1     -34.419  25.882   4.331  0.00  0.00    +0.188 C 
ATOM      9  C   UNL     1     -34.154  24.380   4.411  0.00  0.00    +0.061 C 
ATOM     10  C   UNL     1     -35.577  26.276   5.235  0.00  0.00    +0.061 C 
ENDROOT
BRANCH   6  11
ATOM     11  N   UNL     1     -31.338  28.711   4.851  0.00  0.00    -0.247 N 
ATOM     12  N   UNL     1     -31.096  29.662   6.852  0.00  0.00    -0.242 NA
ATOM     13  N   UNL     1     -29.159  27.660   4.622  0.00  0.00    -0.228 NA
ATOM     14  N   UNL     1     -27.760  28.089   6.575  0.00  0.00    -0.229 NA
ATOM     15  C   UNL     1     -30.078  28.393   5.271  0.00  0.00    +0.152 C 
ATOM     16  C   UNL     1     -31.909  29.474   5.833  0.00  0.00    +0.223 C 
ATOM     17  C   UNL     1     -29.947  28.992   6.513  0.00  0.00    +0.140 C 
ATOM     18  C   UNL     1     -28.733  28.819   7.171  0.00  0.00    +0.143 C 
ATOM     19  C   UNL     1     -28.029  27.562   5.356  0.00  0.00    +0.253 C 
ATOM     20  N   UNL     1     -28.514  29.391   8.436  0.00  0.00    -0.342 N 
ATOM     21  H   UNL     1     -27.651  29.262   8.891  0.00  0.00    +0.144 HD
ATOM     22  H   UNL     1     -29.224  29.920   8.866  0.00  0.00    +0.144 HD
ENDBRANCH   6  11
BRANCH   7  23
ATOM     23  C   UNL     1     -35.313  28.852   2.237  0.00  0.00    +0.169 C 
BRANCH  23  24
ATOM     24  O   UNL     1     -35.485  29.794   3.284  0.00  0.00    -0.379 OA
ATOM     25  H   UNL     1     -35.915  29.363   4.039  0.00  0.00    +0.211 HD
ENDBRANCH  23  24
ENDBRANCH   7  23
TORSDOF 3
ENDMDL
MODEL 8
REMARK VINA RESULT:      -5.5      3.987      6.128
REMARK  Name = 59854420
REMARK  3 active torsions:
REMARK  status: ('A' for Active; 'I' for Inactive)
REMARK    1  A    between atoms: C_6  and  N_11
REMARK    2  A    between atoms: C_7  and  C_23
REMARK    3  A    between atoms: C_23  and  O_24
REMARK                            x       y       z     vdW  Elec       q    Type
REMARK                         _______ _______ _______ _____ _____    ______ ____
ROOT
ATOM      1  O   UNL     1     -34.743  24.169   2.773  0.00  0.00    -0.330 OA
ATOM      2  O   UNL     1     -36.583  23.362   1.596  0.00  0.00    -0.332 OA
ATOM      3  O   UNL     1     -36.946  25.895   3.722  0.00  0.00    -0.333 OA
ATOM      4  C   UNL     1     -35.345  25.295   2.134  0.00  0.00    +0.194 C 
ATOM      5  C   UNL     1     -36.676  24.782   1.636  0.00  0.00    +0.178 C 
ATOM      6  C   UNL     1     -35.718  26.371   3.144  0.00  0.00    +0.225 C 
ATOM      7  C   UNL     1     -37.701  25.298   2.650  0.00  0.00    +0.176 C 
ATOM      8  C   UNL     1     -35.308  23.021   2.144  0.00  0.00    +0.188 C 
ATOM      9  C   UNL     1     -34.395  22.559   1.011  0.00  0.00    +0.061 C 
ATOM     10  C   UNL     1     -35.479  21.924   3.184  0.00  0.00    +0.061 C 
ENDROOT
BRANCH   6  11
ATOM     11  N   UNL     1     -34.657  26.655   4.177  0.00  0.00    -0.247 N 
ATOM     12  N   UNL     1     -33.545  26.549   6.106  0.00  0.00    -0.242 NA
ATOM     13  N   UNL     1     -33.268  28.250   2.982  0.00  0.00    -0.228 NA
ATOM     14  N   UNL     1     -31.382  28.981   4.347  0.00  0.00    -0.229 NA
ATOM     15  C   UNL     1     -33.592  27.500   4.047  0.00  0.00    +0.152 C 
ATOM     16  C   UNL     1     -34.585  26.109   5.431  0.00  0.00    +0.223 C 
ATOM     17  C   UNL     1     -32.916  27.421   5.253  0.00  0.00    +0.140 C 
ATOM     18  C   UNL     1     -31.770  28.200   5.385  0.00  0.00    +0.143 C 
ATOM     19  C   UNL     1     -32.144  28.958   3.228  0.00  0.00    +0.253 C 
ATOM     20  N   UNL     1     -31.021  28.179   6.573  0.00  0.00    -0.342 N 
ATOM     21  H   UNL     1     -30.212  28.735   6.654  0.00  0.00    +0.144 HD
ATOM     22  H   UNL     1     -31.304  27.610   7.324  0.00  0.00    +0.144 HD
ENDBRANCH   6  11
BRANCH   7  23
ATOM     23  C   UNL     1     -38.666  24.276   3.219  0.00  0.00    +0.169 C 
BRANCH  23  24
ATOM     24  O   UNL     1     -39.653  24.951   3.983  0.00  0.00    -0.379 OA
ATOM     25  H   UNL     1     -39.403  25.883   4.085  0.00  0.00    +0.211 HD
ENDBRANCH  23  24
ENDBRANCH   7  23
TORSDOF 3
ENDMDL
MODEL 9
REMARK VINA RESULT:      -5.5      3.473      5.717
REMARK  Name = 59854420
REMARK  3 active torsions:
REMARK  status: ('A' for Active; 'I' for Inactive)
REMARK    1  A    between atoms: C_6  and  N_11
REMARK    2  A    between atoms: C_7  and  C_23
REMARK    3  A    between atoms: C_23  and  O_24
REMARK                            x       y       z     vdW  Elec       q    Type
REMARK                         _______ _______ _______ _____ _____    ______ ____
ROOT
ATOM      1  O   UNL     1     -38.893  24.459   1.636  0.00  0.00    -0.330 OA
ATOM      2  O   UNL     1     -40.547  22.926   1.057  0.00  0.00    -0.332 OA
ATOM      3  O   UNL     1     -37.425  21.894   1.567  0.00  0.00    -0.333 OA
ATOM      4  C   UNL     1     -38.847  23.419   2.615  0.00  0.00    +0.194 C 
ATOM      5  C   UNL     1     -39.717  22.323   2.045  0.00  0.00    +0.178 C 
ATOM      6  C   UNL     1     -37.463  22.792   2.691  0.00  0.00    +0.225 C 
ATOM      7  C   UNL     1     -38.733  21.298   1.473  0.00  0.00    +0.176 C 
ATOM      8  C   UNL     1     -40.132  24.288   0.950  0.00  0.00    +0.188 C 
ATOM      9  C   UNL     1     -41.196  25.177   1.589  0.00  0.00    +0.061 C 
ATOM     10  C   UNL     1     -39.935  24.646  -0.515  0.00  0.00    +0.061 C 
ENDROOT
BRANCH   6  11
ATOM     11  N   UNL     1     -36.325  23.781   2.688  0.00  0.00    -0.247 N 
ATOM     12  N   UNL     1     -34.544  24.906   1.961  0.00  0.00    -0.242 NA
ATOM     13  N   UNL     1     -36.604  24.808   4.872  0.00  0.00    -0.228 NA
ATOM     14  N   UNL     1     -34.909  26.517   5.271  0.00  0.00    -0.229 NA
ATOM     15  C   UNL     1     -35.994  24.651   3.688  0.00  0.00    +0.152 C 
ATOM     16  C   UNL     1     -35.425  23.971   1.674  0.00  0.00    +0.223 C 
ATOM     17  C   UNL     1     -34.887  25.339   3.217  0.00  0.00    +0.140 C 
ATOM     18  C   UNL     1     -34.341  26.304   4.059  0.00  0.00    +0.143 C 
ATOM     19  C   UNL     1     -35.988  25.767   5.597  0.00  0.00    +0.253 C 
ATOM     20  N   UNL     1     -33.219  27.051   3.661  0.00  0.00    -0.342 N 
ATOM     21  H   UNL     1     -32.842  27.731   4.265  0.00  0.00    +0.144 HD
ATOM     22  H   UNL     1     -32.810  26.895   2.780  0.00  0.00    +0.144 HD
ENDBRANCH   6  11
BRANCH   7  23
ATOM     23  C   UNL     1     -38.980  20.843   0.048  0.00  0.00    +0.169 C 
BRANCH  23  24
ATOM     24  O   UNL     1     -40.284  20.292  -0.039  0.00  0.00    -0.379 OA
ATOM     25  H   UNL     1     -40.812  20.807  -0.670  0.00  0.00    +0.211 HD
ENDBRANCH  23  24
ENDBRANCH   7  23
TORSDOF 3
ENDMDL
