MODEL 1
REMARK VINA RESULT:      -6.2      0.000      0.000
REMARK  Name = 5282154
REMARK  7 active torsions:
REMARK  status: ('A' for Active; 'I' for Inactive)
REMARK    1  A    between atoms: C_3  and  C_12
REMARK    2  A    between atoms: C_6  and  O_24
REMARK    3  A    between atoms: C_8  and  O_26
REMARK    4  A    between atoms: C_10  and  O_28
REMARK    5  A    between atoms: C_15  and  O_18
REMARK    6  A    between atoms: C_16  and  O_20
REMARK    7  A    between atoms: C_17  and  O_22
REMARK                            x       y       z     vdW  Elec       q    Type
REMARK                         _______ _______ _______ _____ _____    ______ ____
ROOT
ATOM      1  O   UNL     1     -34.748  23.761   3.340  0.00  0.00    -0.450 OA
ATOM      2  O   UNL     1     -38.798  24.208   3.419  0.00  0.00    -0.283 OA
ATOM      3  C   UNL     1     -35.339  24.910   3.843  0.00  0.00    +0.182 A 
ATOM      4  C   UNL     1     -36.949  22.848   2.879  0.00  0.00    +0.110 A 
ATOM      5  C   UNL     1     -35.558  22.758   2.877  0.00  0.00    +0.155 A 
ATOM      6  C   UNL     1     -36.666  25.125   3.893  0.00  0.00    +0.208 A 
ATOM      7  C   UNL     1     -37.583  24.069   3.398  0.00  0.00    +0.238 A 
ATOM      8  C   UNL     1     -37.725  21.792   2.392  0.00  0.00    +0.143 C 
ATOM      9  C   UNL     1     -34.935  21.610   2.387  0.00  0.00    +0.074 C 
ATOM     10  C   UNL     1     -35.706  20.555   1.901  0.00  0.00    +0.140 C 
ATOM     11  C   UNL     1     -37.098  20.646   1.903  0.00  0.00    +0.073 C 
ENDROOT
BRANCH   3  12
ATOM     12  C   UNL     1     -34.357  25.906   4.306  0.00  0.00    +0.044 C 
ATOM     13  C   UNL     1     -33.751  26.766   3.389  0.00  0.00    +0.043 C 
ATOM     14  C   UNL     1     -34.033  25.990   5.660  0.00  0.00    +0.043 C 
ATOM     15  C   UNL     1     -32.821  27.709   3.828  0.00  0.00    +0.175 C 
ATOM     16  C   UNL     1     -33.103  26.932   6.099  0.00  0.00    +0.171 C 
ATOM     17  C   UNL     1     -32.497  27.792   5.182  0.00  0.00    +0.202 C 
BRANCH  15  18
ATOM     18  O   UNL     1     -32.237  28.544   2.923  0.00  0.00    -0.468 OA
ATOM     19  C   UNL     1     -33.024  29.631   2.441  0.00  0.00    +0.253 C 
ENDBRANCH  15  18
BRANCH  16  20
ATOM     20  O   UNL     1     -32.795  27.003   7.424  0.00  0.00    -0.503 OA
ATOM     21  H   UNL     1     -33.467  27.180   8.051  0.00  0.00    +0.292 HD
ENDBRANCH  16  20
BRANCH  17  22
ATOM     22  O   UNL     1     -31.589  28.714   5.610  0.00  0.00    -0.501 OA
ATOM     23  H   UNL     1     -31.814  29.311   6.297  0.00  0.00    +0.292 HD
ENDBRANCH  17  22
ENDBRANCH   3  12
BRANCH   6  24
ATOM     24  O   UNL     1     -37.221  26.294   4.370  0.00  0.00    -0.501 OA
ATOM     25  H   UNL     1     -37.989  26.647   3.965  0.00  0.00    +0.292 HD
ENDBRANCH   6  24
BRANCH   8  26
ATOM     26  O   UNL     1     -39.087  21.830   2.371  0.00  0.00    -0.505 OA
ATOM     27  H   UNL     1     -39.580  21.185   2.838  0.00  0.00    +0.292 HD
ENDBRANCH   8  26
BRANCH  10  28
ATOM     28  O   UNL     1     -35.099  19.433   1.423  0.00  0.00    -0.505 OA
ATOM     29  H   UNL     1     -35.425  18.587   1.659  0.00  0.00    +0.292 HD
ENDBRANCH  10  28
TORSDOF 7
ENDMDL
MODEL 2
REMARK VINA RESULT:      -5.9      2.208      7.173
REMARK  Name = 5282154
REMARK  7 active torsions:
REMARK  status: ('A' for Active; 'I' for Inactive)
REMARK    1  A    between atoms: C_3  and  C_12
REMARK    2  A    between atoms: C_6  and  O_24
REMARK    3  A    between atoms: C_8  and  O_26
REMARK    4  A    between atoms: C_10  and  O_28
REMARK    5  A    between atoms: C_15  and  O_18
REMARK    6  A    between atoms: C_16  and  O_20
REMARK    7  A    between atoms: C_17  and  O_22
REMARK                            x       y       z     vdW  Elec       q    Type
REMARK                         _______ _______ _______ _____ _____    ______ ____
ROOT
ATOM      1  O   UNL     1     -33.320  26.340   4.993  0.00  0.00    -0.450 OA
ATOM      2  O   UNL     1     -34.178  29.289   2.315  0.00  0.00    -0.283 OA
ATOM      3  C   UNL     1     -34.132  26.104   3.894  0.00  0.00    +0.182 A 
ATOM      4  C   UNL     1     -33.044  28.643   4.279  0.00  0.00    +0.110 A 
ATOM      5  C   UNL     1     -32.792  27.592   5.160  0.00  0.00    +0.155 A 
ATOM      6  C   UNL     1     -34.461  27.032   2.977  0.00  0.00    +0.208 A 
ATOM      7  C   UNL     1     -33.915  28.404   3.118  0.00  0.00    +0.238 A 
ATOM      8  C   UNL     1     -32.478  29.901   4.501  0.00  0.00    +0.143 C 
ATOM      9  C   UNL     1     -31.971  27.795   6.269  0.00  0.00    +0.074 C 
ATOM     10  C   UNL     1     -31.403  29.049   6.494  0.00  0.00    +0.140 C 
ATOM     11  C   UNL     1     -31.657  30.100   5.611  0.00  0.00    +0.073 C 
ENDROOT
BRANCH   3  12
ATOM     12  C   UNL     1     -34.633  24.720   3.835  0.00  0.00    +0.044 C 
ATOM     13  C   UNL     1     -34.613  24.022   2.628  0.00  0.00    +0.043 C 
ATOM     14  C   UNL     1     -35.128  24.107   4.987  0.00  0.00    +0.043 C 
ATOM     15  C   UNL     1     -35.088  22.711   2.572  0.00  0.00    +0.175 C 
ATOM     16  C   UNL     1     -35.603  22.797   4.931  0.00  0.00    +0.171 C 
ATOM     17  C   UNL     1     -35.583  22.099   3.724  0.00  0.00    +0.202 C 
BRANCH  15  18
ATOM     18  O   UNL     1     -35.061  22.040   1.387  0.00  0.00    -0.468 OA
ATOM     19  C   UNL     1     -33.972  22.317   0.509  0.00  0.00    +0.253 C 
ENDBRANCH  15  18
BRANCH  16  20
ATOM     20  O   UNL     1     -36.084  22.211   6.063  0.00  0.00    -0.503 OA
ATOM     21  H   UNL     1     -36.957  21.872   6.080  0.00  0.00    +0.292 HD
ENDBRANCH  16  20
BRANCH  17  22
ATOM     22  O   UNL     1     -36.046  20.818   3.669  0.00  0.00    -0.501 OA
ATOM     23  H   UNL     1     -35.600  20.179   3.147  0.00  0.00    +0.292 HD
ENDBRANCH  17  22
ENDBRANCH   3  12
BRANCH   6  24
ATOM     24  O   UNL     1     -35.297  26.774   1.912  0.00  0.00    -0.501 OA
ATOM     25  H   UNL     1     -35.848  27.452   1.574  0.00  0.00    +0.292 HD
ENDBRANCH   6  24
BRANCH   8  26
ATOM     26  O   UNL     1     -32.693  30.960   3.672  0.00  0.00    -0.505 OA
ATOM     27  H   UNL     1     -32.489  31.828   3.959  0.00  0.00    +0.292 HD
ENDBRANCH   8  26
BRANCH  10  28
ATOM     28  O   UNL     1     -30.601  29.249   7.575  0.00  0.00    -0.505 OA
ATOM     29  H   UNL     1     -30.952  29.168   8.440  0.00  0.00    +0.292 HD
ENDBRANCH  10  28
TORSDOF 7
ENDMDL
MODEL 3
REMARK VINA RESULT:      -5.9      2.115      2.929
REMARK  Name = 5282154
REMARK  7 active torsions:
REMARK  status: ('A' for Active; 'I' for Inactive)
REMARK    1  A    between atoms: C_3  and  C_12
REMARK    2  A    between atoms: C_6  and  O_24
REMARK    3  A    between atoms: C_8  and  O_26
REMARK    4  A    between atoms: C_10  and  O_28
REMARK    5  A    between atoms: C_15  and  O_18
REMARK    6  A    between atoms: C_16  and  O_20
REMARK    7  A    between atoms: C_17  and  O_22
REMARK                            x       y       z     vdW  Elec       q    Type
REMARK                         _______ _______ _______ _____ _____    ______ ____
ROOT
ATOM      1  O   UNL     1     -33.602  25.443   4.999  0.00  0.00    -0.450 OA
ATOM      2  O   UNL     1     -36.854  26.485   2.776  0.00  0.00    -0.283 OA
ATOM      3  C   UNL     1     -33.770  26.734   4.525  0.00  0.00    +0.182 A 
ATOM      4  C   UNL     1     -35.702  24.805   3.964  0.00  0.00    +0.110 A 
ATOM      5  C   UNL     1     -34.566  24.511   4.717  0.00  0.00    +0.155 A 
ATOM      6  C   UNL     1     -34.813  27.144   3.782  0.00  0.00    +0.208 A 
ATOM      7  C   UNL     1     -35.881  26.170   3.448  0.00  0.00    +0.238 A 
ATOM      8  C   UNL     1     -36.653  23.813   3.707  0.00  0.00    +0.143 C 
ATOM      9  C   UNL     1     -34.374  23.223   5.216  0.00  0.00    +0.074 C 
ATOM     10  C   UNL     1     -35.321  22.231   4.961  0.00  0.00    +0.140 C 
ATOM     11  C   UNL     1     -36.458  22.526   4.208  0.00  0.00    +0.073 C 
ENDROOT
BRANCH   3  12
ATOM     12  C   UNL     1     -32.662  27.632   4.899  0.00  0.00    +0.044 C 
ATOM     13  C   UNL     1     -31.745  28.048   3.933  0.00  0.00    +0.043 C 
ATOM     14  C   UNL     1     -32.530  28.067   6.218  0.00  0.00    +0.043 C 
ATOM     15  C   UNL     1     -30.697  28.898   4.287  0.00  0.00    +0.175 C 
ATOM     16  C   UNL     1     -31.483  28.916   6.571  0.00  0.00    +0.171 C 
ATOM     17  C   UNL     1     -30.566  29.332   5.606  0.00  0.00    +0.202 C 
BRANCH  15  18
ATOM     18  O   UNL     1     -29.809  29.297   3.333  0.00  0.00    -0.468 OA
ATOM     19  C   UNL     1     -28.815  28.354   2.937  0.00  0.00    +0.253 C 
ENDBRANCH  15  18
BRANCH  16  20
ATOM     20  O   UNL     1     -31.365  29.333   7.863  0.00  0.00    -0.503 OA
ATOM     21  H   UNL     1     -30.582  29.153   8.344  0.00  0.00    +0.292 HD
ENDBRANCH  16  20
BRANCH  17  22
ATOM     22  O   UNL     1     -29.541  30.163   5.951  0.00  0.00    -0.501 OA
ATOM     23  H   UNL     1     -28.904  30.413   5.310  0.00  0.00    +0.292 HD
ENDBRANCH  17  22
ENDBRANCH   3  12
BRANCH   6  24
ATOM     24  O   UNL     1     -34.935  28.430   3.299  0.00  0.00    -0.501 OA
ATOM     25  H   UNL     1     -35.049  29.145   3.893  0.00  0.00    +0.292 HD
ENDBRANCH   6  24
BRANCH   8  26
ATOM     26  O   UNL     1     -37.780  24.048   2.977  0.00  0.00    -0.505 OA
ATOM     27  H   UNL     1     -37.753  24.642   2.254  0.00  0.00    +0.292 HD
ENDBRANCH   8  26
BRANCH  10  28
ATOM     28  O   UNL     1     -35.136  20.974   5.448  0.00  0.00    -0.505 OA
ATOM     29  H   UNL     1     -35.861  20.494   5.797  0.00  0.00    +0.292 HD
ENDBRANCH  10  28
TORSDOF 7
ENDMDL
MODEL 4
REMARK VINA RESULT:      -5.9      2.638      7.518
REMARK  Name = 5282154
REMARK  7 active torsions:
REMARK  status: ('A' for Active; 'I' for Inactive)
REMARK    1  A    between atoms: C_3  and  C_12
REMARK    2  A    between atoms: C_6  and  O_24
REMARK    3  A    between atoms: C_8  and  O_26
REMARK    4  A    between atoms: C_10  and  O_28
REMARK    5  A    between atoms: C_15  and  O_18
REMARK    6  A    between atoms: C_16  and  O_20
REMARK    7  A    between atoms: C_17  and  O_22
REMARK                            x       y       z     vdW  Elec       q    Type
REMARK                         _______ _______ _______ _____ _____    ______ ____
ROOT
ATOM      1  O   UNL     1     -35.484  23.150   1.851  0.00  0.00    -0.450 OA
ATOM      2  O   UNL     1     -35.734  23.162   5.919  0.00  0.00    -0.283 OA
ATOM      3  C   UNL     1     -35.539  21.969   2.576  0.00  0.00    +0.182 A 
ATOM      4  C   UNL     1     -35.619  24.410   3.921  0.00  0.00    +0.110 A 
ATOM      5  C   UNL     1     -35.531  24.338   2.532  0.00  0.00    +0.155 A 
ATOM      6  C   UNL     1     -35.615  21.901   3.917  0.00  0.00    +0.208 A 
ATOM      7  C   UNL     1     -35.664  23.162   4.697  0.00  0.00    +0.238 A 
ATOM      8  C   UNL     1     -35.661  25.651   4.562  0.00  0.00    +0.143 C 
ATOM      9  C   UNL     1     -35.484  25.508   1.775  0.00  0.00    +0.074 C 
ATOM     10  C   UNL     1     -35.527  26.749   2.411  0.00  0.00    +0.140 C 
ATOM     11  C   UNL     1     -35.615  26.820   3.802  0.00  0.00    +0.073 C 
ENDROOT
BRANCH   3  12
ATOM     12  C   UNL     1     -35.480  20.768   1.723  0.00  0.00    +0.044 C 
ATOM     13  C   UNL     1     -34.245  20.217   1.379  0.00  0.00    +0.043 C 
ATOM     14  C   UNL     1     -36.658  20.182   1.260  0.00  0.00    +0.043 C 
ATOM     15  C   UNL     1     -34.190  19.080   0.572  0.00  0.00    +0.175 C 
ATOM     16  C   UNL     1     -36.603  19.046   0.454  0.00  0.00    +0.171 C 
ATOM     17  C   UNL     1     -35.368  18.495   0.109  0.00  0.00    +0.202 C 
BRANCH  15  18
ATOM     18  O   UNL     1     -32.977  18.552   0.245  0.00  0.00    -0.468 OA
ATOM     19  C   UNL     1     -32.193  18.018   1.309  0.00  0.00    +0.253 C 
ENDBRANCH  15  18
BRANCH  16  20
ATOM     20  O   UNL     1     -37.761  18.484   0.008  0.00  0.00    -0.503 OA
ATOM     21  H   UNL     1     -38.535  18.531   0.531  0.00  0.00    +0.292 HD
ENDBRANCH  16  20
BRANCH  17  22
ATOM     22  O   UNL     1     -35.313  17.384  -0.679  0.00  0.00    -0.501 OA
ATOM     23  H   UNL     1     -35.973  17.236  -1.327  0.00  0.00    +0.292 HD
ENDBRANCH  17  22
ENDBRANCH   3  12
BRANCH   6  24
ATOM     24  O   UNL     1     -35.635  20.709   4.610  0.00  0.00    -0.501 OA
ATOM     25  H   UNL     1     -35.425  20.694   5.522  0.00  0.00    +0.292 HD
ENDBRANCH   6  24
BRANCH   8  26
ATOM     26  O   UNL     1     -35.746  25.777   5.916  0.00  0.00    -0.505 OA
ATOM     27  H   UNL     1     -35.029  26.140   6.398  0.00  0.00    +0.292 HD
ENDBRANCH   8  26
BRANCH  10  28
ATOM     28  O   UNL     1     -35.483  27.893   1.674  0.00  0.00    -0.505 OA
ATOM     29  H   UNL     1     -34.997  27.916   0.873  0.00  0.00    +0.292 HD
ENDBRANCH  10  28
TORSDOF 7
ENDMDL
MODEL 5
REMARK VINA RESULT:      -5.9      1.775      7.336
REMARK  Name = 5282154
REMARK  7 active torsions:
REMARK  status: ('A' for Active; 'I' for Inactive)
REMARK    1  A    between atoms: C_3  and  C_12
REMARK    2  A    between atoms: C_6  and  O_24
REMARK    3  A    between atoms: C_8  and  O_26
REMARK    4  A    between atoms: C_10  and  O_28
REMARK    5  A    between atoms: C_15  and  O_18
REMARK    6  A    between atoms: C_16  and  O_20
REMARK    7  A    between atoms: C_17  and  O_22
REMARK                            x       y       z     vdW  Elec       q    Type
REMARK                         _______ _______ _______ _____ _____    ______ ____
ROOT
ATOM      1  O   UNL     1     -34.647  23.949   2.183  0.00  0.00    -0.450 OA
ATOM      2  O   UNL     1     -35.017  24.580   6.192  0.00  0.00    -0.283 OA
ATOM      3  C   UNL     1     -35.315  23.049   2.998  0.00  0.00    +0.182 A 
ATOM      4  C   UNL     1     -34.211  25.352   4.115  0.00  0.00    +0.110 A 
ATOM      5  C   UNL     1     -34.116  25.077   2.752  0.00  0.00    +0.155 A 
ATOM      6  C   UNL     1     -35.469  23.192   4.327  0.00  0.00    +0.208 A 
ATOM      7  C   UNL     1     -34.908  24.396   4.987  0.00  0.00    +0.238 A 
ATOM      8  C   UNL     1     -33.649  26.520   4.640  0.00  0.00    +0.143 C 
ATOM      9  C   UNL     1     -33.458  25.969   1.905  0.00  0.00    +0.074 C 
ATOM     10  C   UNL     1     -32.897  27.135   2.425  0.00  0.00    +0.140 C 
ATOM     11  C   UNL     1     -32.992  27.410   3.790  0.00  0.00    +0.073 C 
ENDROOT
BRANCH   3  12
ATOM     12  C   UNL     1     -35.834  21.883   2.262  0.00  0.00    +0.044 C 
ATOM     13  C   UNL     1     -34.960  20.885   1.829  0.00  0.00    +0.043 C 
ATOM     14  C   UNL     1     -37.199  21.775   1.997  0.00  0.00    +0.043 C 
ATOM     15  C   UNL     1     -35.451  19.781   1.132  0.00  0.00    +0.175 C 
ATOM     16  C   UNL     1     -37.691  20.672   1.300  0.00  0.00    +0.171 C 
ATOM     17  C   UNL     1     -36.816  19.675   0.867  0.00  0.00    +0.202 C 
BRANCH  15  18
ATOM     18  O   UNL     1     -34.586  18.814   0.716  0.00  0.00    -0.468 OA
ATOM     19  C   UNL     1     -33.350  18.704   1.419  0.00  0.00    +0.253 C 
ENDBRANCH  15  18
BRANCH  16  20
ATOM     20  O   UNL     1     -39.027  20.580   1.047  0.00  0.00    -0.503 OA
ATOM     21  H   UNL     1     -39.535  19.909   1.458  0.00  0.00    +0.292 HD
ENDBRANCH  16  20
BRANCH  17  22
ATOM     22  O   UNL     1     -37.296  18.595   0.186  0.00  0.00    -0.501 OA
ATOM     23  H   UNL     1     -37.214  18.554  -0.746  0.00  0.00    +0.292 HD
ENDBRANCH  17  22
ENDBRANCH   3  12
BRANCH   6  24
ATOM     24  O   UNL     1     -36.112  22.261   5.114  0.00  0.00    -0.501 OA
ATOM     25  H   UNL     1     -35.752  21.402   5.214  0.00  0.00    +0.292 HD
ENDBRANCH   6  24
BRANCH   8  26
ATOM     26  O   UNL     1     -33.713  26.835   5.963  0.00  0.00    -0.505 OA
ATOM     27  H   UNL     1     -32.981  26.660   6.522  0.00  0.00    +0.292 HD
ENDBRANCH   8  26
BRANCH  10  28
ATOM     28  O   UNL     1     -32.254  28.007   1.600  0.00  0.00    -0.505 OA
ATOM     29  H   UNL     1     -32.154  28.903   1.852  0.00  0.00    +0.292 HD
ENDBRANCH  10  28
TORSDOF 7
ENDMDL
MODEL 6
REMARK VINA RESULT:      -5.8      2.995      8.055
REMARK  Name = 5282154
REMARK  7 active torsions:
REMARK  status: ('A' for Active; 'I' for Inactive)
REMARK    1  A    between atoms: C_3  and  C_12
REMARK    2  A    between atoms: C_6  and  O_24
REMARK    3  A    between atoms: C_8  and  O_26
REMARK    4  A    between atoms: C_10  and  O_28
REMARK    5  A    between atoms: C_15  and  O_18
REMARK    6  A    between atoms: C_16  and  O_20
REMARK    7  A    between atoms: C_17  and  O_22
REMARK                            x       y       z     vdW  Elec       q    Type
REMARK                         _______ _______ _______ _____ _____    ______ ____
ROOT
ATOM      1  O   UNL     1     -37.698  23.203   2.253  0.00  0.00    -0.450 OA
ATOM      2  O   UNL     1     -35.164  20.535   4.003  0.00  0.00    -0.283 OA
ATOM      3  C   UNL     1     -37.579  21.905   1.783  0.00  0.00    +0.182 A 
ATOM      4  C   UNL     1     -36.069  22.712   3.983  0.00  0.00    +0.110 A 
ATOM      5  C   UNL     1     -36.952  23.577   3.339  0.00  0.00    +0.155 A 
ATOM      6  C   UNL     1     -36.758  20.976   2.308  0.00  0.00    +0.208 A 
ATOM      7  C   UNL     1     -35.927  21.337   3.482  0.00  0.00    +0.238 A 
ATOM      8  C   UNL     1     -35.332  23.150   5.087  0.00  0.00    +0.143 C 
ATOM      9  C   UNL     1     -37.101  24.887   3.795  0.00  0.00    +0.074 C 
ATOM     10  C   UNL     1     -36.368  25.327   4.896  0.00  0.00    +0.140 C 
ATOM     11  C   UNL     1     -35.484  24.460   5.541  0.00  0.00    +0.073 C 
ENDROOT
BRANCH   3  12
ATOM     12  C   UNL     1     -38.434  21.635   0.613  0.00  0.00    +0.044 C 
ATOM     13  C   UNL     1     -37.917  21.769  -0.675  0.00  0.00    +0.043 C 
ATOM     14  C   UNL     1     -39.762  21.247   0.794  0.00  0.00    +0.043 C 
ATOM     15  C   UNL     1     -38.727  21.515  -1.782  0.00  0.00    +0.175 C 
ATOM     16  C   UNL     1     -40.572  20.992  -0.312  0.00  0.00    +0.171 C 
ATOM     17  C   UNL     1     -40.054  21.126  -1.600  0.00  0.00    +0.202 C 
BRANCH  15  18
ATOM     18  O   UNL     1     -38.208  21.648  -3.035  0.00  0.00    -0.468 OA
ATOM     19  C   UNL     1     -37.315  20.630  -3.479  0.00  0.00    +0.253 C 
ENDBRANCH  15  18
BRANCH  16  20
ATOM     20  O   UNL     1     -41.866  20.614  -0.121  0.00  0.00    -0.503 OA
ATOM     21  H   UNL     1     -42.076  19.710   0.005  0.00  0.00    +0.292 HD
ENDBRANCH  16  20
BRANCH  17  22
ATOM     22  O   UNL     1     -40.845  20.877  -2.682  0.00  0.00    -0.501 OA
ATOM     23  H   UNL     1     -40.459  20.757  -3.528  0.00  0.00    +0.292 HD
ENDBRANCH  17  22
ENDBRANCH   3  12
BRANCH   6  24
ATOM     24  O   UNL     1     -36.639  19.702   1.796  0.00  0.00    -0.501 OA
ATOM     25  H   UNL     1     -35.839  19.433   1.390  0.00  0.00    +0.292 HD
ENDBRANCH   6  24
BRANCH   8  26
ATOM     26  O   UNL     1     -34.456  22.345   5.752  0.00  0.00    -0.505 OA
ATOM     27  H   UNL     1     -33.988  22.675   6.493  0.00  0.00    +0.292 HD
ENDBRANCH   8  26
BRANCH  10  28
ATOM     28  O   UNL     1     -36.513  26.605   5.343  0.00  0.00    -0.505 OA
ATOM     29  H   UNL     1     -35.837  27.001   5.857  0.00  0.00    +0.292 HD
ENDBRANCH  10  28
TORSDOF 7
ENDMDL
MODEL 7
REMARK VINA RESULT:      -5.8      3.282      6.063
REMARK  Name = 5282154
REMARK  7 active torsions:
REMARK  status: ('A' for Active; 'I' for Inactive)
REMARK    1  A    between atoms: C_3  and  C_12
REMARK    2  A    between atoms: C_6  and  O_24
REMARK    3  A    between atoms: C_8  and  O_26
REMARK    4  A    between atoms: C_10  and  O_28
REMARK    5  A    between atoms: C_15  and  O_18
REMARK    6  A    between atoms: C_16  and  O_20
REMARK    7  A    between atoms: C_17  and  O_22
REMARK                            x       y       z     vdW  Elec       q    Type
REMARK                         _______ _______ _______ _____ _____    ______ ____
ROOT
ATOM      1  O   UNL     1     -34.026  19.963   1.636  0.00  0.00    -0.450 OA
ATOM      2  O   UNL     1     -36.953  17.868  -0.273  0.00  0.00    -0.283 OA
ATOM      3  C   UNL     1     -35.332  20.425   1.589  0.00  0.00    +0.182 A 
ATOM      4  C   UNL     1     -34.688  18.003   0.368  0.00  0.00    +0.110 A 
ATOM      5  C   UNL     1     -33.732  18.768   1.035  0.00  0.00    +0.155 A 
ATOM      6  C   UNL     1     -36.344  19.789   0.972  0.00  0.00    +0.208 A 
ATOM      7  C   UNL     1     -36.073  18.493   0.303  0.00  0.00    +0.238 A 
ATOM      8  C   UNL     1     -34.330  16.791  -0.228  0.00  0.00    +0.143 C 
ATOM      9  C   UNL     1     -32.412  18.325   1.108  0.00  0.00    +0.074 C 
ATOM     10  C   UNL     1     -32.051  17.116   0.514  0.00  0.00    +0.140 C 
ATOM     11  C   UNL     1     -33.009  16.350  -0.153  0.00  0.00    +0.073 C 
ENDROOT
BRANCH   3  12
ATOM     12  C   UNL     1     -35.510  21.719   2.272  0.00  0.00    +0.044 C 
ATOM     13  C   UNL     1     -35.724  21.757   3.650  0.00  0.00    +0.043 C 
ATOM     14  C   UNL     1     -35.464  22.906   1.541  0.00  0.00    +0.043 C 
ATOM     15  C   UNL     1     -35.892  22.982   4.296  0.00  0.00    +0.175 C 
ATOM     16  C   UNL     1     -35.632  24.131   2.187  0.00  0.00    +0.171 C 
ATOM     17  C   UNL     1     -35.846  24.168   3.565  0.00  0.00    +0.202 C 
BRANCH  15  18
ATOM     18  O   UNL     1     -36.100  23.004   5.643  0.00  0.00    -0.468 OA
ATOM     19  C   UNL     1     -35.436  22.008   6.418  0.00  0.00    +0.253 C 
ENDBRANCH  15  18
BRANCH  16  20
ATOM     20  O   UNL     1     -35.585  25.283   1.461  0.00  0.00    -0.503 OA
ATOM     21  H   UNL     1     -34.905  25.907   1.618  0.00  0.00    +0.292 HD
ENDBRANCH  16  20
BRANCH  17  22
ATOM     22  O   UNL     1     -36.010  25.365   4.198  0.00  0.00    -0.501 OA
ATOM     23  H   UNL     1     -35.330  25.701   4.749  0.00  0.00    +0.292 HD
ENDBRANCH  17  22
ENDBRANCH   3  12
BRANCH   6  24
ATOM     24  O   UNL     1     -37.626  20.292   0.916  0.00  0.00    -0.501 OA
ATOM     25  H   UNL     1     -38.006  20.693   1.672  0.00  0.00    +0.292 HD
ENDBRANCH   6  24
BRANCH   8  26
ATOM     26  O   UNL     1     -35.224  16.006  -0.891  0.00  0.00    -0.505 OA
ATOM     27  H   UNL     1     -36.108  16.297  -1.005  0.00  0.00    +0.292 HD
ENDBRANCH   8  26
BRANCH  10  28
ATOM     28  O   UNL     1     -30.763  16.681   0.585  0.00  0.00    -0.505 OA
ATOM     29  H   UNL     1     -30.107  17.222   0.978  0.00  0.00    +0.292 HD
ENDBRANCH  10  28
TORSDOF 7
ENDMDL
MODEL 8
REMARK VINA RESULT:      -5.8      1.869      7.199
REMARK  Name = 5282154
REMARK  7 active torsions:
REMARK  status: ('A' for Active; 'I' for Inactive)
REMARK    1  A    between atoms: C_3  and  C_12
REMARK    2  A    between atoms: C_6  and  O_24
REMARK    3  A    between atoms: C_8  and  O_26
REMARK    4  A    between atoms: C_10  and  O_28
REMARK    5  A    between atoms: C_15  and  O_18
REMARK    6  A    between atoms: C_16  and  O_20
REMARK    7  A    between atoms: C_17  and  O_22
REMARK                            x       y       z     vdW  Elec       q    Type
REMARK                         _______ _______ _______ _____ _____    ______ ____
ROOT
ATOM      1  O   UNL     1     -35.828  25.665   2.128  0.00  0.00    -0.450 OA
ATOM      2  O   UNL     1     -34.481  26.313   5.919  0.00  0.00    -0.283 OA
ATOM      3  C   UNL     1     -36.295  24.919   3.199  0.00  0.00    +0.182 A 
ATOM      4  C   UNL     1     -34.405  26.920   3.641  0.00  0.00    +0.110 A 
ATOM      5  C   UNL     1     -34.904  26.647   2.368  0.00  0.00    +0.155 A 
ATOM      6  C   UNL     1     -35.890  25.075   4.472  0.00  0.00    +0.208 A 
ATOM      7  C   UNL     1     -34.887  26.124   4.780  0.00  0.00    +0.238 A 
ATOM      8  C   UNL     1     -33.462  27.935   3.826  0.00  0.00    +0.143 C 
ATOM      9  C   UNL     1     -34.461  27.388   1.273  0.00  0.00    +0.074 C 
ATOM     10  C   UNL     1     -33.520  28.401   1.454  0.00  0.00    +0.140 C 
ATOM     11  C   UNL     1     -33.021  28.673   2.728  0.00  0.00    +0.073 C 
ENDROOT
BRANCH   3  12
ATOM     12  C   UNL     1     -37.282  23.899   2.802  0.00  0.00    +0.044 C 
ATOM     13  C   UNL     1     -38.598  24.271   2.527  0.00  0.00    +0.043 C 
ATOM     14  C   UNL     1     -36.901  22.561   2.701  0.00  0.00    +0.043 C 
ATOM     15  C   UNL     1     -39.532  23.305   2.151  0.00  0.00    +0.175 C 
ATOM     16  C   UNL     1     -37.834  21.595   2.326  0.00  0.00    +0.171 C 
ATOM     17  C   UNL     1     -39.150  21.967   2.051  0.00  0.00    +0.202 C 
BRANCH  15  18
ATOM     18  O   UNL     1     -40.814  23.682   1.884  0.00  0.00    -0.468 OA
ATOM     19  C   UNL     1     -40.993  24.843   1.076  0.00  0.00    +0.253 C 
ENDBRANCH  15  18
BRANCH  16  20
ATOM     20  O   UNL     1     -37.449  20.291   2.233  0.00  0.00    -0.503 OA
ATOM     21  H   UNL     1     -38.069  19.637   1.982  0.00  0.00    +0.292 HD
ENDBRANCH  16  20
BRANCH  17  22
ATOM     22  O   UNL     1     -40.063  21.024   1.684  0.00  0.00    -0.501 OA
ATOM     23  H   UNL     1     -39.787  20.260   1.216  0.00  0.00    +0.292 HD
ENDBRANCH  17  22
ENDBRANCH   3  12
BRANCH   6  24
ATOM     24  O   UNL     1     -36.351  24.294   5.510  0.00  0.00    -0.501 OA
ATOM     25  H   UNL     1     -37.214  23.932   5.476  0.00  0.00    +0.292 HD
ENDBRANCH   6  24
BRANCH   8  26
ATOM     26  O   UNL     1     -32.943  28.241   5.048  0.00  0.00    -0.505 OA
ATOM     27  H   UNL     1     -32.205  27.765   5.375  0.00  0.00    +0.292 HD
ENDBRANCH   8  26
BRANCH  10  28
ATOM     28  O   UNL     1     -33.086  29.125   0.385  0.00  0.00    -0.505 OA
ATOM     29  H   UNL     1     -33.079  28.741  -0.469  0.00  0.00    +0.292 HD
ENDBRANCH  10  28
TORSDOF 7
ENDMDL
MODEL 9
REMARK VINA RESULT:      -5.8      2.195      7.581
REMARK  Name = 5282154
REMARK  7 active torsions:
REMARK  status: ('A' for Active; 'I' for Inactive)
REMARK    1  A    between atoms: C_3  and  C_12
REMARK    2  A    between atoms: C_6  and  O_24
REMARK    3  A    between atoms: C_8  and  O_26
REMARK    4  A    between atoms: C_10  and  O_28
REMARK    5  A    between atoms: C_15  and  O_18
REMARK    6  A    between atoms: C_16  and  O_20
REMARK    7  A    between atoms: C_17  and  O_22
REMARK                            x       y       z     vdW  Elec       q    Type
REMARK                         _______ _______ _______ _____ _____    ______ ____
ROOT
ATOM      1  O   UNL     1     -33.068  26.743   4.865  0.00  0.00    -0.450 OA
ATOM      2  O   UNL     1     -33.824  29.897   2.397  0.00  0.00    -0.283 OA
ATOM      3  C   UNL     1     -33.906  26.618   3.767  0.00  0.00    +0.182 A 
ATOM      4  C   UNL     1     -32.694  29.073   4.296  0.00  0.00    +0.110 A 
ATOM      5  C   UNL     1     -32.479  27.957   5.103  0.00  0.00    +0.155 A 
ATOM      6  C   UNL     1     -34.203  27.617   2.917  0.00  0.00    +0.208 A 
ATOM      7  C   UNL     1     -33.591  28.951   3.137  0.00  0.00    +0.238 A 
ATOM      8  C   UNL     1     -32.066  30.287   4.588  0.00  0.00    +0.143 C 
ATOM      9  C   UNL     1     -31.634  28.049   6.209  0.00  0.00    +0.074 C 
ATOM     10  C   UNL     1     -31.005  29.258   6.503  0.00  0.00    +0.140 C 
ATOM     11  C   UNL     1     -31.221  30.375   5.695  0.00  0.00    +0.073 C 
ENDROOT
BRANCH   3  12
ATOM     12  C   UNL     1     -34.473  25.265   3.628  0.00  0.00    +0.044 C 
ATOM     13  C   UNL     1     -35.091  24.652   4.718  0.00  0.00    +0.043 C 
ATOM     14  C   UNL     1     -34.390  24.596   2.406  0.00  0.00    +0.043 C 
ATOM     15  C   UNL     1     -35.627  23.370   4.585  0.00  0.00    +0.175 C 
ATOM     16  C   UNL     1     -34.926  23.315   2.274  0.00  0.00    +0.171 C 
ATOM     17  C   UNL     1     -35.545  22.703   3.363  0.00  0.00    +0.202 C 
BRANCH  15  18
ATOM     18  O   UNL     1     -36.230  22.784   5.657  0.00  0.00    -0.468 OA
ATOM     19  C   UNL     1     -35.394  22.050   6.550  0.00  0.00    +0.253 C 
ENDBRANCH  15  18
BRANCH  16  20
ATOM     20  O   UNL     1     -34.839  22.673   1.075  0.00  0.00    -0.503 OA
ATOM     21  H   UNL     1     -34.172  22.913   0.463  0.00  0.00    +0.292 HD
ENDBRANCH  16  20
BRANCH  17  22
ATOM     22  O   UNL     1     -36.070  21.451   3.235  0.00  0.00    -0.501 OA
ATOM     23  H   UNL     1     -36.965  21.292   3.462  0.00  0.00    +0.292 HD
ENDBRANCH  17  22
ENDBRANCH   3  12
BRANCH   6  24
ATOM     24  O   UNL     1     -35.066  27.468   1.852  0.00  0.00    -0.501 OA
ATOM     25  H   UNL     1     -35.088  26.661   1.377  0.00  0.00    +0.292 HD
ENDBRANCH   6  24
BRANCH   8  26
ATOM     26  O   UNL     1     -32.243  31.406   3.833  0.00  0.00    -0.505 OA
ATOM     27  H   UNL     1     -31.589  31.660   3.211  0.00  0.00    +0.292 HD
ENDBRANCH   8  26
BRANCH  10  28
ATOM     28  O   UNL     1     -30.179  29.350   7.582  0.00  0.00    -0.505 OA
ATOM     29  H   UNL     1     -30.140  28.650   8.203  0.00  0.00    +0.292 HD
ENDBRANCH  10  28
TORSDOF 7
ENDMDL
