MODEL 1
REMARK VINA RESULT:      -4.9      0.000      0.000
REMARK  Name = 54704415
REMARK  7 active torsions:
REMARK  status: ('A' for Active; 'I' for Inactive)
REMARK    1  A    between atoms: C_3  and  C_11
REMARK    2  A    between atoms: C_4  and  O_7
REMARK    3  A    between atoms: C_5  and  O_9
REMARK    4  A    between atoms: C_11  and  O_12
REMARK    5  A    between atoms: C_11  and  C_15
REMARK    6  A    between atoms: C_15  and  O_16
REMARK    7  A    between atoms: O_16  and  C_17
REMARK                            x       y       z     vdW  Elec       q    Type
REMARK                         _______ _______ _______ _____ _____    ______ ____
ROOT
ATOM      1  O   UNL     1     -34.870  27.635   4.091  0.00  0.00    -0.436 OA
ATOM      2  O   UNL     1     -32.826  28.701   4.142  0.00  0.00    -0.241 OA
ATOM      3  C   UNL     1     -35.343  26.343   3.660  0.00  0.00    +0.265 C 
ATOM      4  C   UNL     1     -34.118  25.698   3.148  0.00  0.00    +0.195 C 
ATOM      5  C   UNL     1     -33.056  26.489   3.264  0.00  0.00    +0.244 C 
ATOM      6  C   UNL     1     -33.521  27.737   3.876  0.00  0.00    +0.379 C 
ENDROOT
BRANCH   4   7
ATOM      7  O   UNL     1     -34.135  24.449   2.600  0.00  0.00    -0.504 OA
ATOM      8  H   UNL     1     -34.058  24.343   1.673  0.00  0.00    +0.292 HD
ENDBRANCH   4   7
BRANCH   5   9
ATOM      9  O   UNL     1     -31.774  26.242   2.895  0.00  0.00    -0.499 OA
ATOM     10  H   UNL     1     -31.528  25.387   2.600  0.00  0.00    +0.293 HD
ENDBRANCH   5   9
BRANCH   3  11
ATOM     11  C   UNL     1     -35.965  25.630   4.850  0.00  0.00    +0.258 C 
BRANCH  11  12
ATOM     12  O   UNL     1     -36.698  26.585   5.601  0.00  0.00    -0.371 OA
ATOM     13  H   UNL     1     -37.532  26.190   5.899  0.00  0.00    +0.211 HD
ENDBRANCH  11  12
BRANCH  11  15
ATOM     14  O   UNL     1     -38.032  24.724   3.958  0.00  0.00    -0.247 OA
ATOM     15  C   UNL     1     -36.909  24.532   4.405  0.00  0.00    +0.348 C 
BRANCH  15  16
ATOM     16  O   UNL     1     -36.325  23.315   4.607  0.00  0.00    -0.447 OA
BRANCH  16  17
ATOM     17  C   UNL     1     -35.465  23.226   5.747  0.00  0.00    +0.209 C 
ATOM     18  C   UNL     1     -35.222  21.766   6.070  0.00  0.00    +0.051 C 
ENDBRANCH  16  17
ENDBRANCH  15  16
ENDBRANCH  11  15
ENDBRANCH   3  11
TORSDOF 7
ENDMDL
MODEL 2
REMARK VINA RESULT:      -4.8      1.856      3.923
REMARK  Name = 54704415
REMARK  7 active torsions:
REMARK  status: ('A' for Active; 'I' for Inactive)
REMARK    1  A    between atoms: C_3  and  C_11
REMARK    2  A    between atoms: C_4  and  O_7
REMARK    3  A    between atoms: C_5  and  O_9
REMARK    4  A    between atoms: C_11  and  O_12
REMARK    5  A    between atoms: C_11  and  C_15
REMARK    6  A    between atoms: C_15  and  O_16
REMARK    7  A    between atoms: O_16  and  C_17
REMARK                            x       y       z     vdW  Elec       q    Type
REMARK                         _______ _______ _______ _____ _____    ______ ____
ROOT
ATOM      1  O   UNL     1     -35.366  24.839   2.307  0.00  0.00    -0.436 OA
ATOM      2  O   UNL     1     -35.132  22.662   1.585  0.00  0.00    -0.241 OA
ATOM      3  C   UNL     1     -36.338  25.564   3.088  0.00  0.00    +0.265 C 
ATOM      4  C   UNL     1     -37.349  24.531   3.393  0.00  0.00    +0.195 C 
ATOM      5  C   UNL     1     -37.023  23.352   2.875  0.00  0.00    +0.244 C 
ATOM      6  C   UNL     1     -35.747  23.530   2.180  0.00  0.00    +0.379 C 
ENDROOT
BRANCH   4   7
ATOM      7  O   UNL     1     -38.482  24.816   4.098  0.00  0.00    -0.504 OA
ATOM      8  H   UNL     1     -38.542  25.614   4.586  0.00  0.00    +0.292 HD
ENDBRANCH   4   7
BRANCH   5   9
ATOM      9  O   UNL     1     -37.709  22.183   2.941  0.00  0.00    -0.499 OA
ATOM     10  H   UNL     1     -38.168  21.952   3.725  0.00  0.00    +0.293 HD
ENDBRANCH   5   9
BRANCH   3  11
ATOM     11  C   UNL     1     -35.649  26.135   4.316  0.00  0.00    +0.258 C 
BRANCH  11  12
ATOM     12  O   UNL     1     -36.630  26.329   5.322  0.00  0.00    -0.371 OA
ATOM     13  H   UNL     1     -37.509  26.363   4.914  0.00  0.00    +0.211 HD
ENDBRANCH  11  12
BRANCH  11  15
ATOM     14  O   UNL     1     -33.412  25.213   4.517  0.00  0.00    -0.247 OA
ATOM     15  C   UNL     1     -34.591  25.188   4.845  0.00  0.00    +0.348 C 
BRANCH  15  16
ATOM     16  O   UNL     1     -35.161  24.299   5.710  0.00  0.00    -0.447 OA
BRANCH  16  17
ATOM     17  C   UNL     1     -34.674  22.956   5.623  0.00  0.00    +0.209 C 
ATOM     18  C   UNL     1     -35.609  22.042   6.386  0.00  0.00    +0.051 C 
ENDBRANCH  16  17
ENDBRANCH  15  16
ENDBRANCH  11  15
ENDBRANCH   3  11
TORSDOF 7
ENDMDL
MODEL 3
REMARK VINA RESULT:      -4.8      1.723      4.488
REMARK  Name = 54704415
REMARK  7 active torsions:
REMARK  status: ('A' for Active; 'I' for Inactive)
REMARK    1  A    between atoms: C_3  and  C_11
REMARK    2  A    between atoms: C_4  and  O_7
REMARK    3  A    between atoms: C_5  and  O_9
REMARK    4  A    between atoms: C_11  and  O_12
REMARK    5  A    between atoms: C_11  and  C_15
REMARK    6  A    between atoms: C_15  and  O_16
REMARK    7  A    between atoms: O_16  and  C_17
REMARK                            x       y       z     vdW  Elec       q    Type
REMARK                         _______ _______ _______ _____ _____    ______ ____
ROOT
ATOM      1  O   UNL     1     -35.062  24.143   5.788  0.00  0.00    -0.436 OA
ATOM      2  O   UNL     1     -36.074  22.190   6.477  0.00  0.00    -0.241 OA
ATOM      3  C   UNL     1     -34.650  24.694   4.520  0.00  0.00    +0.265 C 
ATOM      4  C   UNL     1     -35.018  23.630   3.564  0.00  0.00    +0.195 C 
ATOM      5  C   UNL     1     -35.579  22.591   4.173  0.00  0.00    +0.244 C 
ATOM      6  C   UNL     1     -35.622  22.907   5.602  0.00  0.00    +0.379 C 
ENDROOT
BRANCH   4   7
ATOM      7  O   UNL     1     -34.759  23.739   2.229  0.00  0.00    -0.504 OA
ATOM      8  H   UNL     1     -34.008  23.317   1.862  0.00  0.00    +0.292 HD
ENDBRANCH   4   7
BRANCH   5   9
ATOM      9  O   UNL     1     -36.032  21.435   3.625  0.00  0.00    -0.499 OA
ATOM     10  H   UNL     1     -36.576  20.861   4.127  0.00  0.00    +0.293 HD
ENDBRANCH   5   9
BRANCH   3  11
ATOM     11  C   UNL     1     -35.387  26.006   4.297  0.00  0.00    +0.258 C 
BRANCH  11  12
ATOM     12  O   UNL     1     -36.152  26.284   5.459  0.00  0.00    -0.371 OA
ATOM     13  H   UNL     1     -36.235  25.478   5.992  0.00  0.00    +0.211 HD
ENDBRANCH  11  12
BRANCH  11  15
ATOM     14  O   UNL     1     -34.721  28.216   3.546  0.00  0.00    -0.247 OA
ATOM     15  C   UNL     1     -34.421  27.149   4.066  0.00  0.00    +0.348 C 
BRANCH  15  16
ATOM     16  O   UNL     1     -33.175  26.793   4.497  0.00  0.00    -0.447 OA
BRANCH  16  17
ATOM     17  C   UNL     1     -32.570  27.685   5.438  0.00  0.00    +0.209 C 
ATOM     18  C   UNL     1     -32.770  27.137   6.836  0.00  0.00    +0.051 C 
ENDBRANCH  16  17
ENDBRANCH  15  16
ENDBRANCH  11  15
ENDBRANCH   3  11
TORSDOF 7
ENDMDL
MODEL 4
REMARK VINA RESULT:      -4.8      2.661      3.999
REMARK  Name = 54704415
REMARK  7 active torsions:
REMARK  status: ('A' for Active; 'I' for Inactive)
REMARK    1  A    between atoms: C_3  and  C_11
REMARK    2  A    between atoms: C_4  and  O_7
REMARK    3  A    between atoms: C_5  and  O_9
REMARK    4  A    between atoms: C_11  and  O_12
REMARK    5  A    between atoms: C_11  and  C_15
REMARK    6  A    between atoms: C_15  and  O_16
REMARK    7  A    between atoms: O_16  and  C_17
REMARK                            x       y       z     vdW  Elec       q    Type
REMARK                         _______ _______ _______ _____ _____    ______ ____
ROOT
ATOM      1  O   UNL     1     -34.626  23.653   4.672  0.00  0.00    -0.436 OA
ATOM      2  O   UNL     1     -33.190  25.455   4.584  0.00  0.00    -0.241 OA
ATOM      3  C   UNL     1     -36.056  23.477   4.617  0.00  0.00    +0.265 C 
ATOM      4  C   UNL     1     -36.554  24.862   4.497  0.00  0.00    +0.195 C 
ATOM      5  C   UNL     1     -35.560  25.744   4.473  0.00  0.00    +0.244 C 
ATOM      6  C   UNL     1     -34.313  24.984   4.577  0.00  0.00    +0.379 C 
ENDROOT
BRANCH   4   7
ATOM      7  O   UNL     1     -37.887  25.148   4.452  0.00  0.00    -0.504 OA
ATOM      8  H   UNL     1     -38.401  24.874   3.719  0.00  0.00    +0.292 HD
ENDBRANCH   4   7
BRANCH   5   9
ATOM      9  O   UNL     1     -35.634  27.096   4.381  0.00  0.00    -0.499 OA
ATOM     10  H   UNL     1     -35.373  27.527   3.591  0.00  0.00    +0.293 HD
ENDBRANCH   5   9
BRANCH   3  11
ATOM     11  C   UNL     1     -36.392  22.594   3.426  0.00  0.00    +0.258 C 
BRANCH  11  12
ATOM     12  O   UNL     1     -36.230  23.365   2.246  0.00  0.00    -0.371 OA
ATOM     13  H   UNL     1     -35.532  22.974   1.698  0.00  0.00    +0.211 HD
ENDBRANCH  11  12
BRANCH  11  15
ATOM     14  O   UNL     1     -35.204  20.666   4.300  0.00  0.00    -0.247 OA
ATOM     15  C   UNL     1     -35.472  21.392   3.352  0.00  0.00    +0.348 C 
BRANCH  15  16
ATOM     16  O   UNL     1     -34.977  21.270   2.086  0.00  0.00    -0.447 OA
BRANCH  16  17
ATOM     17  C   UNL     1     -35.109  19.972   1.496  0.00  0.00    +0.209 C 
ATOM     18  C   UNL     1     -33.742  19.324   1.420  0.00  0.00    +0.051 C 
ENDBRANCH  16  17
ENDBRANCH  15  16
ENDBRANCH  11  15
ENDBRANCH   3  11
TORSDOF 7
ENDMDL
MODEL 5
REMARK VINA RESULT:      -4.8      1.919      5.276
REMARK  Name = 54704415
REMARK  7 active torsions:
REMARK  status: ('A' for Active; 'I' for Inactive)
REMARK    1  A    between atoms: C_3  and  C_11
REMARK    2  A    between atoms: C_4  and  O_7
REMARK    3  A    between atoms: C_5  and  O_9
REMARK    4  A    between atoms: C_11  and  O_12
REMARK    5  A    between atoms: C_11  and  C_15
REMARK    6  A    between atoms: C_15  and  O_16
REMARK    7  A    between atoms: O_16  and  C_17
REMARK                            x       y       z     vdW  Elec       q    Type
REMARK                         _______ _______ _______ _____ _____    ______ ____
ROOT
ATOM      1  O   UNL     1     -34.327  24.553   5.194  0.00  0.00    -0.436 OA
ATOM      2  O   UNL     1     -35.979  23.100   5.883  0.00  0.00    -0.241 OA
ATOM      3  C   UNL     1     -34.286  25.767   4.417  0.00  0.00    +0.265 C 
ATOM      4  C   UNL     1     -35.700  25.967   4.045  0.00  0.00    +0.195 C 
ATOM      5  C   UNL     1     -36.481  25.011   4.537  0.00  0.00    +0.244 C 
ATOM      6  C   UNL     1     -35.615  24.097   5.286  0.00  0.00    +0.379 C 
ENDROOT
BRANCH   4   7
ATOM      7  O   UNL     1     -36.099  27.008   3.258  0.00  0.00    -0.504 OA
ATOM      8  H   UNL     1     -36.603  27.707   3.626  0.00  0.00    +0.292 HD
ENDBRANCH   4   7
BRANCH   5   9
ATOM      9  O   UNL     1     -37.822  24.860   4.396  0.00  0.00    -0.499 OA
ATOM     10  H   UNL     1     -38.319  24.433   5.066  0.00  0.00    +0.293 HD
ENDBRANCH   5   9
BRANCH   3  11
ATOM     11  C   UNL     1     -33.711  26.878   5.281  0.00  0.00    +0.258 C 
BRANCH  11  12
ATOM     12  O   UNL     1     -33.071  26.282   6.397  0.00  0.00    -0.371 OA
ATOM     13  H   UNL     1     -32.520  25.543   6.097  0.00  0.00    +0.211 HD
ENDBRANCH  11  12
BRANCH  11  15
ATOM     14  O   UNL     1     -31.836  27.232   3.780  0.00  0.00    -0.247 OA
ATOM     15  C   UNL     1     -32.694  27.701   4.518  0.00  0.00    +0.348 C 
BRANCH  15  16
ATOM     16  O   UNL     1     -32.865  29.025   4.803  0.00  0.00    -0.447 OA
BRANCH  16  17
ATOM     17  C   UNL     1     -31.692  29.716   5.245  0.00  0.00    +0.209 C 
ATOM     18  C   UNL     1     -31.618  29.647   6.756  0.00  0.00    +0.051 C 
ENDBRANCH  16  17
ENDBRANCH  15  16
ENDBRANCH  11  15
ENDBRANCH   3  11
TORSDOF 7
ENDMDL
MODEL 6
REMARK VINA RESULT:      -4.7      1.657      4.547
REMARK  Name = 54704415
REMARK  7 active torsions:
REMARK  status: ('A' for Active; 'I' for Inactive)
REMARK    1  A    between atoms: C_3  and  C_11
REMARK    2  A    between atoms: C_4  and  O_7
REMARK    3  A    between atoms: C_5  and  O_9
REMARK    4  A    between atoms: C_11  and  O_12
REMARK    5  A    between atoms: C_11  and  C_15
REMARK    6  A    between atoms: C_15  and  O_16
REMARK    7  A    between atoms: O_16  and  C_17
REMARK                            x       y       z     vdW  Elec       q    Type
REMARK                         _______ _______ _______ _____ _____    ______ ____
ROOT
ATOM      1  O   UNL     1     -35.378  24.106   5.781  0.00  0.00    -0.436 OA
ATOM      2  O   UNL     1     -35.964  22.048   6.638  0.00  0.00    -0.241 OA
ATOM      3  C   UNL     1     -35.083  24.625   4.468  0.00  0.00    +0.265 C 
ATOM      4  C   UNL     1     -35.214  23.433   3.607  0.00  0.00    +0.195 C 
ATOM      5  C   UNL     1     -35.550  22.353   4.304  0.00  0.00    +0.244 C 
ATOM      6  C   UNL     1     -35.667  22.769   5.703  0.00  0.00    +0.379 C 
ENDROOT
BRANCH   4   7
ATOM      7  O   UNL     1     -34.976  23.483   2.264  0.00  0.00    -0.504 OA
ATOM      8  H   UNL     1     -34.380  22.877   1.871  0.00  0.00    +0.292 HD
ENDBRANCH   4   7
BRANCH   5   9
ATOM      9  O   UNL     1     -35.748  21.087   3.857  0.00  0.00    -0.499 OA
ATOM     10  H   UNL     1     -35.493  20.358   4.387  0.00  0.00    +0.293 HD
ENDBRANCH   5   9
BRANCH   3  11
ATOM     11  C   UNL     1     -36.076  25.731   4.148  0.00  0.00    +0.258 C 
BRANCH  11  12
ATOM     12  O   UNL     1     -36.361  26.428   5.350  0.00  0.00    -0.371 OA
ATOM     13  H   UNL     1     -36.163  25.859   6.109  0.00  0.00    +0.211 HD
ENDBRANCH  11  12
BRANCH  11  15
ATOM     14  O   UNL     1     -35.569  26.569   1.926  0.00  0.00    -0.247 OA
ATOM     15  C   UNL     1     -35.506  26.709   3.141  0.00  0.00    +0.348 C 
BRANCH  15  16
ATOM     16  O   UNL     1     -34.897  27.740   3.796  0.00  0.00    -0.447 OA
BRANCH  16  17
ATOM     17  C   UNL     1     -33.539  27.992   3.420  0.00  0.00    +0.209 C 
ATOM     18  C   UNL     1     -32.649  27.805   4.631  0.00  0.00    +0.051 C 
ENDBRANCH  16  17
ENDBRANCH  15  16
ENDBRANCH  11  15
ENDBRANCH   3  11
TORSDOF 7
ENDMDL
MODEL 7
REMARK VINA RESULT:      -4.7      1.434      3.138
REMARK  Name = 54704415
REMARK  7 active torsions:
REMARK  status: ('A' for Active; 'I' for Inactive)
REMARK    1  A    between atoms: C_3  and  C_11
REMARK    2  A    between atoms: C_4  and  O_7
REMARK    3  A    between atoms: C_5  and  O_9
REMARK    4  A    between atoms: C_11  and  O_12
REMARK    5  A    between atoms: C_11  and  C_15
REMARK    6  A    between atoms: C_15  and  O_16
REMARK    7  A    between atoms: O_16  and  C_17
REMARK                            x       y       z     vdW  Elec       q    Type
REMARK                         _______ _______ _______ _____ _____    ______ ____
ROOT
ATOM      1  O   UNL     1     -33.391  25.069   4.471  0.00  0.00    -0.436 OA
ATOM      2  O   UNL     1     -32.748  26.668   2.941  0.00  0.00    -0.241 OA
ATOM      3  C   UNL     1     -34.567  24.828   5.272  0.00  0.00    +0.265 C 
ATOM      4  C   UNL     1     -35.441  25.965   4.923  0.00  0.00    +0.195 C 
ATOM      5  C   UNL     1     -34.874  26.770   4.030  0.00  0.00    +0.244 C 
ATOM      6  C   UNL     1     -33.558  26.204   3.723  0.00  0.00    +0.379 C 
ENDROOT
BRANCH   4   7
ATOM      7  O   UNL     1     -36.664  26.140   5.501  0.00  0.00    -0.504 OA
ATOM      8  H   UNL     1     -36.858  25.729   6.320  0.00  0.00    +0.292 HD
ENDBRANCH   4   7
BRANCH   5   9
ATOM      9  O   UNL     1     -35.369  27.909   3.485  0.00  0.00    -0.499 OA
ATOM     10  H   UNL     1     -36.212  27.905   3.076  0.00  0.00    +0.293 HD
ENDBRANCH   5   9
BRANCH   3  11
ATOM     11  C   UNL     1     -35.140  23.470   4.899  0.00  0.00    +0.258 C 
BRANCH  11  12
ATOM     12  O   UNL     1     -36.051  23.083   5.915  0.00  0.00    -0.371 OA
ATOM     13  H   UNL     1     -35.675  23.292   6.784  0.00  0.00    +0.211 HD
ENDBRANCH  11  12
BRANCH  11  15
ATOM     14  O   UNL     1     -35.337  23.543   2.480  0.00  0.00    -0.247 OA
ATOM     15  C   UNL     1     -35.879  23.528   3.578  0.00  0.00    +0.348 C 
BRANCH  15  16
ATOM     16  O   UNL     1     -37.224  23.588   3.806  0.00  0.00    -0.447 OA
BRANCH  16  17
ATOM     17  C   UNL     1     -38.010  24.098   2.724  0.00  0.00    +0.209 C 
ATOM     18  C   UNL     1     -39.203  24.840   3.289  0.00  0.00    +0.051 C 
ENDBRANCH  16  17
ENDBRANCH  15  16
ENDBRANCH  11  15
ENDBRANCH   3  11
TORSDOF 7
ENDMDL
MODEL 8
REMARK VINA RESULT:      -4.7      1.920      3.229
REMARK  Name = 54704415
REMARK  7 active torsions:
REMARK  status: ('A' for Active; 'I' for Inactive)
REMARK    1  A    between atoms: C_3  and  C_11
REMARK    2  A    between atoms: C_4  and  O_7
REMARK    3  A    between atoms: C_5  and  O_9
REMARK    4  A    between atoms: C_11  and  O_12
REMARK    5  A    between atoms: C_11  and  C_15
REMARK    6  A    between atoms: C_15  and  O_16
REMARK    7  A    between atoms: O_16  and  C_17
REMARK                            x       y       z     vdW  Elec       q    Type
REMARK                         _______ _______ _______ _____ _____    ______ ____
ROOT
ATOM      1  O   UNL     1     -33.938  24.389   4.702  0.00  0.00    -0.436 OA
ATOM      2  O   UNL     1     -32.747  25.661   3.193  0.00  0.00    -0.241 OA
ATOM      3  C   UNL     1     -35.138  24.575   5.480  0.00  0.00    +0.265 C 
ATOM      4  C   UNL     1     -35.553  25.946   5.121  0.00  0.00    +0.195 C 
ATOM      5  C   UNL     1     -34.723  26.500   4.244  0.00  0.00    +0.244 C 
ATOM      6  C   UNL     1     -33.682  25.510   3.958  0.00  0.00    +0.379 C 
ENDROOT
BRANCH   4   7
ATOM      7  O   UNL     1     -36.649  26.538   5.678  0.00  0.00    -0.504 OA
ATOM      8  H   UNL     1     -37.255  26.026   6.176  0.00  0.00    +0.292 HD
ENDBRANCH   4   7
BRANCH   5   9
ATOM      9  O   UNL     1     -34.778  27.741   3.697  0.00  0.00    -0.499 OA
ATOM     10  H   UNL     1     -34.489  28.484   4.190  0.00  0.00    +0.293 HD
ENDBRANCH   5   9
BRANCH   3  11
ATOM     11  C   UNL     1     -36.143  23.503   5.088  0.00  0.00    +0.258 C 
BRANCH  11  12
ATOM     12  O   UNL     1     -36.911  23.996   4.002  0.00  0.00    -0.371 OA
ATOM     13  H   UNL     1     -37.736  23.490   3.934  0.00  0.00    +0.211 HD
ENDBRANCH  11  12
BRANCH  11  15
ATOM     14  O   UNL     1     -34.944  21.419   5.422  0.00  0.00    -0.247 OA
ATOM     15  C   UNL     1     -35.449  22.228   4.655  0.00  0.00    +0.348 C 
BRANCH  15  16
ATOM     16  O   UNL     1     -35.452  22.143   3.292  0.00  0.00    -0.447 OA
BRANCH  16  17
ATOM     17  C   UNL     1     -35.910  20.898   2.754  0.00  0.00    +0.209 C 
ATOM     18  C   UNL     1     -34.756  20.209   2.056  0.00  0.00    +0.051 C 
ENDBRANCH  16  17
ENDBRANCH  15  16
ENDBRANCH  11  15
ENDBRANCH   3  11
TORSDOF 7
ENDMDL
MODEL 9
REMARK VINA RESULT:      -4.7      2.773      5.508
REMARK  Name = 54704415
REMARK  7 active torsions:
REMARK  status: ('A' for Active; 'I' for Inactive)
REMARK    1  A    between atoms: C_3  and  C_11
REMARK    2  A    between atoms: C_4  and  O_7
REMARK    3  A    between atoms: C_5  and  O_9
REMARK    4  A    between atoms: C_11  and  O_12
REMARK    5  A    between atoms: C_11  and  C_15
REMARK    6  A    between atoms: C_15  and  O_16
REMARK    7  A    between atoms: O_16  and  C_17
REMARK                            x       y       z     vdW  Elec       q    Type
REMARK                         _______ _______ _______ _____ _____    ______ ____
ROOT
ATOM      1  O   UNL     1     -37.053  22.871   1.792  0.00  0.00    -0.436 OA
ATOM      2  O   UNL     1     -37.235  20.573   1.840  0.00  0.00    -0.241 OA
ATOM      3  C   UNL     1     -37.974  23.976   1.895  0.00  0.00    +0.265 C 
ATOM      4  C   UNL     1     -39.280  23.303   2.039  0.00  0.00    +0.195 C 
ATOM      5  C   UNL     1     -39.158  21.979   2.034  0.00  0.00    +0.244 C 
ATOM      6  C   UNL     1     -37.732  21.684   1.883  0.00  0.00    +0.379 C 
ENDROOT
BRANCH   4   7
ATOM      7  O   UNL     1     -40.447  24.004   2.131  0.00  0.00    -0.504 OA
ATOM      8  H   UNL     1     -41.259  23.550   2.242  0.00  0.00    +0.292 HD
ENDBRANCH   4   7
BRANCH   5   9
ATOM      9  O   UNL     1     -40.133  21.041   2.134  0.00  0.00    -0.499 OA
ATOM     10  H   UNL     1     -40.846  21.168   2.730  0.00  0.00    +0.293 HD
ENDBRANCH   5   9
BRANCH   3  11
ATOM     11  C   UNL     1     -37.582  24.826   3.092  0.00  0.00    +0.258 C 
BRANCH  11  12
ATOM     12  O   UNL     1     -38.611  24.722   4.063  0.00  0.00    -0.371 OA
ATOM     13  H   UNL     1     -39.005  25.595   4.212  0.00  0.00    +0.211 HD
ENDBRANCH  11  12
BRANCH  11  15
ATOM     14  O   UNL     1     -35.169  24.682   3.322  0.00  0.00    -0.247 OA
ATOM     15  C   UNL     1     -36.282  24.348   3.707  0.00  0.00    +0.348 C 
BRANCH  15  16
ATOM     16  O   UNL     1     -36.548  23.477   4.724  0.00  0.00    -0.447 OA
BRANCH  16  17
ATOM     17  C   UNL     1     -35.590  22.429   4.903  0.00  0.00    +0.209 C 
ATOM     18  C   UNL     1     -35.418  22.166   6.385  0.00  0.00    +0.051 C 
ENDBRANCH  16  17
ENDBRANCH  15  16
ENDBRANCH  11  15
ENDBRANCH   3  11
TORSDOF 7
ENDMDL
