MODEL 1
REMARK VINA RESULT:      -5.8      0.000      0.000
REMARK  Name = 53787474
REMARK  6 active torsions:
REMARK  status: ('A' for Active; 'I' for Inactive)
REMARK    1  A    between atoms: C_2  and  C_10
REMARK    2  A    between atoms: C_3  and  C_14
REMARK    3  A    between atoms: CA_5  and  C_18
REMARK    4  A    between atoms: C_10  and  O_11
REMARK    5  A    between atoms: C_14  and  O_15
REMARK    6  A    between atoms: C_18  and  O_19
REMARK                            x       y       z     vdW  Elec       q    Type
REMARK                         _______ _______ _______ _____ _____    ______ ____
ROOT
ATOM      1  N   UNL     1     -36.220  24.898   2.937  0.00  0.00    +0.392 N 
ATOM      2  C   UNL     1     -35.184  22.690   4.563  0.00  0.00    +0.106 C 
ATOM      3  C   UNL     1     -36.231  22.470   3.464  0.00  0.00    +0.088 C 
ATOM      4  C   UNL     1     -35.216  24.138   5.060  0.00  0.00    +0.001 C 
ATOM      5  CA  UNL     1     -35.146  25.130   3.901  0.00  0.00    +0.040 C 
ATOM      6  C   UNL     1     -36.138  23.549   2.378  0.00  0.00    -0.069 C 
ATOM      7  H1  UNL     1     -36.144  25.578   2.181  0.00  0.00    -0.084 HD
ATOM      8  H2  UNL     1     -37.115  24.997   3.416  0.00  0.00    -0.084 HD
ENDROOT
BRANCH   2  10
ATOM      9  O   UNL     1     -36.151  22.075   6.694  0.00  0.00    -0.250 OA
ATOM     10  C   UNL     1     -35.455  21.788   5.732  0.00  0.00    +0.314 C 
BRANCH  10  11
ATOM     11  O   UNL     1     -34.815  20.603   5.579  0.00  0.00    -0.480 OA
ATOM     12  H   UNL     1     -34.215  20.305   6.233  0.00  0.00    +0.295 HD
ENDBRANCH  10  11
ENDBRANCH   2  10
BRANCH   3  14
ATOM     13  O   UNL     1     -34.936  20.670   2.496  0.00  0.00    -0.250 OA
ATOM     14  C   UNL     1     -36.021  21.137   2.808  0.00  0.00    +0.312 C 
BRANCH  14  15
ATOM     15  O   UNL     1     -37.207  20.513   2.601  0.00  0.00    -0.480 OA
ATOM     16  H   UNL     1     -37.276  19.587   2.728  0.00  0.00    +0.295 HD
ENDBRANCH  14  15
ENDBRANCH   3  14
BRANCH   5  18
ATOM     17  OXT UNL     1     -34.623  27.477   4.130  0.00  0.00    -0.253 OA
ATOM     18  C   UNL     1     -35.334  26.524   4.411  0.00  0.00    +0.293 C 
BRANCH  18  19
ATOM     19  O   UNL     1     -36.408  26.590   5.237  0.00  0.00    -0.482 OA
ATOM     20  H   UNL     1     -36.296  26.476   6.160  0.00  0.00    +0.295 HD
ENDBRANCH  18  19
ENDBRANCH   5  18
TORSDOF 6
ENDMDL
MODEL 2
REMARK VINA RESULT:      -5.5      1.471      2.082
REMARK  Name = 53787474
REMARK  6 active torsions:
REMARK  status: ('A' for Active; 'I' for Inactive)
REMARK    1  A    between atoms: C_2  and  C_10
REMARK    2  A    between atoms: C_3  and  C_14
REMARK    3  A    between atoms: CA_5  and  C_18
REMARK    4  A    between atoms: C_10  and  O_11
REMARK    5  A    between atoms: C_14  and  O_15
REMARK    6  A    between atoms: C_18  and  O_19
REMARK                            x       y       z     vdW  Elec       q    Type
REMARK                         _______ _______ _______ _____ _____    ______ ____
ROOT
ATOM      1  N   UNL     1     -37.445  24.897   4.132  0.00  0.00    +0.392 N 
ATOM      2  C   UNL     1     -35.895  22.577   3.233  0.00  0.00    +0.106 C 
ATOM      3  C   UNL     1     -37.425  22.625   3.127  0.00  0.00    +0.088 C 
ATOM      4  C   UNL     1     -35.397  23.531   4.322  0.00  0.00    +0.001 C 
ATOM      5  CA  UNL     1     -35.984  24.931   4.151  0.00  0.00    +0.040 C 
ATOM      6  C   UNL     1     -37.935  24.068   3.031  0.00  0.00    -0.069 C 
ATOM      7  H1  UNL     1     -37.801  25.846   4.020  0.00  0.00    -0.084 HD
ATOM      8  H2  UNL     1     -37.773  24.496   5.011  0.00  0.00    -0.084 HD
ENDROOT
BRANCH   2  10
ATOM      9  O   UNL     1     -35.081  20.345   2.776  0.00  0.00    -0.250 OA
ATOM     10  C   UNL     1     -35.438  21.190   3.582  0.00  0.00    +0.314 C 
BRANCH  10  11
ATOM     11  O   UNL     1     -35.478  20.998   4.924  0.00  0.00    -0.480 OA
ATOM     12  H   UNL     1     -35.782  20.183   5.272  0.00  0.00    +0.295 HD
ENDBRANCH  10  11
ENDBRANCH   2  10
BRANCH   3  14
ATOM     13  O   UNL     1     -37.476  22.098   0.767  0.00  0.00    -0.250 OA
ATOM     14  C   UNL     1     -37.883  21.892   1.900  0.00  0.00    +0.312 C 
BRANCH  14  15
ATOM     15  O   UNL     1     -38.819  20.965   2.218  0.00  0.00    -0.480 OA
ATOM     16  H   UNL     1     -39.613  20.913   1.722  0.00  0.00    +0.295 HD
ENDBRANCH  14  15
ENDBRANCH   3  14
BRANCH   5  18
ATOM     17  OXT UNL     1     -34.529  25.741   5.900  0.00  0.00    -0.253 OA
ATOM     18  C   UNL     1     -35.599  25.791   5.313  0.00  0.00    +0.293 C 
BRANCH  18  19
ATOM     19  O   UNL     1     -36.606  26.640   5.634  0.00  0.00    -0.482 OA
ATOM     20  H   UNL     1     -37.069  27.095   4.958  0.00  0.00    +0.295 HD
ENDBRANCH  18  19
ENDBRANCH   5  18
TORSDOF 6
ENDMDL
MODEL 3
REMARK VINA RESULT:      -5.4      1.946      5.179
REMARK  Name = 53787474
REMARK  6 active torsions:
REMARK  status: ('A' for Active; 'I' for Inactive)
REMARK    1  A    between atoms: C_2  and  C_10
REMARK    2  A    between atoms: C_3  and  C_14
REMARK    3  A    between atoms: CA_5  and  C_18
REMARK    4  A    between atoms: C_10  and  O_11
REMARK    5  A    between atoms: C_14  and  O_15
REMARK    6  A    between atoms: C_18  and  O_19
REMARK                            x       y       z     vdW  Elec       q    Type
REMARK                         _______ _______ _______ _____ _____    ______ ____
ROOT
ATOM      1  N   UNL     1     -35.458  22.035   4.640  0.00  0.00    +0.392 N 
ATOM      2  C   UNL     1     -36.473  24.530   3.484  0.00  0.00    +0.106 C 
ATOM      3  C   UNL     1     -36.180  24.387   4.983  0.00  0.00    +0.088 C 
ATOM      4  C   UNL     1     -36.731  23.161   2.849  0.00  0.00    +0.001 C 
ATOM      5  CA  UNL     1     -35.624  22.166   3.193  0.00  0.00    +0.040 C 
ATOM      6  C   UNL     1     -35.111  23.320   5.245  0.00  0.00    -0.069 C 
ATOM      7  H1  UNL     1     -34.715  21.363   4.832  0.00  0.00    -0.084 HD
ATOM      8  H2  UNL     1     -36.340  21.715   5.041  0.00  0.00    -0.084 HD
ENDROOT
BRANCH   2  10
ATOM      9  O   UNL     1     -37.732  26.379   2.562  0.00  0.00    -0.250 OA
ATOM     10  C   UNL     1     -37.689  25.382   3.267  0.00  0.00    +0.314 C 
BRANCH  10  11
ATOM     11  O   UNL     1     -38.743  24.897   3.969  0.00  0.00    -0.480 OA
ATOM     12  H   UNL     1     -39.485  25.443   4.139  0.00  0.00    +0.295 HD
ENDBRANCH  10  11
ENDBRANCH   2  10
BRANCH   3  14
ATOM     13  O   UNL     1     -34.536  25.895   5.919  0.00  0.00    -0.250 OA
ATOM     14  C   UNL     1     -35.679  25.687   5.540  0.00  0.00    +0.312 C 
BRANCH  14  15
ATOM     15  O   UNL     1     -36.672  26.609   5.570  0.00  0.00    -0.480 OA
ATOM     16  H   UNL     1     -36.666  27.324   4.965  0.00  0.00    +0.295 HD
ENDBRANCH  14  15
ENDBRANCH   3  14
BRANCH   5  18
ATOM     17  OXT UNL     1     -35.186  19.927   2.401  0.00  0.00    -0.253 OA
ATOM     18  C   UNL     1     -35.985  20.806   2.687  0.00  0.00    +0.293 C 
BRANCH  18  19
ATOM     19  O   UNL     1     -37.331  20.676   2.583  0.00  0.00    -0.482 OA
ATOM     20  H   UNL     1     -37.890  21.075   3.221  0.00  0.00    +0.295 HD
ENDBRANCH  18  19
ENDBRANCH   5  18
TORSDOF 6
ENDMDL
MODEL 4
REMARK VINA RESULT:      -5.4      2.057      2.575
REMARK  Name = 53787474
REMARK  6 active torsions:
REMARK  status: ('A' for Active; 'I' for Inactive)
REMARK    1  A    between atoms: C_2  and  C_10
REMARK    2  A    between atoms: C_3  and  C_14
REMARK    3  A    between atoms: CA_5  and  C_18
REMARK    4  A    between atoms: C_10  and  O_11
REMARK    5  A    between atoms: C_14  and  O_15
REMARK    6  A    between atoms: C_18  and  O_19
REMARK                            x       y       z     vdW  Elec       q    Type
REMARK                         _______ _______ _______ _____ _____    ______ ____
ROOT
ATOM      1  N   UNL     1     -35.537  26.780   4.612  0.00  0.00    +0.392 N 
ATOM      2  C   UNL     1     -35.435  23.858   4.402  0.00  0.00    +0.106 C 
ATOM      3  C   UNL     1     -36.743  24.642   4.235  0.00  0.00    +0.088 C 
ATOM      4  C   UNL     1     -34.422  24.663   5.221  0.00  0.00    +0.001 C 
ATOM      5  CA  UNL     1     -34.255  26.078   4.671  0.00  0.00    +0.040 C 
ATOM      6  C   UNL     1     -36.481  26.072   3.749  0.00  0.00    -0.069 C 
ATOM      7  H1  UNL     1     -35.387  27.719   4.244  0.00  0.00    -0.084 HD
ATOM      8  H2  UNL     1     -35.927  26.824   5.553  0.00  0.00    -0.084 HD
ENDROOT
BRANCH   2  10
ATOM      9  O   UNL     1     -35.949  22.454   6.304  0.00  0.00    -0.250 OA
ATOM     10  C   UNL     1     -35.688  22.562   5.115  0.00  0.00    +0.314 C 
BRANCH  10  11
ATOM     11  O   UNL     1     -35.585  21.517   4.258  0.00  0.00    -0.480 OA
ATOM     12  H   UNL     1     -35.292  20.683   4.567  0.00  0.00    +0.295 HD
ENDBRANCH  10  11
ENDBRANCH   2  10
BRANCH   3  14
ATOM     13  O   UNL     1     -37.233  23.267   2.305  0.00  0.00    -0.250 OA
ATOM     14  C   UNL     1     -37.626  23.967   3.226  0.00  0.00    +0.312 C 
BRANCH  14  15
ATOM     15  O   UNL     1     -38.931  24.242   3.472  0.00  0.00    -0.480 OA
ATOM     16  H   UNL     1     -39.521  24.383   2.758  0.00  0.00    +0.295 HD
ENDBRANCH  14  15
ENDBRANCH   3  14
BRANCH   5  18
ATOM     17  OXT UNL     1     -33.039  26.541   6.706  0.00  0.00    -0.253 OA
ATOM     18  C   UNL     1     -33.380  26.879   5.582  0.00  0.00    +0.293 C 
BRANCH  18  19
ATOM     19  O   UNL     1     -33.011  28.042   4.991  0.00  0.00    -0.482 OA
ATOM     20  H   UNL     1     -32.895  28.079   4.062  0.00  0.00    +0.295 HD
ENDBRANCH  18  19
ENDBRANCH   5  18
TORSDOF 6
ENDMDL
MODEL 5
REMARK VINA RESULT:      -5.2      1.818      4.843
REMARK  Name = 53787474
REMARK  6 active torsions:
REMARK  status: ('A' for Active; 'I' for Inactive)
REMARK    1  A    between atoms: C_2  and  C_10
REMARK    2  A    between atoms: C_3  and  C_14
REMARK    3  A    between atoms: CA_5  and  C_18
REMARK    4  A    between atoms: C_10  and  O_11
REMARK    5  A    between atoms: C_14  and  O_15
REMARK    6  A    between atoms: C_18  and  O_19
REMARK                            x       y       z     vdW  Elec       q    Type
REMARK                         _______ _______ _______ _____ _____    ______ ____
ROOT
ATOM      1  N   UNL     1     -36.811  22.681   3.635  0.00  0.00    +0.392 N 
ATOM      2  C   UNL     1     -35.799  25.367   4.230  0.00  0.00    +0.106 C 
ATOM      3  C   UNL     1     -36.707  25.086   3.025  0.00  0.00    +0.088 C 
ATOM      4  C   UNL     1     -35.069  24.094   4.665  0.00  0.00    +0.001 C 
ATOM      5  CA  UNL     1     -36.037  22.927   4.850  0.00  0.00    +0.040 C 
ATOM      6  C   UNL     1     -37.594  23.859   3.266  0.00  0.00    -0.069 C 
ATOM      7  H1  UNL     1     -37.443  21.896   3.794  0.00  0.00    -0.084 HD
ATOM      8  H2  UNL     1     -36.165  22.469   2.875  0.00  0.00    -0.084 HD
ENDROOT
BRANCH   2  10
ATOM      9  O   UNL     1     -33.648  26.161   3.459  0.00  0.00    -0.250 OA
ATOM     10  C   UNL     1     -34.769  26.401   3.880  0.00  0.00    +0.314 C 
BRANCH  10  11
ATOM     11  O   UNL     1     -35.253  27.649   4.098  0.00  0.00    -0.480 OA
ATOM     12  H   UNL     1     -35.691  27.848   4.901  0.00  0.00    +0.295 HD
ENDBRANCH  10  11
ENDBRANCH   2  10
BRANCH   3  14
ATOM     13  O   UNL     1     -37.442  27.091   1.887  0.00  0.00    -0.250 OA
ATOM     14  C   UNL     1     -37.606  26.261   2.769  0.00  0.00    +0.312 C 
BRANCH  14  15
ATOM     15  O   UNL     1     -38.632  26.281   3.655  0.00  0.00    -0.480 OA
ATOM     16  H   UNL     1     -38.738  25.577   4.263  0.00  0.00    +0.295 HD
ENDBRANCH  14  15
ENDBRANCH   3  14
BRANCH   5  18
ATOM     17  OXT UNL     1     -35.126  20.751   4.333  0.00  0.00    -0.253 OA
ATOM     18  C   UNL     1     -35.274  21.670   5.124  0.00  0.00    +0.293 C 
BRANCH  18  19
ATOM     19  O   UNL     1     -34.764  21.684   6.381  0.00  0.00    -0.482 OA
ATOM     20  H   UNL     1     -33.837  21.655   6.510  0.00  0.00    +0.295 HD
ENDBRANCH  18  19
ENDBRANCH   5  18
TORSDOF 6
ENDMDL
MODEL 6
REMARK VINA RESULT:      -5.2      1.230      2.997
REMARK  Name = 53787474
REMARK  6 active torsions:
REMARK  status: ('A' for Active; 'I' for Inactive)
REMARK    1  A    between atoms: C_2  and  C_10
REMARK    2  A    between atoms: C_3  and  C_14
REMARK    3  A    between atoms: CA_5  and  C_18
REMARK    4  A    between atoms: C_10  and  O_11
REMARK    5  A    between atoms: C_14  and  O_15
REMARK    6  A    between atoms: C_18  and  O_19
REMARK                            x       y       z     vdW  Elec       q    Type
REMARK                         _______ _______ _______ _____ _____    ______ ____
ROOT
ATOM      1  N   UNL     1     -34.459  25.355   4.621  0.00  0.00    +0.392 N 
ATOM      2  C   UNL     1     -36.323  23.253   3.787  0.00  0.00    +0.106 C 
ATOM      3  C   UNL     1     -35.132  22.966   4.711  0.00  0.00    +0.088 C 
ATOM      4  C   UNL     1     -36.071  24.511   2.953  0.00  0.00    +0.001 C 
ATOM      5  CA  UNL     1     -35.641  25.687   3.828  0.00  0.00    +0.040 C 
ATOM      6  C   UNL     1     -34.721  24.216   5.499  0.00  0.00    -0.069 C 
ATOM      7  H1  UNL     1     -34.199  26.162   5.189  0.00  0.00    -0.084 HD
ATOM      8  H2  UNL     1     -33.700  25.108   3.986  0.00  0.00    -0.084 HD
ENDROOT
BRANCH   2  10
ATOM      9  O   UNL     1     -35.660  21.484   2.276  0.00  0.00    -0.250 OA
ATOM     10  C   UNL     1     -36.544  22.104   2.847  0.00  0.00    +0.314 C 
BRANCH  10  11
ATOM     11  O   UNL     1     -37.869  21.846   2.711  0.00  0.00    -0.480 OA
ATOM     12  H   UNL     1     -38.318  21.345   3.361  0.00  0.00    +0.295 HD
ENDBRANCH  10  11
ENDBRANCH   2  10
BRANCH   3  14
ATOM     13  O   UNL     1     -36.105  22.077   6.740  0.00  0.00    -0.250 OA
ATOM     14  C   UNL     1     -35.489  21.896   5.700  0.00  0.00    +0.312 C 
BRANCH  14  15
ATOM     15  O   UNL     1     -35.032  20.689   5.285  0.00  0.00    -0.480 OA
ATOM     16  H   UNL     1     -34.567  20.135   5.882  0.00  0.00    +0.295 HD
ENDBRANCH  14  15
ENDBRANCH   3  14
BRANCH   5  18
ATOM     17  OXT UNL     1     -34.945  26.777   1.788  0.00  0.00    -0.253 OA
ATOM     18  C   UNL     1     -35.257  26.849   2.967  0.00  0.00    +0.293 C 
BRANCH  18  19
ATOM     19  O   UNL     1     -35.299  28.004   3.676  0.00  0.00    -0.482 OA
ATOM     20  H   UNL     1     -34.725  28.127   4.406  0.00  0.00    +0.295 HD
ENDBRANCH  18  19
ENDBRANCH   5  18
TORSDOF 6
ENDMDL
MODEL 7
REMARK VINA RESULT:      -5.1      1.875      4.820
REMARK  Name = 53787474
REMARK  6 active torsions:
REMARK  status: ('A' for Active; 'I' for Inactive)
REMARK    1  A    between atoms: C_2  and  C_10
REMARK    2  A    between atoms: C_3  and  C_14
REMARK    3  A    between atoms: CA_5  and  C_18
REMARK    4  A    between atoms: C_10  and  O_11
REMARK    5  A    between atoms: C_14  and  O_15
REMARK    6  A    between atoms: C_18  and  O_19
REMARK                            x       y       z     vdW  Elec       q    Type
REMARK                         _______ _______ _______ _____ _____    ______ ____
ROOT
ATOM      1  N   UNL     1     -36.577  22.855   1.983  0.00  0.00    +0.392 N 
ATOM      2  C   UNL     1     -36.604  24.906   4.077  0.00  0.00    +0.106 C 
ATOM      3  C   UNL     1     -36.829  25.248   2.599  0.00  0.00    +0.088 C 
ATOM      4  C   UNL     1     -35.830  23.593   4.217  0.00  0.00    +0.001 C 
ATOM      5  CA  UNL     1     -36.466  22.476   3.390  0.00  0.00    +0.040 C 
ATOM      6  C   UNL     1     -37.402  24.053   1.828  0.00  0.00    -0.069 C 
ATOM      7  H1  UNL     1     -37.002  22.087   1.463  0.00  0.00    -0.084 HD
ATOM      8  H2  UNL     1     -35.644  23.055   1.624  0.00  0.00    -0.084 HD
ENDROOT
BRANCH   2  10
ATOM      9  O   UNL     1     -34.633  26.228   4.546  0.00  0.00    -0.250 OA
ATOM     10  C   UNL     1     -35.813  25.989   4.751  0.00  0.00    +0.314 C 
BRANCH  10  11
ATOM     11  O   UNL     1     -36.590  26.673   5.628  0.00  0.00    -0.480 OA
ATOM     12  H   UNL     1     -37.187  27.324   5.317  0.00  0.00    +0.295 HD
ENDBRANCH  10  11
ENDBRANCH   2  10
BRANCH   3  14
ATOM     13  O   UNL     1     -37.746  27.265   1.626  0.00  0.00    -0.250 OA
ATOM     14  C   UNL     1     -37.801  26.385   2.472  0.00  0.00    +0.312 C 
BRANCH  14  15
ATOM     15  O   UNL     1     -38.754  26.310   3.433  0.00  0.00    -0.480 OA
ATOM     16  H   UNL     1     -39.028  25.474   3.755  0.00  0.00    +0.295 HD
ENDBRANCH  14  15
ENDBRANCH   3  14
BRANCH   5  18
ATOM     17  OXT UNL     1     -35.164  20.673   2.449  0.00  0.00    -0.253 OA
ATOM     18  C   UNL     1     -35.600  21.257   3.429  0.00  0.00    +0.293 C 
BRANCH  18  19
ATOM     19  O   UNL     1     -35.361  20.881   4.710  0.00  0.00    -0.482 OA
ATOM     20  H   UNL     1     -34.909  20.079   4.886  0.00  0.00    +0.295 HD
ENDBRANCH  18  19
ENDBRANCH   5  18
TORSDOF 6
ENDMDL
MODEL 8
REMARK VINA RESULT:      -5.0      1.678      3.124
REMARK  Name = 53787474
REMARK  6 active torsions:
REMARK  status: ('A' for Active; 'I' for Inactive)
REMARK    1  A    between atoms: C_2  and  C_10
REMARK    2  A    between atoms: C_3  and  C_14
REMARK    3  A    between atoms: CA_5  and  C_18
REMARK    4  A    between atoms: C_10  and  O_11
REMARK    5  A    between atoms: C_14  and  O_15
REMARK    6  A    between atoms: C_18  and  O_19
REMARK                            x       y       z     vdW  Elec       q    Type
REMARK                         _______ _______ _______ _____ _____    ______ ____
ROOT
ATOM      1  N   UNL     1     -36.254  25.242   4.333  0.00  0.00    +0.392 N 
ATOM      2  C   UNL     1     -36.755  22.533   3.330  0.00  0.00    +0.106 C 
ATOM      3  C   UNL     1     -35.651  22.832   4.352  0.00  0.00    +0.088 C 
ATOM      4  C   UNL     1     -37.103  23.789   2.526  0.00  0.00    +0.001 C 
ATOM      5  CA  UNL     1     -37.383  24.980   3.441  0.00  0.00    +0.040 C 
ATOM      6  C   UNL     1     -35.976  24.082   5.179  0.00  0.00    -0.069 C 
ATOM      7  H1  UNL     1     -36.474  26.042   4.925  0.00  0.00    -0.084 HD
ATOM      8  H2  UNL     1     -35.429  25.435   3.765  0.00  0.00    -0.084 HD
ENDROOT
BRANCH   2  10
ATOM      9  O   UNL     1     -35.436  21.616   1.521  0.00  0.00    -0.250 OA
ATOM     10  C   UNL     1     -36.305  21.473   2.368  0.00  0.00    +0.314 C 
BRANCH  10  11
ATOM     11  O   UNL     1     -36.999  20.324   2.564  0.00  0.00    -0.480 OA
ATOM     12  H   UNL     1     -36.621  19.627   3.061  0.00  0.00    +0.295 HD
ENDBRANCH  10  11
ENDBRANCH   2  10
BRANCH   3  14
ATOM     13  O   UNL     1     -34.940  20.624   5.040  0.00  0.00    -0.250 OA
ATOM     14  C   UNL     1     -35.498  21.680   5.301  0.00  0.00    +0.312 C 
BRANCH  14  15
ATOM     15  O   UNL     1     -36.067  21.965   6.498  0.00  0.00    -0.480 OA
ATOM     16  H   UNL     1     -36.494  21.288   6.986  0.00  0.00    +0.295 HD
ENDBRANCH  14  15
ENDBRANCH   3  14
BRANCH   5  18
ATOM     17  OXT UNL     1     -36.686  26.781   1.990  0.00  0.00    -0.253 OA
ATOM     18  C   UNL     1     -37.567  26.219   2.623  0.00  0.00    +0.293 C 
BRANCH  18  19
ATOM     19  O   UNL     1     -38.855  26.641   2.678  0.00  0.00    -0.482 OA
ATOM     20  H   UNL     1     -39.049  27.517   2.950  0.00  0.00    +0.295 HD
ENDBRANCH  18  19
ENDBRANCH   5  18
TORSDOF 6
ENDMDL
MODEL 9
REMARK VINA RESULT:      -4.9      2.496      2.941
REMARK  Name = 53787474
REMARK  6 active torsions:
REMARK  status: ('A' for Active; 'I' for Inactive)
REMARK    1  A    between atoms: C_2  and  C_10
REMARK    2  A    between atoms: C_3  and  C_14
REMARK    3  A    between atoms: CA_5  and  C_18
REMARK    4  A    between atoms: C_10  and  O_11
REMARK    5  A    between atoms: C_14  and  O_15
REMARK    6  A    between atoms: C_18  and  O_19
REMARK                            x       y       z     vdW  Elec       q    Type
REMARK                         _______ _______ _______ _____ _____    ______ ____
ROOT
ATOM      1  N   UNL     1     -38.829  23.443   2.526  0.00  0.00    +0.392 N 
ATOM      2  C   UNL     1     -36.190  23.824   3.745  0.00  0.00    +0.106 C 
ATOM      3  C   UNL     1     -36.725  22.434   3.379  0.00  0.00    +0.088 C 
ATOM      4  C   UNL     1     -37.342  24.813   3.943  0.00  0.00    +0.001 C 
ATOM      5  CA  UNL     1     -38.310  24.790   2.762  0.00  0.00    +0.040 C 
ATOM      6  C   UNL     1     -37.742  22.509   2.234  0.00  0.00    -0.069 C 
ATOM      7  H1  UNL     1     -39.472  23.466   1.734  0.00  0.00    -0.084 HD
ATOM      8  H2  UNL     1     -39.311  23.128   3.367  0.00  0.00    -0.084 HD
ENDROOT
BRANCH   2  10
ATOM      9  O   UNL     1     -34.390  24.406   5.253  0.00  0.00    -0.250 OA
ATOM     10  C   UNL     1     -35.402  23.762   5.021  0.00  0.00    +0.314 C 
BRANCH  10  11
ATOM     11  O   UNL     1     -35.966  22.886   5.888  0.00  0.00    -0.480 OA
ATOM     12  H   UNL     1     -36.238  23.175   6.736  0.00  0.00    +0.295 HD
ENDBRANCH  10  11
ENDBRANCH   2  10
BRANCH   3  14
ATOM     13  O   UNL     1     -34.952  21.689   1.911  0.00  0.00    -0.250 OA
ATOM     14  C   UNL     1     -35.600  21.545   2.937  0.00  0.00    +0.312 C 
BRANCH  14  15
ATOM     15  O   UNL     1     -35.396  20.549   3.834  0.00  0.00    -0.480 OA
ATOM     16  H   UNL     1     -36.098  20.264   4.384  0.00  0.00    +0.295 HD
ENDBRANCH  14  15
ENDBRANCH   3  14
BRANCH   5  18
ATOM     17  OXT UNL     1     -39.820  26.645   2.426  0.00  0.00    -0.253 OA
ATOM     18  C   UNL     1     -39.497  25.651   3.059  0.00  0.00    +0.293 C 
BRANCH  18  19
ATOM     19  O   UNL     1     -40.174  25.178   4.134  0.00  0.00    -0.482 OA
ATOM     20  H   UNL     1     -39.963  25.487   4.993  0.00  0.00    +0.295 HD
ENDBRANCH  18  19
ENDBRANCH   5  18
TORSDOF 6
ENDMDL
