MODEL 1
REMARK VINA RESULT:      -7.6      0.000      0.000
REMARK  Name = 216283
REMARK  8 active torsions:
REMARK  status: ('A' for Active; 'I' for Inactive)
REMARK    1  A    between atoms: C_1  and  C_7
REMARK    2  A    between atoms: C_1  and  O_18
REMARK    3  A    between atoms: O_18  and  C_20
REMARK    4  A    between atoms: C_21  and  O_25
REMARK    5  A    between atoms: C_22  and  O_27
REMARK    6  A    between atoms: C_23  and  O_29
REMARK    7  A    between atoms: C_24  and  C_31
REMARK    8  A    between atoms: C_31  and  O_32
REMARK                            x       y       z     vdW  Elec       q    Type
REMARK                         _______ _______ _______ _____ _____    ______ ____
ROOT
ATOM      1  C   UNL     1     -36.797  21.503   0.917  0.00  0.00    +0.132 C 
ATOM      2  C   UNL     1     -37.489  20.157   0.688  0.00  0.00    +0.033 C 
ATOM      3  C   UNL     1     -36.896  22.370  -0.339  0.00  0.00    +0.033 C 
ENDROOT
BRANCH   1   7
ATOM      4  O   UNL     1     -35.116  19.903   1.599  0.00  0.00    -0.477 OA
ATOM      5  O   UNL     1     -31.043  17.344   1.170  0.00  0.00    -0.421 OA
ATOM      6  O   UNL     1     -29.080  16.192   0.918  0.00  0.00    -0.244 OA
ATOM      7  C   UNL     1     -35.347  21.312   1.331  0.00  0.00    +0.195 C 
ATOM      8  C   UNL     1     -34.360  21.780   0.252  0.00  0.00    +0.075 C 
ATOM      9  C   UNL     1     -33.320  20.738   0.415  0.00  0.00    +0.016 C 
ATOM     10  C   UNL     1     -33.831  19.691   1.170  0.00  0.00    +0.138 C 
ATOM     11  C   UNL     1     -32.040  20.683  -0.114  0.00  0.00    +0.002 C 
ATOM     12  C   UNL     1     -33.098  18.551   1.430  0.00  0.00    +0.074 C 
ATOM     13  C   UNL     1     -31.267  19.546   0.142  0.00  0.00    +0.035 C 
ATOM     14  C   UNL     1     -31.806  18.501   0.906  0.00  0.00    +0.152 C 
ATOM     15  C   UNL     1     -29.913  19.407  -0.370  0.00  0.00    +0.010 C 
ATOM     16  C   UNL     1     -29.203  18.307  -0.112  0.00  0.00    +0.082 C 
ATOM     17  C   UNL     1     -29.747  17.195   0.691  0.00  0.00    +0.346 C 
ENDBRANCH   1   7
BRANCH   1  18
ATOM     18  O   UNL     1     -37.490  22.190   1.964  0.00  0.00    -0.330 OA
BRANCH  18  20
ATOM     19  O   UNL     1     -36.406  22.314   4.027  0.00  0.00    -0.326 OA
ATOM     20  C   UNL     1     -36.588  22.953   2.765  0.00  0.00    +0.266 C 
ATOM     21  C   UNL     1     -37.187  24.346   2.952  0.00  0.00    +0.196 C 
ATOM     22  C   UNL     1     -36.355  25.184   3.924  0.00  0.00    +0.172 C 
ATOM     23  C   UNL     1     -36.047  24.402   5.202  0.00  0.00    +0.169 C 
ATOM     24  C   UNL     1     -35.491  23.015   4.870  0.00  0.00    +0.176 C 
BRANCH  21  25
ATOM     25  O   UNL     1     -37.220  24.992   1.679  0.00  0.00    -0.378 OA
ATOM     26  H   UNL     1     -36.432  25.547   1.578  0.00  0.00    +0.211 HD
ENDBRANCH  21  25
BRANCH  22  27
ATOM     27  O   UNL     1     -37.087  26.355   4.289  0.00  0.00    -0.379 OA
ATOM     28  H   UNL     1     -36.486  27.116   4.315  0.00  0.00    +0.211 HD
ENDBRANCH  22  27
BRANCH  23  29
ATOM     29  O   UNL     1     -35.088  25.121   5.973  0.00  0.00    -0.379 OA
ATOM     30  H   UNL     1     -35.158  24.859   6.905  0.00  0.00    +0.211 HD
ENDBRANCH  23  29
BRANCH  24  31
ATOM     31  C   UNL     1     -35.285  22.174   6.125  0.00  0.00    +0.169 C 
BRANCH  31  32
ATOM     32  O   UNL     1     -35.420  20.808   5.779  0.00  0.00    -0.379 OA
ATOM     33  H   UNL     1     -34.572  20.355   5.914  0.00  0.00    +0.211 HD
ENDBRANCH  31  32
ENDBRANCH  24  31
ENDBRANCH  18  20
ENDBRANCH   1  18
TORSDOF 8
ENDMDL
MODEL 2
REMARK VINA RESULT:      -7.4      1.960      2.770
REMARK  Name = 216283
REMARK  8 active torsions:
REMARK  status: ('A' for Active; 'I' for Inactive)
REMARK    1  A    between atoms: C_1  and  C_7
REMARK    2  A    between atoms: C_1  and  O_18
REMARK    3  A    between atoms: O_18  and  C_20
REMARK    4  A    between atoms: C_21  and  O_25
REMARK    5  A    between atoms: C_22  and  O_27
REMARK    6  A    between atoms: C_23  and  O_29
REMARK    7  A    between atoms: C_24  and  C_31
REMARK    8  A    between atoms: C_31  and  O_32
REMARK                            x       y       z     vdW  Elec       q    Type
REMARK                         _______ _______ _______ _____ _____    ______ ____
ROOT
ATOM      1  C   UNL     1     -37.155  22.339   1.614  0.00  0.00    +0.132 C 
ATOM      2  C   UNL     1     -38.513  21.739   1.985  0.00  0.00    +0.033 C 
ATOM      3  C   UNL     1     -37.345  23.600   0.770  0.00  0.00    +0.033 C 
ENDROOT
BRANCH   1   7
ATOM      4  O   UNL     1     -35.115  22.003   0.359  0.00  0.00    -0.477 OA
ATOM      5  O   UNL     1     -30.691  20.252  -0.465  0.00  0.00    -0.421 OA
ATOM      6  O   UNL     1     -28.611  19.355  -0.806  0.00  0.00    -0.244 OA
ATOM      7  C   UNL     1     -36.287  21.325   0.886  0.00  0.00    +0.195 C 
ATOM      8  C   UNL     1     -35.827  20.180   1.800  0.00  0.00    +0.075 C 
ATOM      9  C   UNL     1     -34.460  19.985   1.265  0.00  0.00    +0.016 C 
ATOM     10  C   UNL     1     -34.114  21.073   0.476  0.00  0.00    +0.138 C 
ATOM     11  C   UNL     1     -33.561  18.958   1.505  0.00  0.00    +0.002 C 
ATOM     12  C   UNL     1     -32.867  21.188  -0.105  0.00  0.00    +0.074 C 
ATOM     13  C   UNL     1     -32.293  19.039   0.921  0.00  0.00    +0.035 C 
ATOM     14  C   UNL     1     -31.967  20.149   0.128  0.00  0.00    +0.152 C 
ATOM     15  C   UNL     1     -31.290  18.004   1.115  0.00  0.00    +0.010 C 
ATOM     16  C   UNL     1     -30.087  18.114   0.547  0.00  0.00    +0.082 C 
ATOM     17  C   UNL     1     -29.721  19.271  -0.291  0.00  0.00    +0.346 C 
ENDBRANCH   1   7
BRANCH   1  18
ATOM     18  O   UNL     1     -36.494  22.732   2.821  0.00  0.00    -0.330 OA
BRANCH  18  20
ATOM     19  O   UNL     1     -34.796  24.327   2.661  0.00  0.00    -0.326 OA
ATOM     20  C   UNL     1     -36.200  24.129   2.816  0.00  0.00    +0.266 C 
ATOM     21  C   UNL     1     -36.680  24.716   4.143  0.00  0.00    +0.196 C 
ATOM     22  C   UNL     1     -36.270  26.182   4.284  0.00  0.00    +0.172 C 
ATOM     23  C   UNL     1     -34.789  26.376   3.954  0.00  0.00    +0.169 C 
ATOM     24  C   UNL     1     -34.437  25.709   2.622  0.00  0.00    +0.176 C 
BRANCH  21  25
ATOM     25  O   UNL     1     -38.104  24.616   4.187  0.00  0.00    -0.378 OA
ATOM     26  H   UNL     1     -38.467  24.789   3.304  0.00  0.00    +0.211 HD
ENDBRANCH  21  25
BRANCH  22  27
ATOM     27  O   UNL     1     -36.481  26.607   5.631  0.00  0.00    -0.379 OA
ATOM     28  H   UNL     1     -36.191  25.909   6.239  0.00  0.00    +0.211 HD
ENDBRANCH  22  27
BRANCH  23  29
ATOM     29  O   UNL     1     -34.504  27.770   3.873  0.00  0.00    -0.379 OA
ATOM     30  H   UNL     1     -34.435  28.033   2.941  0.00  0.00    +0.211 HD
ENDBRANCH  23  29
BRANCH  24  31
ATOM     31  C   UNL     1     -32.944  25.788   2.328  0.00  0.00    +0.169 C 
BRANCH  31  32
ATOM     32  O   UNL     1     -32.278  26.243   3.493  0.00  0.00    -0.379 OA
ATOM     33  H   UNL     1     -31.348  25.970   3.461  0.00  0.00    +0.211 HD
ENDBRANCH  31  32
ENDBRANCH  24  31
ENDBRANCH  18  20
ENDBRANCH   1  18
TORSDOF 8
ENDMDL
MODEL 3
REMARK VINA RESULT:      -6.9      5.431      8.724
REMARK  Name = 216283
REMARK  8 active torsions:
REMARK  status: ('A' for Active; 'I' for Inactive)
REMARK    1  A    between atoms: C_1  and  C_7
REMARK    2  A    between atoms: C_1  and  O_18
REMARK    3  A    between atoms: O_18  and  C_20
REMARK    4  A    between atoms: C_21  and  O_25
REMARK    5  A    between atoms: C_22  and  O_27
REMARK    6  A    between atoms: C_23  and  O_29
REMARK    7  A    between atoms: C_24  and  C_31
REMARK    8  A    between atoms: C_31  and  O_32
REMARK                            x       y       z     vdW  Elec       q    Type
REMARK                         _______ _______ _______ _____ _____    ______ ____
ROOT
ATOM      1  C   UNL     1     -34.261  27.158   2.683  0.00  0.00    +0.132 C 
ATOM      2  C   UNL     1     -33.228  26.128   2.219  0.00  0.00    +0.033 C 
ATOM      3  C   UNL     1     -35.058  27.686   1.489  0.00  0.00    +0.033 C 
ENDROOT
BRANCH   1   7
ATOM      4  O   UNL     1     -33.181  27.815   4.744  0.00  0.00    -0.477 OA
ATOM      5  O   UNL     1     -29.515  29.301   7.515  0.00  0.00    -0.421 OA
ATOM      6  O   UNL     1     -27.742  30.043   8.760  0.00  0.00    -0.244 OA
ATOM      7  C   UNL     1     -33.599  28.298   3.440  0.00  0.00    +0.195 C 
ATOM      8  C   UNL     1     -32.375  28.861   2.704  0.00  0.00    +0.075 C 
ATOM      9  C   UNL     1     -31.505  29.138   3.870  0.00  0.00    +0.016 C 
ATOM     10  C   UNL     1     -32.012  28.490   4.987  0.00  0.00    +0.138 C 
ATOM     11  C   UNL     1     -30.320  29.854   3.931  0.00  0.00    +0.002 C 
ATOM     12  C   UNL     1     -31.367  28.523   6.208  0.00  0.00    +0.074 C 
ATOM     13  C   UNL     1     -29.649  29.917   5.157  0.00  0.00    +0.035 C 
ATOM     14  C   UNL     1     -30.180  29.253   6.272  0.00  0.00    +0.152 C 
ATOM     15  C   UNL     1     -28.403  30.650   5.313  0.00  0.00    +0.010 C 
ATOM     16  C   UNL     1     -27.784  30.687   6.495  0.00  0.00    +0.082 C 
ATOM     17  C   UNL     1     -28.324  29.998   7.682  0.00  0.00    +0.346 C 
ENDBRANCH   1   7
BRANCH   1  18
ATOM     18  O   UNL     1     -35.188  26.501   3.554  0.00  0.00    -0.330 OA
BRANCH  18  20
ATOM     19  O   UNL     1     -36.009  24.433   2.848  0.00  0.00    -0.326 OA
ATOM     20  C   UNL     1     -34.969  25.090   3.570  0.00  0.00    +0.266 C 
ATOM     21  C   UNL     1     -34.958  24.633   5.028  0.00  0.00    +0.196 C 
ATOM     22  C   UNL     1     -34.878  23.109   5.132  0.00  0.00    +0.172 C 
ATOM     23  C   UNL     1     -35.906  22.438   4.220  0.00  0.00    +0.169 C 
ATOM     24  C   UNL     1     -35.835  23.016   2.804  0.00  0.00    +0.176 C 
BRANCH  21  25
ATOM     25  O   UNL     1     -33.821  25.211   5.669  0.00  0.00    -0.378 OA
ATOM     26  H   UNL     1     -33.727  26.135   5.389  0.00  0.00    +0.211 HD
ENDBRANCH  21  25
BRANCH  22  27
ATOM     27  O   UNL     1     -35.153  22.709   6.476  0.00  0.00    -0.379 OA
ATOM     28  H   UNL     1     -34.921  23.432   7.081  0.00  0.00    +0.211 HD
ENDBRANCH  22  27
BRANCH  23  29
ATOM     29  O   UNL     1     -35.648  21.037   4.170  0.00  0.00    -0.379 OA
ATOM     30  H   UNL     1     -35.306  20.740   5.029  0.00  0.00    +0.211 HD
ENDBRANCH  23  29
BRANCH  24  31
ATOM     31  C   UNL     1     -36.928  22.446   1.907  0.00  0.00    +0.169 C 
BRANCH  31  32
ATOM     32  O   UNL     1     -37.965  21.938   2.726  0.00  0.00    -0.379 OA
ATOM     33  H   UNL     1     -38.601  21.452   2.177  0.00  0.00    +0.211 HD
ENDBRANCH  31  32
ENDBRANCH  24  31
ENDBRANCH  18  20
ENDBRANCH   1  18
TORSDOF 8
ENDMDL
MODEL 4
REMARK VINA RESULT:      -6.9      4.495      8.396
REMARK  Name = 216283
REMARK  8 active torsions:
REMARK  status: ('A' for Active; 'I' for Inactive)
REMARK    1  A    between atoms: C_1  and  C_7
REMARK    2  A    between atoms: C_1  and  O_18
REMARK    3  A    between atoms: O_18  and  C_20
REMARK    4  A    between atoms: C_21  and  O_25
REMARK    5  A    between atoms: C_22  and  O_27
REMARK    6  A    between atoms: C_23  and  O_29
REMARK    7  A    between atoms: C_24  and  C_31
REMARK    8  A    between atoms: C_31  and  O_32
REMARK                            x       y       z     vdW  Elec       q    Type
REMARK                         _______ _______ _______ _____ _____    ______ ____
ROOT
ATOM      1  C   UNL     1     -35.515  24.933   4.772  0.00  0.00    +0.132 C 
ATOM      2  C   UNL     1     -36.402  25.785   5.683  0.00  0.00    +0.033 C 
ATOM      3  C   UNL     1     -35.433  23.501   5.301  0.00  0.00    +0.033 C 
ENDROOT
BRANCH   1   7
ATOM      4  O   UNL     1     -34.147  26.506   3.547  0.00  0.00    -0.477 OA
ATOM      5  O   UNL     1     -31.461  30.475   2.953  0.00  0.00    -0.421 OA
ATOM      6  O   UNL     1     -30.166  32.354   2.754  0.00  0.00    -0.244 OA
ATOM      7  C   UNL     1     -34.129  25.540   4.631  0.00  0.00    +0.195 C 
ATOM      8  C   UNL     1     -33.660  26.242   5.914  0.00  0.00    +0.075 C 
ATOM      9  C   UNL     1     -32.944  27.388   5.307  0.00  0.00    +0.016 C 
ATOM     10  C   UNL     1     -33.290  27.491   3.967  0.00  0.00    +0.138 C 
ATOM     11  C   UNL     1     -32.099  28.311   5.903  0.00  0.00    +0.002 C 
ATOM     12  C   UNL     1     -32.816  28.510   3.165  0.00  0.00    +0.074 C 
ATOM     13  C   UNL     1     -31.592  29.349   5.114  0.00  0.00    +0.035 C 
ATOM     14  C   UNL     1     -31.957  29.433   3.763  0.00  0.00    +0.152 C 
ATOM     15  C   UNL     1     -30.696  30.358   5.656  0.00  0.00    +0.010 C 
ATOM     16  C   UNL     1     -30.233  31.338   4.878  0.00  0.00    +0.082 C 
ATOM     17  C   UNL     1     -30.602  31.447   3.454  0.00  0.00    +0.346 C 
ENDBRANCH   1   7
BRANCH   1  18
ATOM     18  O   UNL     1     -36.127  24.873   3.479  0.00  0.00    -0.330 OA
BRANCH  18  20
ATOM     19  O   UNL     1     -36.364  22.808   2.417  0.00  0.00    -0.326 OA
ATOM     20  C   UNL     1     -36.949  23.713   3.352  0.00  0.00    +0.266 C 
ATOM     21  C   UNL     1     -38.328  24.163   2.871  0.00  0.00    +0.196 C 
ATOM     22  C   UNL     1     -39.229  22.966   2.563  0.00  0.00    +0.172 C 
ATOM     23  C   UNL     1     -38.507  21.942   1.686  0.00  0.00    +0.169 C 
ATOM     24  C   UNL     1     -37.127  21.611   2.261  0.00  0.00    +0.176 C 
BRANCH  21  25
ATOM     25  O   UNL     1     -38.924  24.952   3.900  0.00  0.00    -0.378 OA
ATOM     26  H   UNL     1     -39.871  24.749   3.955  0.00  0.00    +0.211 HD
ENDBRANCH  21  25
BRANCH  22  27
ATOM     27  O   UNL     1     -40.388  23.412   1.858  0.00  0.00    -0.379 OA
ATOM     28  H   UNL     1     -40.824  22.652   1.441  0.00  0.00    +0.211 HD
ENDBRANCH  22  27
BRANCH  23  29
ATOM     29  O   UNL     1     -39.286  20.751   1.615  0.00  0.00    -0.379 OA
ATOM     30  H   UNL     1     -38.895  20.146   0.965  0.00  0.00    +0.211 HD
ENDBRANCH  23  29
BRANCH  24  31
ATOM     31  C   UNL     1     -36.341  20.681   1.343  0.00  0.00    +0.169 C 
BRANCH  31  32
ATOM     32  O   UNL     1     -36.696  19.344   1.645  0.00  0.00    -0.379 OA
ATOM     33  H   UNL     1     -36.033  18.960   2.240  0.00  0.00    +0.211 HD
ENDBRANCH  31  32
ENDBRANCH  24  31
ENDBRANCH  18  20
ENDBRANCH   1  18
TORSDOF 8
ENDMDL
MODEL 5
REMARK VINA RESULT:      -6.8      4.567      7.960
REMARK  Name = 216283
REMARK  8 active torsions:
REMARK  status: ('A' for Active; 'I' for Inactive)
REMARK    1  A    between atoms: C_1  and  C_7
REMARK    2  A    between atoms: C_1  and  O_18
REMARK    3  A    between atoms: O_18  and  C_20
REMARK    4  A    between atoms: C_21  and  O_25
REMARK    5  A    between atoms: C_22  and  O_27
REMARK    6  A    between atoms: C_23  and  O_29
REMARK    7  A    between atoms: C_24  and  C_31
REMARK    8  A    between atoms: C_31  and  O_32
REMARK                            x       y       z     vdW  Elec       q    Type
REMARK                         _______ _______ _______ _____ _____    ______ ____
ROOT
ATOM      1  C   UNL     1     -35.511  25.225   4.194  0.00  0.00    +0.132 C 
ATOM      2  C   UNL     1     -36.376  25.052   5.445  0.00  0.00    +0.033 C 
ATOM      3  C   UNL     1     -34.529  24.059   4.064  0.00  0.00    +0.033 C 
ENDROOT
BRANCH   1   7
ATOM      4  O   UNL     1     -34.130  26.715   5.505  0.00  0.00    -0.477 OA
ATOM      5  O   UNL     1     -30.112  29.149   6.627  0.00  0.00    -0.421 OA
ATOM      6  O   UNL     1     -28.186  30.304   7.075  0.00  0.00    -0.244 OA
ATOM      7  C   UNL     1     -34.775  26.555   4.214  0.00  0.00    +0.195 C 
ATOM      8  C   UNL     1     -33.710  26.655   3.111  0.00  0.00    +0.075 C 
ATOM      9  C   UNL     1     -32.670  27.402   3.856  0.00  0.00    +0.016 C 
ATOM     10  C   UNL     1     -32.962  27.371   5.212  0.00  0.00    +0.138 C 
ATOM     11  C   UNL     1     -31.518  28.010   3.383  0.00  0.00    +0.002 C 
ATOM     12  C   UNL     1     -32.126  27.938   6.153  0.00  0.00    +0.074 C 
ATOM     13  C   UNL     1     -30.656  28.605   4.310  0.00  0.00    +0.035 C 
ATOM     14  C   UNL     1     -30.972  28.559   5.676  0.00  0.00    +0.152 C 
ATOM     15  C   UNL     1     -29.429  29.269   3.902  0.00  0.00    +0.010 C 
ATOM     16  C   UNL     1     -28.625  29.822   4.812  0.00  0.00    +0.082 C 
ATOM     17  C   UNL     1     -28.936  29.789   6.253  0.00  0.00    +0.346 C 
ENDBRANCH   1   7
BRANCH   1  18
ATOM     18  O   UNL     1     -36.368  25.187   3.048  0.00  0.00    -0.330 OA
BRANCH  18  20
ATOM     19  O   UNL     1     -36.835  23.002   2.373  0.00  0.00    -0.326 OA
ATOM     20  C   UNL     1     -37.302  24.112   3.138  0.00  0.00    +0.266 C 
ATOM     21  C   UNL     1     -38.643  24.608   2.598  0.00  0.00    +0.196 C 
ATOM     22  C   UNL     1     -39.665  23.473   2.518  0.00  0.00    +0.172 C 
ATOM     23  C   UNL     1     -39.072  22.243   1.831  0.00  0.00    +0.169 C 
ATOM     24  C   UNL     1     -37.716  21.880   2.442  0.00  0.00    +0.176 C 
BRANCH  21  25
ATOM     25  O   UNL     1     -39.130  25.623   3.476  0.00  0.00    -0.378 OA
ATOM     26  H   UNL     1     -39.959  25.327   3.884  0.00  0.00    +0.211 HD
ENDBRANCH  21  25
BRANCH  22  27
ATOM     27  O   UNL     1     -40.794  23.903   1.757  0.00  0.00    -0.379 OA
ATOM     28  H   UNL     1     -41.607  23.572   2.170  0.00  0.00    +0.211 HD
ENDBRANCH  22  27
BRANCH  23  29
ATOM     29  O   UNL     1     -39.966  21.143   1.982  0.00  0.00    -0.379 OA
ATOM     30  H   UNL     1     -39.788  20.694   2.824  0.00  0.00    +0.211 HD
ENDBRANCH  23  29
BRANCH  24  31
ATOM     31  C   UNL     1     -37.051  20.728   1.697  0.00  0.00    +0.169 C 
BRANCH  31  32
ATOM     32  O   UNL     1     -36.707  19.724   2.634  0.00  0.00    -0.379 OA
ATOM     33  H   UNL     1     -37.364  19.709   3.348  0.00  0.00    +0.211 HD
ENDBRANCH  31  32
ENDBRANCH  24  31
ENDBRANCH  18  20
ENDBRANCH   1  18
TORSDOF 8
ENDMDL
MODEL 6
REMARK VINA RESULT:      -6.7      3.816      5.938
REMARK  Name = 216283
REMARK  8 active torsions:
REMARK  status: ('A' for Active; 'I' for Inactive)
REMARK    1  A    between atoms: C_1  and  C_7
REMARK    2  A    between atoms: C_1  and  O_18
REMARK    3  A    between atoms: O_18  and  C_20
REMARK    4  A    between atoms: C_21  and  O_25
REMARK    5  A    between atoms: C_22  and  O_27
REMARK    6  A    between atoms: C_23  and  O_29
REMARK    7  A    between atoms: C_24  and  C_31
REMARK    8  A    between atoms: C_31  and  O_32
REMARK                            x       y       z     vdW  Elec       q    Type
REMARK                         _______ _______ _______ _____ _____    ______ ____
ROOT
ATOM      1  C   UNL     1     -36.144  21.879  -0.345  0.00  0.00    +0.132 C 
ATOM      2  C   UNL     1     -37.372  22.555   0.269  0.00  0.00    +0.033 C 
ATOM      3  C   UNL     1     -35.413  22.850  -1.275  0.00  0.00    +0.033 C 
ENDROOT
BRANCH   1   7
ATOM      4  O   UNL     1     -36.326  19.472  -0.200  0.00  0.00    -0.477 OA
ATOM      5  O   UNL     1     -38.630  15.229  -0.111  0.00  0.00    -0.421 OA
ATOM      6  O   UNL     1     -39.785  13.251  -0.115  0.00  0.00    -0.244 OA
ATOM      7  C   UNL     1     -36.528  20.607  -1.084  0.00  0.00    +0.195 C 
ATOM      8  C   UNL     1     -37.991  20.617  -1.553  0.00  0.00    +0.075 C 
ATOM      9  C   UNL     1     -38.320  19.191  -1.326  0.00  0.00    +0.016 C 
ATOM     10  C   UNL     1     -37.343  18.613  -0.529  0.00  0.00    +0.138 C 
ATOM     11  C   UNL     1     -39.430  18.471  -1.738  0.00  0.00    +0.002 C 
ATOM     12  C   UNL     1     -37.425  17.301  -0.106  0.00  0.00    +0.074 C 
ATOM     13  C   UNL     1     -39.537  17.135  -1.337  0.00  0.00    +0.035 C 
ATOM     14  C   UNL     1     -38.537  16.573  -0.530  0.00  0.00    +0.152 C 
ATOM     15  C   UNL     1     -40.664  16.304  -1.727  0.00  0.00    +0.010 C 
ATOM     16  C   UNL     1     -40.739  15.034  -1.324  0.00  0.00    +0.082 C 
ATOM     17  C   UNL     1     -39.700  14.420  -0.476  0.00  0.00    +0.346 C 
ENDBRANCH   1   7
BRANCH   1  18
ATOM     18  O   UNL     1     -35.240  21.545   0.713  0.00  0.00    -0.330 OA
BRANCH  18  20
ATOM     19  O   UNL     1     -34.874  23.263   2.251  0.00  0.00    -0.326 OA
ATOM     20  C   UNL     1     -35.664  22.114   1.952  0.00  0.00    +0.266 C 
ATOM     21  C   UNL     1     -35.499  21.052   3.039  0.00  0.00    +0.196 C 
ATOM     22  C   UNL     1     -35.790  21.626   4.426  0.00  0.00    +0.172 C 
ATOM     23  C   UNL     1     -35.045  22.943   4.647  0.00  0.00    +0.169 C 
ATOM     24  C   UNL     1     -35.265  23.896   3.469  0.00  0.00    +0.176 C 
BRANCH  21  25
ATOM     25  O   UNL     1     -36.411  19.988   2.766  0.00  0.00    -0.378 OA
ATOM     26  H   UNL     1     -37.057  19.924   3.486  0.00  0.00    +0.211 HD
ENDBRANCH  21  25
BRANCH  22  27
ATOM     27  O   UNL     1     -35.357  20.701   5.424  0.00  0.00    -0.379 OA
ATOM     28  H   UNL     1     -34.644  20.149   5.064  0.00  0.00    +0.211 HD
ENDBRANCH  22  27
BRANCH  23  29
ATOM     29  O   UNL     1     -35.517  23.556   5.843  0.00  0.00    -0.379 OA
ATOM     30  H   UNL     1     -36.435  23.287   6.005  0.00  0.00    +0.211 HD
ENDBRANCH  23  29
BRANCH  24  31
ATOM     31  C   UNL     1     -34.439  25.170   3.612  0.00  0.00    +0.169 C 
BRANCH  31  32
ATOM     32  O   UNL     1     -33.359  24.910   4.490  0.00  0.00    -0.379 OA
ATOM     33  H   UNL     1     -32.851  24.151   4.163  0.00  0.00    +0.211 HD
ENDBRANCH  31  32
ENDBRANCH  24  31
ENDBRANCH  18  20
ENDBRANCH   1  18
TORSDOF 8
ENDMDL
MODEL 7
REMARK VINA RESULT:      -6.6      5.313      9.999
REMARK  Name = 216283
REMARK  8 active torsions:
REMARK  status: ('A' for Active; 'I' for Inactive)
REMARK    1  A    between atoms: C_1  and  C_7
REMARK    2  A    between atoms: C_1  and  O_18
REMARK    3  A    between atoms: O_18  and  C_20
REMARK    4  A    between atoms: C_21  and  O_25
REMARK    5  A    between atoms: C_22  and  O_27
REMARK    6  A    between atoms: C_23  and  O_29
REMARK    7  A    between atoms: C_24  and  C_31
REMARK    8  A    between atoms: C_31  and  O_32
REMARK                            x       y       z     vdW  Elec       q    Type
REMARK                         _______ _______ _______ _____ _____    ______ ____
ROOT
ATOM      1  C   UNL     1     -33.710  26.894   4.606  0.00  0.00    +0.132 C 
ATOM      2  C   UNL     1     -35.195  26.812   4.968  0.00  0.00    +0.033 C 
ATOM      3  C   UNL     1     -32.876  27.192   5.854  0.00  0.00    +0.033 C 
ENDROOT
BRANCH   1   7
ATOM      4  O   UNL     1     -34.737  28.512   3.131  0.00  0.00    -0.477 OA
ATOM      5  O   UNL     1     -35.695  32.924   1.416  0.00  0.00    -0.421 OA
ATOM      6  O   UNL     1     -36.072  35.042   0.632  0.00  0.00    -0.244 OA
ATOM      7  C   UNL     1     -33.464  27.938   3.529  0.00  0.00    +0.195 C 
ATOM      8  C   UNL     1     -32.538  29.068   4.004  0.00  0.00    +0.075 C 
ATOM      9  C   UNL     1     -33.185  30.208   3.314  0.00  0.00    +0.016 C 
ATOM     10  C   UNL     1     -34.442  29.824   2.868  0.00  0.00    +0.138 C 
ATOM     11  C   UNL     1     -32.729  31.506   3.147  0.00  0.00    +0.002 C 
ATOM     12  C   UNL     1     -35.296  30.708   2.240  0.00  0.00    +0.074 C 
ATOM     13  C   UNL     1     -33.567  32.423   2.504  0.00  0.00    +0.035 C 
ATOM     14  C   UNL     1     -34.833  32.012   2.062  0.00  0.00    +0.152 C 
ATOM     15  C   UNL     1     -33.168  33.804   2.281  0.00  0.00    +0.010 C 
ATOM     16  C   UNL     1     -33.993  34.655   1.669  0.00  0.00    +0.082 C 
ATOM     17  C   UNL     1     -35.328  34.246   1.194  0.00  0.00    +0.346 C 
ENDBRANCH   1   7
BRANCH   1  18
ATOM     18  O   UNL     1     -33.297  25.616   4.114  0.00  0.00    -0.330 OA
BRANCH  18  20
ATOM     19  O   UNL     1     -34.415  23.724   4.902  0.00  0.00    -0.326 OA
ATOM     20  C   UNL     1     -34.417  24.753   3.915  0.00  0.00    +0.266 C 
ATOM     21  C   UNL     1     -34.304  24.152   2.514  0.00  0.00    +0.196 C 
ATOM     22  C   UNL     1     -35.386  23.099   2.272  0.00  0.00    +0.172 C 
ATOM     23  C   UNL     1     -35.459  22.105   3.431  0.00  0.00    +0.169 C 
ATOM     24  C   UNL     1     -35.528  22.839   4.773  0.00  0.00    +0.176 C 
BRANCH  21  25
ATOM     25  O   UNL     1     -34.448  25.207   1.562  0.00  0.00    -0.378 OA
ATOM     26  H   UNL     1     -34.977  25.922   1.950  0.00  0.00    +0.211 HD
ENDBRANCH  21  25
BRANCH  22  27
ATOM     27  O   UNL     1     -35.080  22.369   1.083  0.00  0.00    -0.379 OA
ATOM     28  H   UNL     1     -35.844  22.391   0.485  0.00  0.00    +0.211 HD
ENDBRANCH  22  27
BRANCH  23  29
ATOM     29  O   UNL     1     -36.617  21.289   3.280  0.00  0.00    -0.379 OA
ATOM     30  H   UNL     1     -36.831  20.869   4.128  0.00  0.00    +0.211 HD
ENDBRANCH  23  29
BRANCH  24  31
ATOM     31  C   UNL     1     -35.484  21.870   5.949  0.00  0.00    +0.169 C 
BRANCH  31  32
ATOM     32  O   UNL     1     -35.079  20.600   5.473  0.00  0.00    -0.379 OA
ATOM     33  H   UNL     1     -34.771  20.682   4.556  0.00  0.00    +0.211 HD
ENDBRANCH  31  32
ENDBRANCH  24  31
ENDBRANCH  18  20
ENDBRANCH   1  18
TORSDOF 8
ENDMDL
MODEL 8
REMARK VINA RESULT:      -6.6      4.455      7.912
REMARK  Name = 216283
REMARK  8 active torsions:
REMARK  status: ('A' for Active; 'I' for Inactive)
REMARK    1  A    between atoms: C_1  and  C_7
REMARK    2  A    between atoms: C_1  and  O_18
REMARK    3  A    between atoms: O_18  and  C_20
REMARK    4  A    between atoms: C_21  and  O_25
REMARK    5  A    between atoms: C_22  and  O_27
REMARK    6  A    between atoms: C_23  and  O_29
REMARK    7  A    between atoms: C_24  and  C_31
REMARK    8  A    between atoms: C_31  and  O_32
REMARK                            x       y       z     vdW  Elec       q    Type
REMARK                         _______ _______ _______ _____ _____    ______ ____
ROOT
ATOM      1  C   UNL     1     -36.120  23.197   3.642  0.00  0.00    +0.132 C 
ATOM      2  C   UNL     1     -35.525  22.299   4.729  0.00  0.00    +0.033 C 
ATOM      3  C   UNL     1     -35.571  22.804   2.269  0.00  0.00    +0.033 C 
ENDROOT
BRANCH   1   7
ATOM      4  O   UNL     1     -35.170  24.773   5.211  0.00  0.00    -0.477 OA
ATOM      5  O   UNL     1     -32.058  28.136   6.734  0.00  0.00    -0.421 OA
ATOM      6  O   UNL     1     -30.571  29.756   7.376  0.00  0.00    -0.244 OA
ATOM      7  C   UNL     1     -35.852  24.664   3.933  0.00  0.00    +0.195 C 
ATOM      8  C   UNL     1     -34.987  25.331   2.852  0.00  0.00    +0.075 C 
ATOM      9  C   UNL     1     -34.175  26.220   3.715  0.00  0.00    +0.016 C 
ATOM     10  C   UNL     1     -34.309  25.825   5.039  0.00  0.00    +0.138 C 
ATOM     11  C   UNL     1     -33.330  27.258   3.357  0.00  0.00    +0.002 C 
ATOM     12  C   UNL     1     -33.612  26.441   6.059  0.00  0.00    +0.074 C 
ATOM     13  C   UNL     1     -32.620  27.911   4.370  0.00  0.00    +0.035 C 
ATOM     14  C   UNL     1     -32.771  27.494   5.700  0.00  0.00    +0.152 C 
ATOM     15  C   UNL     1     -31.716  29.014   4.085  0.00  0.00    +0.010 C 
ATOM     16  C   UNL     1     -31.049  29.613   5.073  0.00  0.00    +0.082 C 
ATOM     17  C   UNL     1     -31.191  29.193   6.480  0.00  0.00    +0.346 C 
ENDBRANCH   1   7
BRANCH   1  18
ATOM     18  O   UNL     1     -37.535  22.983   3.610  0.00  0.00    -0.330 OA
BRANCH  18  20
ATOM     19  O   UNL     1     -38.709  24.273   2.058  0.00  0.00    -0.326 OA
ATOM     20  C   UNL     1     -38.034  23.035   2.273  0.00  0.00    +0.266 C 
ATOM     21  C   UNL     1     -38.993  21.861   2.083  0.00  0.00    +0.196 C 
ATOM     22  C   UNL     1     -39.690  21.927   0.722  0.00  0.00    +0.172 C 
ATOM     23  C   UNL     1     -40.264  23.320   0.462  0.00  0.00    +0.169 C 
ATOM     24  C   UNL     1     -39.212  24.400   0.728  0.00  0.00    +0.176 C 
BRANCH  21  25
ATOM     25  O   UNL     1     -38.241  20.651   2.171  0.00  0.00    -0.378 OA
ATOM     26  H   UNL     1     -38.304  20.169   1.332  0.00  0.00    +0.211 HD
ENDBRANCH  21  25
BRANCH  22  27
ATOM     27  O   UNL     1     -40.769  20.992   0.696  0.00  0.00    -0.379 OA
ATOM     28  H   UNL     1     -40.426  20.108   0.489  0.00  0.00    +0.211 HD
ENDBRANCH  22  27
BRANCH  23  29
ATOM     29  O   UNL     1     -40.696  23.405  -0.893  0.00  0.00    -0.379 OA
ATOM     30  H   UNL     1     -40.254  22.719  -1.418  0.00  0.00    +0.211 HD
ENDBRANCH  23  29
BRANCH  24  31
ATOM     31  C   UNL     1     -39.795  25.802   0.588  0.00  0.00    +0.169 C 
BRANCH  31  32
ATOM     32  O   UNL     1     -41.159  25.763   0.966  0.00  0.00    -0.379 OA
ATOM     33  H   UNL     1     -41.665  25.269   0.302  0.00  0.00    +0.211 HD
ENDBRANCH  31  32
ENDBRANCH  24  31
ENDBRANCH  18  20
ENDBRANCH   1  18
TORSDOF 8
ENDMDL
MODEL 9
REMARK VINA RESULT:      -6.4      4.889     10.099
REMARK  Name = 216283
REMARK  8 active torsions:
REMARK  status: ('A' for Active; 'I' for Inactive)
REMARK    1  A    between atoms: C_1  and  C_7
REMARK    2  A    between atoms: C_1  and  O_18
REMARK    3  A    between atoms: O_18  and  C_20
REMARK    4  A    between atoms: C_21  and  O_25
REMARK    5  A    between atoms: C_22  and  O_27
REMARK    6  A    between atoms: C_23  and  O_29
REMARK    7  A    between atoms: C_24  and  C_31
REMARK    8  A    between atoms: C_31  and  O_32
REMARK                            x       y       z     vdW  Elec       q    Type
REMARK                         _______ _______ _______ _____ _____    ______ ____
ROOT
ATOM      1  C   UNL     1     -39.419  23.695   1.972  0.00  0.00    +0.132 C 
ATOM      2  C   UNL     1     -38.282  23.953   0.980  0.00  0.00    +0.033 C 
ATOM      3  C   UNL     1     -39.730  22.200   2.046  0.00  0.00    +0.033 C 
ENDROOT
BRANCH   1   7
ATOM      4  O   UNL     1     -41.038  25.323   2.731  0.00  0.00    -0.477 OA
ATOM      5  O   UNL     1     -43.329  29.574   2.754  0.00  0.00    -0.421 OA
ATOM      6  O   UNL     1     -44.397  31.599   2.682  0.00  0.00    -0.244 OA
ATOM      7  C   UNL     1     -40.661  24.491   1.603  0.00  0.00    +0.195 C 
ATOM      8  C   UNL     1     -40.442  25.388   0.375  0.00  0.00    +0.075 C 
ATOM      9  C   UNL     1     -41.245  26.560   0.794  0.00  0.00    +0.016 C 
ATOM     10  C   UNL     1     -41.524  26.467   2.151  0.00  0.00    +0.138 C 
ATOM     11  C   UNL     1     -41.646  27.659   0.053  0.00  0.00    +0.002 C 
ATOM     12  C   UNL     1     -42.209  27.457   2.826  0.00  0.00    +0.074 C 
ATOM     13  C   UNL     1     -42.354  28.674   0.705  0.00  0.00    +0.035 C 
ATOM     14  C   UNL     1     -42.622  28.558   2.077  0.00  0.00    +0.152 C 
ATOM     15  C   UNL     1     -42.818  29.861   0.004  0.00  0.00    +0.010 C 
ATOM     16  C   UNL     1     -43.486  30.814   0.657  0.00  0.00    +0.082 C 
ATOM     17  C   UNL     1     -43.781  30.714   2.098  0.00  0.00    +0.346 C 
ENDBRANCH   1   7
BRANCH   1  18
ATOM     18  O   UNL     1     -38.979  24.101   3.273  0.00  0.00    -0.330 OA
BRANCH  18  20
ATOM     19  O   UNL     1     -36.993  23.246   4.151  0.00  0.00    -0.326 OA
ATOM     20  C   UNL     1     -37.560  24.251   3.314  0.00  0.00    +0.266 C 
ATOM     21  C   UNL     1     -37.250  25.643   3.863  0.00  0.00    +0.196 C 
ATOM     22  C   UNL     1     -35.748  25.833   4.081  0.00  0.00    +0.172 C 
ATOM     23  C   UNL     1     -35.148  24.654   4.847  0.00  0.00    +0.169 C 
ATOM     24  C   UNL     1     -35.569  23.324   4.216  0.00  0.00    +0.176 C 
BRANCH  21  25
ATOM     25  O   UNL     1     -37.717  26.609   2.921  0.00  0.00    -0.378 OA
ATOM     26  H   UNL     1     -38.687  26.622   2.925  0.00  0.00    +0.211 HD
ENDBRANCH  21  25
BRANCH  22  27
ATOM     27  O   UNL     1     -35.525  27.017   4.848  0.00  0.00    -0.379 OA
ATOM     28  H   UNL     1     -34.572  27.184   4.914  0.00  0.00    +0.211 HD
ENDBRANCH  22  27
BRANCH  23  29
ATOM     29  O   UNL     1     -33.727  24.755   4.828  0.00  0.00    -0.379 OA
ATOM     30  H   UNL     1     -33.469  25.664   4.608  0.00  0.00    +0.211 HD
ENDBRANCH  23  29
BRANCH  24  31
ATOM     31  C   UNL     1     -35.079  22.132   5.030  0.00  0.00    +0.169 C 
BRANCH  31  32
ATOM     32  O   UNL     1     -35.563  20.945   4.428  0.00  0.00    -0.379 OA
ATOM     33  H   UNL     1     -35.008  20.197   4.697  0.00  0.00    +0.211 HD
ENDBRANCH  31  32
ENDBRANCH  24  31
ENDBRANCH  18  20
ENDBRANCH   1  18
TORSDOF 8
ENDMDL
