MODEL 1
REMARK VINA RESULT:      -5.3      0.000      0.000
REMARK  Name = 5496388
REMARK  7 active torsions:
REMARK  status: ('A' for Active; 'I' for Inactive)
REMARK    1  A    between atoms: N_1  and  N_3
REMARK    2  A    between atoms: N_1  and  C_13
REMARK    3  A    between atoms: C_4  and  C_7
REMARK    4  A    between atoms: C_13  and  N_14
REMARK    5  A    between atoms: N_14  and  N_16
REMARK    6  A    between atoms: N_16  and  C_19
REMARK    7  A    between atoms: C_19  and  N_20
REMARK                            x       y       z     vdW  Elec       q    Type
REMARK                         _______ _______ _______ _____ _____    ______ ____
ROOT
ATOM      1  N   UNL     1     -35.685  20.715   3.277  0.00  0.00    -0.217 N 
ATOM      2  H   UNL     1     -35.525  20.113   4.039  0.00  0.00    +0.176 HD
ENDROOT
BRANCH   1   3
ATOM      3  N   UNL     1     -35.578  22.051   3.457  0.00  0.00    -0.183 NA
ATOM      4  C   UNL     1     -35.372  22.489   4.663  0.00  0.00    +0.094 C 
ATOM      5  C   UNL     1     -35.279  21.606   5.894  0.00  0.00    +0.055 C 
BRANCH   4   7
ATOM      6  N   UNL     1     -36.341  24.587   5.210  0.00  0.00    -0.243 NA
ATOM      7  C   UNL     1     -35.217  23.957   4.853  0.00  0.00    +0.096 C 
ATOM      8  C   UNL     1     -33.988  24.524   4.653  0.00  0.00    +0.020 C 
ATOM      9  C   UNL     1     -33.900  25.898   4.842  0.00  0.00    +0.003 C 
ATOM     10  C   UNL     1     -35.030  26.618   5.215  0.00  0.00    +0.021 C 
ATOM     11  C   UNL     1     -36.216  25.922   5.385  0.00  0.00    +0.099 C 
ENDBRANCH   4   7
ENDBRANCH   1   3
BRANCH   1  13
ATOM     12  S   UNL     1     -34.920  19.657   0.883  0.00  0.00    -0.016 S 
ATOM     13  C   UNL     1     -36.015  20.175   2.046  0.00  0.00    +0.166 C 
BRANCH  13  14
ATOM     14  N   UNL     1     -37.370  20.077   1.792  0.00  0.00    -0.245 N 
ATOM     15  H   UNL     1     -37.705  19.337   1.237  0.00  0.00    +0.172 HD
BRANCH  14  16
ATOM     16  N   UNL     1     -38.262  20.998   2.305  0.00  0.00    -0.246 N 
ATOM     17  H   UNL     1     -38.460  20.985   3.270  0.00  0.00    +0.172 HD
BRANCH  16  19
ATOM     18  S   UNL     1     -40.042  21.524   0.328  0.00  0.00    -0.017 S 
ATOM     19  C   UNL     1     -38.892  21.948   1.498  0.00  0.00    +0.151 C 
BRANCH  19  20
ATOM     20  N   UNL     1     -38.471  23.279   1.750  0.00  0.00    -0.287 N 
ATOM     21  C   UNL     1     -39.040  24.115   2.809  0.00  0.00    +0.114 C 
ATOM     22  C   UNL     1     -37.427  23.933   0.959  0.00  0.00    +0.114 C 
ENDBRANCH  19  20
ENDBRANCH  16  19
ENDBRANCH  14  16
ENDBRANCH  13  14
ENDBRANCH   1  13
TORSDOF 7
ENDMDL
MODEL 2
REMARK VINA RESULT:      -5.3      2.791      5.076
REMARK  Name = 5496388
REMARK  7 active torsions:
REMARK  status: ('A' for Active; 'I' for Inactive)
REMARK    1  A    between atoms: N_1  and  N_3
REMARK    2  A    between atoms: N_1  and  C_13
REMARK    3  A    between atoms: C_4  and  C_7
REMARK    4  A    between atoms: C_13  and  N_14
REMARK    5  A    between atoms: N_14  and  N_16
REMARK    6  A    between atoms: N_16  and  C_19
REMARK    7  A    between atoms: C_19  and  N_20
REMARK                            x       y       z     vdW  Elec       q    Type
REMARK                         _______ _______ _______ _____ _____    ______ ____
ROOT
ATOM      1  N   UNL     1     -36.329  24.035   5.220  0.00  0.00    -0.217 N 
ATOM      2  H   UNL     1     -36.610  23.638   6.076  0.00  0.00    +0.176 HD
ENDROOT
BRANCH   1   3
ATOM      3  N   UNL     1     -36.393  23.289   4.094  0.00  0.00    -0.183 NA
ATOM      4  C   UNL     1     -35.832  22.117   4.107  0.00  0.00    +0.094 C 
ATOM      5  C   UNL     1     -35.078  21.537   5.288  0.00  0.00    +0.055 C 
BRANCH   4   7
ATOM      6  N   UNL     1     -37.095  21.410   2.223  0.00  0.00    -0.243 NA
ATOM      7  C   UNL     1     -35.936  21.284   2.877  0.00  0.00    +0.096 C 
ATOM      8  C   UNL     1     -34.881  20.486   2.528  0.00  0.00    +0.020 C 
ATOM      9  C   UNL     1     -35.031  19.728   1.372  0.00  0.00    +0.003 C 
ATOM     10  C   UNL     1     -36.212  19.810   0.641  0.00  0.00    +0.021 C 
ATOM     11  C   UNL     1     -37.204  20.658   1.105  0.00  0.00    +0.099 C 
ENDBRANCH   4   7
ENDBRANCH   1   3
BRANCH   1  13
ATOM     12  S   UNL     1     -34.341  25.852   5.640  0.00  0.00    -0.016 S 
ATOM     13  C   UNL     1     -35.879  25.343   5.198  0.00  0.00    +0.166 C 
BRANCH  13  14
ATOM     14  N   UNL     1     -36.807  26.276   4.776  0.00  0.00    -0.245 N 
ATOM     15  H   UNL     1     -36.689  27.221   5.025  0.00  0.00    +0.172 HD
BRANCH  14  16
ATOM     16  N   UNL     1     -37.896  25.907   4.012  0.00  0.00    -0.246 N 
ATOM     17  H   UNL     1     -38.675  25.499   4.455  0.00  0.00    +0.172 HD
BRANCH  16  19
ATOM     18  S   UNL     1     -36.743  26.987   1.807  0.00  0.00    -0.017 S 
ATOM     19  C   UNL     1     -37.927  26.095   2.628  0.00  0.00    +0.151 C 
BRANCH  19  20
ATOM     20  N   UNL     1     -39.037  25.480   1.994  0.00  0.00    -0.287 N 
ATOM     21  C   UNL     1     -39.590  24.191   2.415  0.00  0.00    +0.114 C 
ATOM     22  C   UNL     1     -39.723  26.087   0.852  0.00  0.00    +0.114 C 
ENDBRANCH  19  20
ENDBRANCH  16  19
ENDBRANCH  14  16
ENDBRANCH  13  14
ENDBRANCH   1  13
TORSDOF 7
ENDMDL
MODEL 3
REMARK VINA RESULT:      -5.3      2.889      5.819
REMARK  Name = 5496388
REMARK  7 active torsions:
REMARK  status: ('A' for Active; 'I' for Inactive)
REMARK    1  A    between atoms: N_1  and  N_3
REMARK    2  A    between atoms: N_1  and  C_13
REMARK    3  A    between atoms: C_4  and  C_7
REMARK    4  A    between atoms: C_13  and  N_14
REMARK    5  A    between atoms: N_14  and  N_16
REMARK    6  A    between atoms: N_16  and  C_19
REMARK    7  A    between atoms: C_19  and  N_20
REMARK                            x       y       z     vdW  Elec       q    Type
REMARK                         _______ _______ _______ _____ _____    ______ ____
ROOT
ATOM      1  N   UNL     1     -36.859  20.428   2.628  0.00  0.00    -0.217 N 
ATOM      2  H   UNL     1     -37.382  19.669   2.975  0.00  0.00    +0.176 HD
ENDROOT
BRANCH   1   3
ATOM      3  N   UNL     1     -35.547  20.255   2.355  0.00  0.00    -0.183 NA
ATOM      4  C   UNL     1     -35.228  19.651   1.249  0.00  0.00    +0.094 C 
ATOM      5  C   UNL     1     -36.229  19.094   0.255  0.00  0.00    +0.055 C 
BRANCH   4   7
ATOM      6  N   UNL     1     -33.249  20.524   0.267  0.00  0.00    -0.243 NA
ATOM      7  C   UNL     1     -33.781  19.495   0.934  0.00  0.00    +0.096 C 
ATOM      8  C   UNL     1     -33.137  18.356   1.335  0.00  0.00    +0.020 C 
ATOM      9  C   UNL     1     -31.787  18.261   1.015  0.00  0.00    +0.003 C 
ATOM     10  C   UNL     1     -31.167  19.296   0.321  0.00  0.00    +0.021 C 
ATOM     11  C   UNL     1     -31.935  20.395  -0.026  0.00  0.00    +0.099 C 
ENDBRANCH   4   7
ENDBRANCH   1   3
BRANCH   1  13
ATOM     12  S   UNL     1     -39.003  21.862   1.744  0.00  0.00    -0.016 S 
ATOM     13  C   UNL     1     -37.486  21.646   2.430  0.00  0.00    +0.166 C 
BRANCH  13  14
ATOM     14  N   UNL     1     -36.764  22.751   2.841  0.00  0.00    -0.245 N 
ATOM     15  H   UNL     1     -36.136  23.177   2.215  0.00  0.00    +0.172 HD
BRANCH  14  16
ATOM     16  N   UNL     1     -36.909  23.267   4.113  0.00  0.00    -0.246 N 
ATOM     17  H   UNL     1     -37.801  23.561   4.410  0.00  0.00    +0.172 HD
BRANCH  16  19
ATOM     18  S   UNL     1     -35.297  22.097   5.953  0.00  0.00    -0.017 S 
ATOM     19  C   UNL     1     -35.829  23.386   4.992  0.00  0.00    +0.151 C 
BRANCH  19  20
ATOM     20  N   UNL     1     -35.242  24.677   5.001  0.00  0.00    -0.287 N 
ATOM     21  C   UNL     1     -35.893  25.852   5.583  0.00  0.00    +0.114 C 
ATOM     22  C   UNL     1     -33.925  24.942   4.418  0.00  0.00    +0.114 C 
ENDBRANCH  19  20
ENDBRANCH  16  19
ENDBRANCH  14  16
ENDBRANCH  13  14
ENDBRANCH   1  13
TORSDOF 7
ENDMDL
MODEL 4
REMARK VINA RESULT:      -5.2      2.890      5.728
REMARK  Name = 5496388
REMARK  7 active torsions:
REMARK  status: ('A' for Active; 'I' for Inactive)
REMARK    1  A    between atoms: N_1  and  N_3
REMARK    2  A    between atoms: N_1  and  C_13
REMARK    3  A    between atoms: C_4  and  C_7
REMARK    4  A    between atoms: C_13  and  N_14
REMARK    5  A    between atoms: N_14  and  N_16
REMARK    6  A    between atoms: N_16  and  C_19
REMARK    7  A    between atoms: C_19  and  N_20
REMARK                            x       y       z     vdW  Elec       q    Type
REMARK                         _______ _______ _______ _____ _____    ______ ____
ROOT
ATOM      1  N   UNL     1     -37.127  20.386   2.244  0.00  0.00    -0.217 N 
ATOM      2  H   UNL     1     -37.633  19.619   2.598  0.00  0.00    +0.176 HD
ENDROOT
BRANCH   1   3
ATOM      3  N   UNL     1     -35.795  20.266   2.052  0.00  0.00    -0.183 NA
ATOM      4  C   UNL     1     -35.385  19.555   1.043  0.00  0.00    +0.094 C 
ATOM      5  C   UNL     1     -36.300  18.818   0.084  0.00  0.00    +0.055 C 
BRANCH   4   7
ATOM      6  N   UNL     1     -33.387  20.506   0.181  0.00  0.00    -0.243 NA
ATOM      7  C   UNL     1     -33.918  19.455   0.814  0.00  0.00    +0.096 C 
ATOM      8  C   UNL     1     -33.254  18.341   1.249  0.00  0.00    +0.020 C 
ATOM      9  C   UNL     1     -31.886  18.299   1.009  0.00  0.00    +0.003 C 
ATOM     10  C   UNL     1     -31.267  19.359   0.354  0.00  0.00    +0.021 C 
ATOM     11  C   UNL     1     -32.055  20.430  -0.036  0.00  0.00    +0.099 C 
ENDBRANCH   4   7
ENDBRANCH   1   3
BRANCH   1  13
ATOM     12  S   UNL     1     -38.435  21.976   0.456  0.00  0.00    -0.016 S 
ATOM     13  C   UNL     1     -37.798  21.561   1.954  0.00  0.00    +0.166 C 
BRANCH  13  14
ATOM     14  N   UNL     1     -37.927  22.440   3.012  0.00  0.00    -0.245 N 
ATOM     15  H   UNL     1     -38.765  22.943   3.124  0.00  0.00    +0.172 HD
BRANCH  14  16
ATOM     16  N   UNL     1     -36.901  22.623   3.918  0.00  0.00    -0.246 N 
ATOM     17  H   UNL     1     -36.576  21.850   4.435  0.00  0.00    +0.172 HD
BRANCH  16  19
ATOM     18  S   UNL     1     -36.649  25.209   3.141  0.00  0.00    -0.017 S 
ATOM     19  C   UNL     1     -36.308  23.872   4.123  0.00  0.00    +0.151 C 
BRANCH  19  20
ATOM     20  N   UNL     1     -35.403  23.900   5.215  0.00  0.00    -0.287 N 
ATOM     21  C   UNL     1     -35.165  22.752   6.091  0.00  0.00    +0.114 C 
ATOM     22  C   UNL     1     -34.631  25.095   5.562  0.00  0.00    +0.114 C 
ENDBRANCH  19  20
ENDBRANCH  16  19
ENDBRANCH  14  16
ENDBRANCH  13  14
ENDBRANCH   1  13
TORSDOF 7
ENDMDL
MODEL 5
REMARK VINA RESULT:      -5.1      3.122      5.728
REMARK  Name = 5496388
REMARK  7 active torsions:
REMARK  status: ('A' for Active; 'I' for Inactive)
REMARK    1  A    between atoms: N_1  and  N_3
REMARK    2  A    between atoms: N_1  and  C_13
REMARK    3  A    between atoms: C_4  and  C_7
REMARK    4  A    between atoms: C_13  and  N_14
REMARK    5  A    between atoms: N_14  and  N_16
REMARK    6  A    between atoms: N_16  and  C_19
REMARK    7  A    between atoms: C_19  and  N_20
REMARK                            x       y       z     vdW  Elec       q    Type
REMARK                         _______ _______ _______ _____ _____    ______ ____
ROOT
ATOM      1  N   UNL     1     -36.203  24.418   5.447  0.00  0.00    -0.217 N 
ATOM      2  H   UNL     1     -36.504  24.064   6.315  0.00  0.00    +0.176 HD
ENDROOT
BRANCH   1   3
ATOM      3  N   UNL     1     -36.390  23.677   4.332  0.00  0.00    -0.183 NA
ATOM      4  C   UNL     1     -35.903  22.471   4.312  0.00  0.00    +0.094 C 
ATOM      5  C   UNL     1     -35.106  21.847   5.442  0.00  0.00    +0.055 C 
BRANCH   4   7
ATOM      6  N   UNL     1     -37.275  21.936   2.448  0.00  0.00    -0.243 NA
ATOM      7  C   UNL     1     -36.142  21.646   3.096  0.00  0.00    +0.096 C 
ATOM      8  C   UNL     1     -35.222  20.693   2.752  0.00  0.00    +0.020 C 
ATOM      9  C   UNL     1     -35.495  19.950   1.609  0.00  0.00    +0.003 C 
ATOM     10  C   UNL     1     -36.657  20.198   0.885  0.00  0.00    +0.021 C 
ATOM     11  C   UNL     1     -37.506  21.193   1.343  0.00  0.00    +0.099 C 
ENDBRANCH   4   7
ENDBRANCH   1   3
BRANCH   1  13
ATOM     12  S   UNL     1     -34.053  26.017   5.951  0.00  0.00    -0.016 S 
ATOM     13  C   UNL     1     -35.598  25.662   5.397  0.00  0.00    +0.166 C 
BRANCH  13  14
ATOM     14  N   UNL     1     -36.368  26.667   4.845  0.00  0.00    -0.245 N 
ATOM     15  H   UNL     1     -36.798  27.326   5.435  0.00  0.00    +0.172 HD
BRANCH  14  16
ATOM     16  N   UNL     1     -36.544  26.764   3.478  0.00  0.00    -0.246 N 
ATOM     17  H   UNL     1     -37.457  26.733   3.111  0.00  0.00    +0.172 HD
BRANCH  16  19
ATOM     18  S   UNL     1     -34.939  25.643   1.602  0.00  0.00    -0.017 S 
ATOM     19  C   UNL     1     -35.466  26.905   2.601  0.00  0.00    +0.151 C 
BRANCH  19  20
ATOM     20  N   UNL     1     -34.865  28.190   2.640  0.00  0.00    -0.287 N 
ATOM     21  C   UNL     1     -33.509  28.428   3.139  0.00  0.00    +0.114 C 
ATOM     22  C   UNL     1     -35.561  29.395   2.185  0.00  0.00    +0.114 C 
ENDBRANCH  19  20
ENDBRANCH  16  19
ENDBRANCH  14  16
ENDBRANCH  13  14
ENDBRANCH   1  13
TORSDOF 7
ENDMDL
MODEL 6
REMARK VINA RESULT:      -5.1      2.720      5.592
REMARK  Name = 5496388
REMARK  7 active torsions:
REMARK  status: ('A' for Active; 'I' for Inactive)
REMARK    1  A    between atoms: N_1  and  N_3
REMARK    2  A    between atoms: N_1  and  C_13
REMARK    3  A    between atoms: C_4  and  C_7
REMARK    4  A    between atoms: C_13  and  N_14
REMARK    5  A    between atoms: N_14  and  N_16
REMARK    6  A    between atoms: N_16  and  C_19
REMARK    7  A    between atoms: C_19  and  N_20
REMARK                            x       y       z     vdW  Elec       q    Type
REMARK                         _______ _______ _______ _____ _____    ______ ____
ROOT
ATOM      1  N   UNL     1     -37.912  23.865   3.730  0.00  0.00    -0.217 N 
ATOM      2  H   UNL     1     -37.997  23.524   4.650  0.00  0.00    +0.176 HD
ENDROOT
BRANCH   1   3
ATOM      3  N   UNL     1     -37.141  23.194   2.846  0.00  0.00    -0.183 NA
ATOM      4  C   UNL     1     -36.088  22.579   3.299  0.00  0.00    +0.094 C 
ATOM      5  C   UNL     1     -35.644  22.590   4.749  0.00  0.00    +0.055 C 
BRANCH   4   7
ATOM      6  N   UNL     1     -34.705  22.555   1.368  0.00  0.00    -0.243 NA
ATOM      7  C   UNL     1     -35.262  21.810   2.328  0.00  0.00    +0.096 C 
ATOM      8  C   UNL     1     -35.143  20.456   2.487  0.00  0.00    +0.020 C 
ATOM      9  C   UNL     1     -34.360  19.788   1.553  0.00  0.00    +0.003 C 
ATOM     10  C   UNL     1     -33.750  20.500   0.526  0.00  0.00    +0.021 C 
ATOM     11  C   UNL     1     -33.953  21.870   0.478  0.00  0.00    +0.099 C 
ENDBRANCH   4   7
ENDBRANCH   1   3
BRANCH   1  13
ATOM     12  S   UNL     1     -40.076  25.083   2.603  0.00  0.00    -0.016 S 
ATOM     13  C   UNL     1     -38.584  25.021   3.374  0.00  0.00    +0.166 C 
BRANCH  13  14
ATOM     14  N   UNL     1     -37.936  26.199   3.691  0.00  0.00    -0.245 N 
ATOM     15  H   UNL     1     -38.355  27.059   3.460  0.00  0.00    +0.172 HD
BRANCH  14  16
ATOM     16  N   UNL     1     -36.711  26.192   4.328  0.00  0.00    -0.246 N 
ATOM     17  H   UNL     1     -36.675  25.999   5.293  0.00  0.00    +0.172 HD
BRANCH  16  19
ATOM     18  S   UNL     1     -35.461  26.641   1.963  0.00  0.00    -0.017 S 
ATOM     19  C   UNL     1     -35.519  26.450   3.646  0.00  0.00    +0.151 C 
BRANCH  19  20
ATOM     20  N   UNL     1     -34.383  26.527   4.492  0.00  0.00    -0.287 N 
ATOM     21  C   UNL     1     -34.353  25.977   5.849  0.00  0.00    +0.114 C 
ATOM     22  C   UNL     1     -33.138  27.174   4.075  0.00  0.00    +0.114 C 
ENDBRANCH  19  20
ENDBRANCH  16  19
ENDBRANCH  14  16
ENDBRANCH  13  14
ENDBRANCH   1  13
TORSDOF 7
ENDMDL
MODEL 7
REMARK VINA RESULT:      -5.1      1.638      3.583
REMARK  Name = 5496388
REMARK  7 active torsions:
REMARK  status: ('A' for Active; 'I' for Inactive)
REMARK    1  A    between atoms: N_1  and  N_3
REMARK    2  A    between atoms: N_1  and  C_13
REMARK    3  A    between atoms: C_4  and  C_7
REMARK    4  A    between atoms: C_13  and  N_14
REMARK    5  A    between atoms: N_14  and  N_16
REMARK    6  A    between atoms: N_16  and  C_19
REMARK    7  A    between atoms: C_19  and  N_20
REMARK                            x       y       z     vdW  Elec       q    Type
REMARK                         _______ _______ _______ _____ _____    ______ ____
ROOT
ATOM      1  N   UNL     1     -39.901  23.937   2.490  0.00  0.00    -0.217 N 
ATOM      2  H   UNL     1     -40.573  24.642   2.638  0.00  0.00    +0.176 HD
ENDROOT
BRANCH   1   3
ATOM      3  N   UNL     1     -38.809  23.889   3.284  0.00  0.00    -0.183 NA
ATOM      4  C   UNL     1     -38.018  24.921   3.297  0.00  0.00    +0.094 C 
ATOM      5  C   UNL     1     -38.217  26.166   2.454  0.00  0.00    +0.055 C 
BRANCH   4   7
ATOM      6  N   UNL     1     -36.531  23.658   4.651  0.00  0.00    -0.243 NA
ATOM      7  C   UNL     1     -36.835  24.879   4.200  0.00  0.00    +0.096 C 
ATOM      8  C   UNL     1     -36.180  26.045   4.487  0.00  0.00    +0.020 C 
ATOM      9  C   UNL     1     -35.084  25.950   5.335  0.00  0.00    +0.003 C 
ATOM     10  C   UNL     1     -34.709  24.710   5.843  0.00  0.00    +0.021 C 
ATOM     11  C   UNL     1     -35.459  23.605   5.474  0.00  0.00    +0.099 C 
ENDBRANCH   4   7
ENDBRANCH   1   3
BRANCH   1  13
ATOM     12  S   UNL     1     -40.396  23.396  -0.136  0.00  0.00    -0.016 S 
ATOM     13  C   UNL     1     -40.099  23.019   1.473  0.00  0.00    +0.166 C 
BRANCH  13  14
ATOM     14  N   UNL     1     -40.046  21.694   1.861  0.00  0.00    -0.245 N 
ATOM     15  H   UNL     1     -40.878  21.170   1.907  0.00  0.00    +0.172 HD
BRANCH  14  16
ATOM     16  N   UNL     1     -38.847  21.090   2.184  0.00  0.00    -0.246 N 
ATOM     17  H   UNL     1     -38.701  20.780   3.107  0.00  0.00    +0.172 HD
BRANCH  16  19
ATOM     18  S   UNL     1     -38.097  20.110  -0.231  0.00  0.00    -0.017 S 
ATOM     19  C   UNL     1     -37.833  20.906   1.240  0.00  0.00    +0.151 C 
BRANCH  19  20
ATOM     20  N   UNL     1     -36.580  21.440   1.639  0.00  0.00    -0.287 N 
ATOM     21  C   UNL     1     -35.697  20.781   2.603  0.00  0.00    +0.114 C 
ATOM     22  C   UNL     1     -36.067  22.708   1.118  0.00  0.00    +0.114 C 
ENDBRANCH  19  20
ENDBRANCH  16  19
ENDBRANCH  14  16
ENDBRANCH  13  14
ENDBRANCH   1  13
TORSDOF 7
ENDMDL
MODEL 8
REMARK VINA RESULT:      -5.1      4.142      7.178
REMARK  Name = 5496388
REMARK  7 active torsions:
REMARK  status: ('A' for Active; 'I' for Inactive)
REMARK    1  A    between atoms: N_1  and  N_3
REMARK    2  A    between atoms: N_1  and  C_13
REMARK    3  A    between atoms: C_4  and  C_7
REMARK    4  A    between atoms: C_13  and  N_14
REMARK    5  A    between atoms: N_14  and  N_16
REMARK    6  A    between atoms: N_16  and  C_19
REMARK    7  A    between atoms: C_19  and  N_20
REMARK                            x       y       z     vdW  Elec       q    Type
REMARK                         _______ _______ _______ _____ _____    ______ ____
ROOT
ATOM      1  N   UNL     1     -35.626  27.437   3.821  0.00  0.00    -0.217 N 
ATOM      2  H   UNL     1     -36.302  27.961   4.308  0.00  0.00    +0.176 HD
ENDROOT
BRANCH   1   3
ATOM      3  N   UNL     1     -35.306  26.200   4.263  0.00  0.00    -0.183 NA
ATOM      4  C   UNL     1     -36.183  25.253   4.111  0.00  0.00    +0.094 C 
ATOM      5  C   UNL     1     -37.559  25.444   3.502  0.00  0.00    +0.055 C 
BRANCH   4   7
ATOM      6  N   UNL     1     -35.889  22.949   3.614  0.00  0.00    -0.243 NA
ATOM      7  C   UNL     1     -35.813  23.884   4.566  0.00  0.00    +0.096 C 
ATOM      8  C   UNL     1     -35.441  23.698   5.870  0.00  0.00    +0.020 C 
ATOM      9  C   UNL     1     -35.107  22.402   6.242  0.00  0.00    +0.003 C 
ATOM     10  C   UNL     1     -35.163  21.377   5.302  0.00  0.00    +0.021 C 
ATOM     11  C   UNL     1     -35.557  21.700   4.013  0.00  0.00    +0.099 C 
ENDBRANCH   4   7
ENDBRANCH   1   3
BRANCH   1  13
ATOM     12  S   UNL     1     -35.617  27.886   1.132  0.00  0.00    -0.016 S 
ATOM     13  C   UNL     1     -35.025  27.983   2.700  0.00  0.00    +0.166 C 
BRANCH  13  14
ATOM     14  N   UNL     1     -33.838  28.650   2.937  0.00  0.00    -0.245 N 
ATOM     15  H   UNL     1     -33.284  28.935   2.176  0.00  0.00    +0.172 HD
BRANCH  14  16
ATOM     16  N   UNL     1     -33.418  28.927   4.223  0.00  0.00    -0.246 N 
ATOM     17  H   UNL     1     -34.035  29.382   4.840  0.00  0.00    +0.172 HD
BRANCH  16  19
ATOM     18  S   UNL     1     -30.835  28.360   3.621  0.00  0.00    -0.017 S 
ATOM     19  C   UNL     1     -32.142  28.581   4.675  0.00  0.00    +0.151 C 
BRANCH  19  20
ATOM     20  N   UNL     1     -32.059  28.428   6.083  0.00  0.00    -0.287 N 
ATOM     21  C   UNL     1     -31.431  29.417   6.963  0.00  0.00    +0.114 C 
ATOM     22  C   UNL     1     -32.593  27.255   6.777  0.00  0.00    +0.114 C 
ENDBRANCH  19  20
ENDBRANCH  16  19
ENDBRANCH  14  16
ENDBRANCH  13  14
ENDBRANCH   1  13
TORSDOF 7
ENDMDL
MODEL 9
REMARK VINA RESULT:      -5.1      3.445      4.906
REMARK  Name = 5496388
REMARK  7 active torsions:
REMARK  status: ('A' for Active; 'I' for Inactive)
REMARK    1  A    between atoms: N_1  and  N_3
REMARK    2  A    between atoms: N_1  and  C_13
REMARK    3  A    between atoms: C_4  and  C_7
REMARK    4  A    between atoms: C_13  and  N_14
REMARK    5  A    between atoms: N_14  and  N_16
REMARK    6  A    between atoms: N_16  and  C_19
REMARK    7  A    between atoms: C_19  and  N_20
REMARK                            x       y       z     vdW  Elec       q    Type
REMARK                         _______ _______ _______ _____ _____    ______ ____
ROOT
ATOM      1  N   UNL     1     -34.372  24.847   4.705  0.00  0.00    -0.217 N 
ATOM      2  H   UNL     1     -34.005  24.498   3.861  0.00  0.00    +0.176 HD
ENDROOT
BRANCH   1   3
ATOM      3  N   UNL     1     -33.830  25.958   5.251  0.00  0.00    -0.183 NA
ATOM      4  C   UNL     1     -33.285  26.827   4.452  0.00  0.00    +0.094 C 
ATOM      5  C   UNL     1     -33.183  26.665   2.947  0.00  0.00    +0.055 C 
BRANCH   4   7
ATOM      6  N   UNL     1     -32.831  29.152   4.281  0.00  0.00    -0.243 NA
ATOM      7  C   UNL     1     -32.722  28.067   5.054  0.00  0.00    +0.096 C 
ATOM      8  C   UNL     1     -32.158  28.001   6.298  0.00  0.00    +0.020 C 
ATOM      9  C   UNL     1     -31.647  29.187   6.812  0.00  0.00    +0.003 C 
ATOM     10  C   UNL     1     -31.726  30.356   6.063  0.00  0.00    +0.021 C 
ATOM     11  C   UNL     1     -32.323  30.286   4.814  0.00  0.00    +0.099 C 
ENDBRANCH   4   7
ENDBRANCH   1   3
BRANCH   1  13
ATOM     12  S   UNL     1     -35.370  22.649   5.974  0.00  0.00    -0.016 S 
ATOM     13  C   UNL     1     -35.432  24.188   5.304  0.00  0.00    +0.166 C 
BRANCH  13  14
ATOM     14  N   UNL     1     -36.622  24.889   5.325  0.00  0.00    -0.245 N 
ATOM     15  H   UNL     1     -37.326  24.627   5.961  0.00  0.00    +0.172 HD
BRANCH  14  16
ATOM     16  N   UNL     1     -36.841  25.952   4.471  0.00  0.00    -0.246 N 
ATOM     17  H   UNL     1     -36.642  26.865   4.784  0.00  0.00    +0.172 HD
BRANCH  16  19
ATOM     18  S   UNL     1     -36.853  26.745   1.878  0.00  0.00    -0.017 S 
ATOM     19  C   UNL     1     -37.337  25.773   3.177  0.00  0.00    +0.151 C 
BRANCH  19  20
ATOM     20  N   UNL     1     -38.278  24.717   3.069  0.00  0.00    -0.287 N 
ATOM     21  C   UNL     1     -39.703  24.875   3.367  0.00  0.00    +0.114 C 
ATOM     22  C   UNL     1     -37.895  23.366   2.654  0.00  0.00    +0.114 C 
ENDBRANCH  19  20
ENDBRANCH  16  19
ENDBRANCH  14  16
ENDBRANCH  13  14
ENDBRANCH   1  13
TORSDOF 7
ENDMDL
