MODEL 1
REMARK VINA RESULT:      -7.2      0.000      0.000
REMARK  Name = 60200847
REMARK  4 active torsions:
REMARK  status: ('A' for Active; 'I' for Inactive)
REMARK    1  A    between atoms: C_7  and  O_25
REMARK    2  A    between atoms: C_10  and  O_27
REMARK    3  A    between atoms: C_11  and  O_29
REMARK    4  A    between atoms: C_15  and  O_31
REMARK                            x       y       z     vdW  Elec       q    Type
REMARK                         _______ _______ _______ _____ _____    ______ ____
ROOT
ATOM      1  O   UNL     1     -35.701  26.657   2.450  0.00  0.00    -0.450 OA
ATOM      2  O   UNL     1     -37.269  20.456  -0.177  0.00  0.00    -0.446 OA
ATOM      3  O   UNL     1     -34.702  28.099   3.924  0.00  0.00    -0.250 OA
ATOM      4  O   UNL     1     -38.794  18.780  -0.577  0.00  0.00    -0.245 OA
ATOM      5  C   UNL     1     -35.575  24.693   3.692  0.00  0.00    +0.053 C 
ATOM      6  C   UNL     1     -36.321  25.354   2.523  0.00  0.00    +0.198 C 
ATOM      7  C   UNL     1     -37.867  25.529   2.591  0.00  0.00    +0.175 C 
ATOM      8  C   UNL     1     -36.190  23.440   4.334  0.00  0.00    +0.007 C 
ATOM      9  C   UNL     1     -35.378  25.870   4.648  0.00  0.00    +0.103 C 
ATOM     10  C   UNL     1     -38.540  25.945   1.241  0.00  0.00    +0.116 C 
ATOM     11  C   UNL     1     -35.733  21.700   2.346  0.00  0.00    +0.116 C 
ATOM     12  C   UNL     1     -35.625  22.082   3.850  0.00  0.00    +0.030 C 
ATOM     13  C   UNL     1     -38.671  22.345  -0.323  0.00  0.00    +0.071 C 
ATOM     14  C   UNL     1     -37.336  21.833   0.248  0.00  0.00    +0.202 C 
ATOM     15  C   UNL     1     -37.160  21.928   1.785  0.00  0.00    +0.175 C 
ATOM     16  C   UNL     1     -38.416  24.852   0.144  0.00  0.00    +0.030 C 
ATOM     17  C   UNL     1     -39.275  23.590   0.352  0.00  0.00    +0.011 C 
ATOM     18  C   UNL     1     -35.198  27.011   3.674  0.00  0.00    +0.317 C 
ATOM     19  C   UNL     1     -39.467  21.085  -0.288  0.00  0.00    +0.057 C 
ATOM     20  C   UNL     1     -40.011  26.340   1.447  0.00  0.00    +0.032 C 
ATOM     21  C   UNL     1     -34.166  25.715   5.554  0.00  0.00    +0.012 C 
ATOM     22  C   UNL     1     -35.268  20.243   2.191  0.00  0.00    +0.032 C 
ATOM     23  C   UNL     1     -38.523  19.948  -0.366  0.00  0.00    +0.337 C 
ATOM     24  C   UNL     1     -40.782  20.891  -0.167  0.00  0.00    +0.002 C 
ENDROOT
BRANCH   7  25
ATOM     25  O   UNL     1     -38.201  26.485   3.603  0.00  0.00    -0.379 OA
ATOM     26  H   UNL     1     -38.363  27.347   3.189  0.00  0.00    +0.211 HD
ENDBRANCH   7  25
BRANCH  10  27
ATOM     27  O   UNL     1     -37.861  27.113   0.756  0.00  0.00    -0.384 OA
ATOM     28  H   UNL     1     -37.647  26.995  -0.182  0.00  0.00    +0.210 HD
ENDBRANCH  10  27
BRANCH  11  29
ATOM     29  O   UNL     1     -34.802  22.522   1.637  0.00  0.00    -0.384 OA
ATOM     30  H   UNL     1     -34.987  23.456   1.825  0.00  0.00    +0.210 HD
ENDBRANCH  11  29
BRANCH  15  31
ATOM     31  O   UNL     1     -38.103  21.084   2.441  0.00  0.00    -0.379 OA
ATOM     32  H   UNL     1     -37.879  20.156   2.272  0.00  0.00    +0.211 HD
ENDBRANCH  15  31
TORSDOF 4
ENDMDL
MODEL 2
REMARK VINA RESULT:      -7.0      1.710      4.788
REMARK  Name = 60200847
REMARK  4 active torsions:
REMARK  status: ('A' for Active; 'I' for Inactive)
REMARK    1  A    between atoms: C_7  and  O_25
REMARK    2  A    between atoms: C_10  and  O_27
REMARK    3  A    between atoms: C_11  and  O_29
REMARK    4  A    between atoms: C_15  and  O_31
REMARK                            x       y       z     vdW  Elec       q    Type
REMARK                         _______ _______ _______ _____ _____    ______ ____
ROOT
ATOM      1  O   UNL     1     -39.717  24.682   3.699  0.00  0.00    -0.450 OA
ATOM      2  O   UNL     1     -36.511  19.226   0.911  0.00  0.00    -0.446 OA
ATOM      3  O   UNL     1     -41.368  26.262   3.867  0.00  0.00    -0.250 OA
ATOM      4  O   UNL     1     -34.748  18.326  -0.262  0.00  0.00    -0.245 OA
ATOM      5  C   UNL     1     -40.048  24.016   1.494  0.00  0.00    +0.053 C 
ATOM      6  C   UNL     1     -39.009  24.021   2.626  0.00  0.00    +0.198 C 
ATOM      7  C   UNL     1     -37.636  24.725   2.414  0.00  0.00    +0.175 C 
ATOM      8  C   UNL     1     -39.564  23.741   0.063  0.00  0.00    +0.007 C 
ATOM      9  C   UNL     1     -40.735  25.369   1.687  0.00  0.00    +0.103 C 
ATOM     10  C   UNL     1     -36.567  24.420   3.515  0.00  0.00    +0.116 C 
ATOM     11  C   UNL     1     -39.022  21.127   0.314  0.00  0.00    +0.116 C 
ATOM     12  C   UNL     1     -39.731  22.287  -0.444  0.00  0.00    +0.030 C 
ATOM     13  C   UNL     1     -35.407  20.959   2.067  0.00  0.00    +0.071 C 
ATOM     14  C   UNL     1     -36.783  20.485   1.563  0.00  0.00    +0.202 C 
ATOM     15  C   UNL     1     -37.530  21.439   0.596  0.00  0.00    +0.175 C 
ATOM     16  C   UNL     1     -36.133  22.928   3.536  0.00  0.00    +0.030 C 
ATOM     17  C   UNL     1     -35.262  22.464   2.354  0.00  0.00    +0.011 C 
ATOM     18  C   UNL     1     -40.681  25.512   3.190  0.00  0.00    +0.317 C 
ATOM     19  C   UNL     1     -34.530  20.366   1.018  0.00  0.00    +0.057 C 
ATOM     20  C   UNL     1     -35.341  25.337   3.374  0.00  0.00    +0.032 C 
ATOM     21  C   UNL     1     -42.167  25.396   1.176  0.00  0.00    +0.012 C 
ATOM     22  C   UNL     1     -39.207  19.841  -0.508  0.00  0.00    +0.032 C 
ATOM     23  C   UNL     1     -35.224  19.187   0.455  0.00  0.00    +0.337 C 
ATOM     24  C   UNL     1     -33.342  20.761   0.555  0.00  0.00    +0.002 C 
ENDROOT
BRANCH   7  25
ATOM     25  O   UNL     1     -37.828  26.139   2.316  0.00  0.00    -0.379 OA
ATOM     26  H   UNL     1     -38.714  26.367   2.640  0.00  0.00    +0.211 HD
ENDBRANCH   7  25
BRANCH  10  27
ATOM     27  O   UNL     1     -37.157  24.710   4.790  0.00  0.00    -0.384 OA
ATOM     28  H   UNL     1     -37.186  23.901   5.324  0.00  0.00    +0.210 HD
ENDBRANCH  10  27
BRANCH  11  29
ATOM     29  O   UNL     1     -39.718  20.947   1.550  0.00  0.00    -0.384 OA
ATOM     30  H   UNL     1     -39.733  21.786   2.037  0.00  0.00    +0.210 HD
ENDBRANCH  11  29
BRANCH  15  31
ATOM     31  O   UNL     1     -36.801  21.575  -0.621  0.00  0.00    -0.379 OA
ATOM     32  H   UNL     1     -37.345  22.045  -1.273  0.00  0.00    +0.211 HD
ENDBRANCH  15  31
TORSDOF 4
ENDMDL
MODEL 3
REMARK VINA RESULT:      -6.8      2.306      4.722
REMARK  Name = 60200847
REMARK  4 active torsions:
REMARK  status: ('A' for Active; 'I' for Inactive)
REMARK    1  A    between atoms: C_7  and  O_25
REMARK    2  A    between atoms: C_10  and  O_27
REMARK    3  A    between atoms: C_11  and  O_29
REMARK    4  A    between atoms: C_15  and  O_31
REMARK                            x       y       z     vdW  Elec       q    Type
REMARK                         _______ _______ _______ _____ _____    ______ ____
ROOT
ATOM      1  O   UNL     1     -36.268  22.091   4.523  0.00  0.00    -0.450 OA
ATOM      2  O   UNL     1     -41.739  24.051   0.776  0.00  0.00    -0.446 OA
ATOM      3  O   UNL     1     -34.514  22.403   5.963  0.00  0.00    -0.250 OA
ATOM      4  O   UNL     1     -42.721  24.470  -1.262  0.00  0.00    -0.245 OA
ATOM      5  C   UNL     1     -36.624  24.296   3.870  0.00  0.00    +0.053 C 
ATOM      6  C   UNL     1     -36.887  22.841   3.454  0.00  0.00    +0.198 C 
ATOM      7  C   UNL     1     -36.351  22.317   2.088  0.00  0.00    +0.175 C 
ATOM      8  C   UNL     1     -36.794  25.398   2.814  0.00  0.00    +0.007 C 
ATOM      9  C   UNL     1     -35.224  24.204   4.479  0.00  0.00    +0.103 C 
ATOM     10  C   UNL     1     -36.920  20.926   1.651  0.00  0.00    +0.116 C 
ATOM     11  C   UNL     1     -39.468  25.364   2.617  0.00  0.00    +0.116 C 
ATOM     12  C   UNL     1     -38.145  26.155   2.832  0.00  0.00    +0.030 C 
ATOM     13  C   UNL     1     -40.313  22.266   0.197  0.00  0.00    +0.071 C 
ATOM     14  C   UNL     1     -40.539  23.388   1.227  0.00  0.00    +0.202 C 
ATOM     15  C   UNL     1     -39.390  24.414   1.395  0.00  0.00    +0.175 C 
ATOM     16  C   UNL     1     -38.448  20.961   1.374  0.00  0.00    +0.030 C 
ATOM     17  C   UNL     1     -38.883  21.704   0.097  0.00  0.00    +0.011 C 
ATOM     18  C   UNL     1     -35.265  22.826   5.097  0.00  0.00    +0.317 C 
ATOM     19  C   UNL     1     -40.890  22.910  -1.017  0.00  0.00    +0.057 C 
ATOM     20  C   UNL     1     -36.161  20.369   0.435  0.00  0.00    +0.032 C 
ATOM     21  C   UNL     1     -34.950  25.275   5.523  0.00  0.00    +0.012 C 
ATOM     22  C   UNL     1     -40.615  26.381   2.499  0.00  0.00    +0.032 C 
ATOM     23  C   UNL     1     -41.895  23.902  -0.573  0.00  0.00    +0.337 C 
ATOM     24  C   UNL     1     -40.604  22.739  -2.310  0.00  0.00    +0.002 C 
ENDROOT
BRANCH   7  25
ATOM     25  O   UNL     1     -34.922  22.257   2.122  0.00  0.00    -0.379 OA
ATOM     26  H   UNL     1     -34.573  22.372   1.223  0.00  0.00    +0.211 HD
ENDBRANCH   7  25
BRANCH  10  27
ATOM     27  O   UNL     1     -36.704  20.007   2.731  0.00  0.00    -0.384 OA
ATOM     28  H   UNL     1     -36.283  20.472   3.471  0.00  0.00    +0.210 HD
ENDBRANCH  10  27
BRANCH  11  29
ATOM     29  O   UNL     1     -39.696  24.601   3.805  0.00  0.00    -0.384 OA
ATOM     30  H   UNL     1     -39.680  23.655   3.589  0.00  0.00    +0.210 HD
ENDBRANCH  11  29
BRANCH  15  31
ATOM     31  O   UNL     1     -39.211  25.154   0.189  0.00  0.00    -0.379 OA
ATOM     32  H   UNL     1     -39.460  26.079   0.337  0.00  0.00    +0.211 HD
ENDBRANCH  15  31
TORSDOF 4
ENDMDL
MODEL 4
REMARK VINA RESULT:      -6.4      2.040      5.898
REMARK  Name = 60200847
REMARK  4 active torsions:
REMARK  status: ('A' for Active; 'I' for Inactive)
REMARK    1  A    between atoms: C_7  and  O_25
REMARK    2  A    between atoms: C_10  and  O_27
REMARK    3  A    between atoms: C_11  and  O_29
REMARK    4  A    between atoms: C_15  and  O_31
REMARK                            x       y       z     vdW  Elec       q    Type
REMARK                         _______ _______ _______ _____ _____    ______ ____
ROOT
ATOM      1  O   UNL     1     -36.355  19.005   0.649  0.00  0.00    -0.450 OA
ATOM      2  O   UNL     1     -39.288  24.533   3.590  0.00  0.00    -0.446 OA
ATOM      3  O   UNL     1     -34.606  17.661   0.029  0.00  0.00    -0.250 OA
ATOM      4  O   UNL     1     -40.397  26.541   3.412  0.00  0.00    -0.245 OA
ATOM      5  C   UNL     1     -35.194  20.979   1.061  0.00  0.00    +0.053 C 
ATOM      6  C   UNL     1     -36.594  20.426   0.752  0.00  0.00    +0.198 C 
ATOM      7  C   UNL     1     -37.354  20.909  -0.519  0.00  0.00    +0.175 C 
ATOM      8  C   UNL     1     -34.947  22.483   0.874  0.00  0.00    +0.007 C 
ATOM      9  C   UNL     1     -34.302  20.074   0.209  0.00  0.00    +0.103 C 
ATOM     10  C   UNL     1     -38.865  20.502  -0.573  0.00  0.00    +0.116 C 
ATOM     11  C   UNL     1     -36.360  23.388   2.965  0.00  0.00    +0.116 C 
ATOM     12  C   UNL     1     -35.033  23.350   2.155  0.00  0.00    +0.030 C 
ATOM     13  C   UNL     1     -40.189  23.389   1.736  0.00  0.00    +0.071 C 
ATOM     14  C   UNL     1     -38.990  23.436   2.701  0.00  0.00    +0.202 C 
ATOM     15  C   UNL     1     -37.593  23.632   2.058  0.00  0.00    +0.175 C 
ATOM     16  C   UNL     1     -39.709  21.171   0.547  0.00  0.00    +0.030 C 
ATOM     17  C   UNL     1     -39.959  22.683   0.388  0.00  0.00    +0.011 C 
ATOM     18  C   UNL     1     -35.058  18.768   0.280  0.00  0.00    +0.317 C 
ATOM     19  C   UNL     1     -40.553  24.835   1.707  0.00  0.00    +0.057 C 
ATOM     20  C   UNL     1     -39.473  20.790  -1.955  0.00  0.00    +0.032 C 
ATOM     21  C   UNL     1     -32.890  19.931   0.758  0.00  0.00    +0.012 C 
ATOM     22  C   UNL     1     -36.217  24.458   4.061  0.00  0.00    +0.032 C 
ATOM     23  C   UNL     1     -40.099  25.445   2.976  0.00  0.00    +0.337 C 
ATOM     24  C   UNL     1     -41.139  25.563   0.754  0.00  0.00    +0.002 C 
ENDROOT
BRANCH   7  25
ATOM     25  O   UNL     1     -36.690  20.426  -1.691  0.00  0.00    -0.379 OA
ATOM     26  H   UNL     1     -35.756  20.688  -1.662  0.00  0.00    +0.211 HD
ENDBRANCH   7  25
BRANCH  10  27
ATOM     27  O   UNL     1     -38.942  19.083  -0.374  0.00  0.00    -0.384 OA
ATOM     28  H   UNL     1     -38.280  18.812   0.281  0.00  0.00    +0.210 HD
ENDBRANCH  10  27
BRANCH  11  29
ATOM     29  O   UNL     1     -36.488  22.123   3.619  0.00  0.00    -0.384 OA
ATOM     30  H   UNL     1     -35.861  21.493   3.229  0.00  0.00    +0.210 HD
ENDBRANCH  11  29
BRANCH  15  31
ATOM     31  O   UNL     1     -37.516  24.909   1.430  0.00  0.00    -0.379 OA
ATOM     32  H   UNL     1     -38.378  25.135   1.048  0.00  0.00    +0.211 HD
ENDBRANCH  15  31
TORSDOF 4
ENDMDL
MODEL 5
REMARK VINA RESULT:      -6.4      2.394      3.501
REMARK  Name = 60200847
REMARK  4 active torsions:
REMARK  status: ('A' for Active; 'I' for Inactive)
REMARK    1  A    between atoms: C_7  and  O_25
REMARK    2  A    between atoms: C_10  and  O_27
REMARK    3  A    between atoms: C_11  and  O_29
REMARK    4  A    between atoms: C_15  and  O_31
REMARK                            x       y       z     vdW  Elec       q    Type
REMARK                         _______ _______ _______ _____ _____    ______ ____
ROOT
ATOM      1  O   UNL     1     -32.776  27.602   2.881  0.00  0.00    -0.450 OA
ATOM      2  O   UNL     1     -37.613  22.688   2.359  0.00  0.00    -0.446 OA
ATOM      3  O   UNL     1     -31.121  28.788   3.931  0.00  0.00    -0.250 OA
ATOM      4  O   UNL     1     -39.823  22.062   2.238  0.00  0.00    -0.245 OA
ATOM      5  C   UNL     1     -33.774  26.614   4.736  0.00  0.00    +0.053 C 
ATOM      6  C   UNL     1     -34.026  26.988   3.267  0.00  0.00    +0.198 C 
ATOM      7  C   UNL     1     -35.198  27.945   2.901  0.00  0.00    +0.175 C 
ATOM      8  C   UNL     1     -34.985  26.278   5.619  0.00  0.00    +0.007 C 
ATOM      9  C   UNL     1     -32.934  27.795   5.224  0.00  0.00    +0.103 C 
ATOM     10  C   UNL     1     -35.530  28.022   1.373  0.00  0.00    +0.116 C 
ATOM     11  C   UNL     1     -35.617  23.899   4.554  0.00  0.00    +0.116 C 
ATOM     12  C   UNL     1     -35.295  24.772   5.803  0.00  0.00    +0.030 C 
ATOM     13  C   UNL     1     -37.696  24.750   1.220  0.00  0.00    +0.071 C 
ATOM     14  C   UNL     1     -36.881  23.926   2.234  0.00  0.00    +0.202 C 
ATOM     15  C   UNL     1     -36.668  24.565   3.630  0.00  0.00    +0.175 C 
ATOM     16  C   UNL     1     -36.059  26.677   0.804  0.00  0.00    +0.030 C 
ATOM     17  C   UNL     1     -37.480  26.274   1.242  0.00  0.00    +0.011 C 
ATOM     18  C   UNL     1     -32.149  28.130   3.978  0.00  0.00    +0.317 C 
ATOM     19  C   UNL     1     -39.066  24.241   1.515  0.00  0.00    +0.057 C 
ATOM     20  C   UNL     1     -36.514  29.163   1.071  0.00  0.00    +0.032 C 
ATOM     21  C   UNL     1     -32.016  27.442   6.384  0.00  0.00    +0.012 C 
ATOM     22  C   UNL     1     -36.062  22.513   5.046  0.00  0.00    +0.032 C 
ATOM     23  C   UNL     1     -38.936  22.878   2.075  0.00  0.00    +0.337 C 
ATOM     24  C   UNL     1     -40.258  24.829   1.384  0.00  0.00    +0.002 C 
ENDROOT
BRANCH   7  25
ATOM     25  O   UNL     1     -34.920  29.259   3.394  0.00  0.00    -0.379 OA
ATOM     26  H   UNL     1     -34.143  29.228   3.975  0.00  0.00    +0.211 HD
ENDBRANCH   7  25
BRANCH  10  27
ATOM     27  O   UNL     1     -34.313  28.329   0.678  0.00  0.00    -0.384 OA
ATOM     28  H   UNL     1     -33.564  27.927   1.144  0.00  0.00    +0.210 HD
ENDBRANCH  10  27
BRANCH  11  29
ATOM     29  O   UNL     1     -34.390  23.724   3.840  0.00  0.00    -0.384 OA
ATOM     30  H   UNL     1     -34.225  24.504   3.287  0.00  0.00    +0.210 HD
ENDBRANCH  11  29
BRANCH  15  31
ATOM     31  O   UNL     1     -37.916  24.708   4.302  0.00  0.00    -0.379 OA
ATOM     32  H   UNL     1     -37.809  24.472   5.237  0.00  0.00    +0.211 HD
ENDBRANCH  15  31
TORSDOF 4
ENDMDL
MODEL 6
REMARK VINA RESULT:      -6.4      2.384      6.337
REMARK  Name = 60200847
REMARK  4 active torsions:
REMARK  status: ('A' for Active; 'I' for Inactive)
REMARK    1  A    between atoms: C_7  and  O_25
REMARK    2  A    between atoms: C_10  and  O_27
REMARK    3  A    between atoms: C_11  and  O_29
REMARK    4  A    between atoms: C_15  and  O_31
REMARK                            x       y       z     vdW  Elec       q    Type
REMARK                         _______ _______ _______ _____ _____    ______ ____
ROOT
ATOM      1  O   UNL     1     -39.807  25.057   1.462  0.00  0.00    -0.450 OA
ATOM      2  O   UNL     1     -34.184  26.868   5.056  0.00  0.00    -0.446 OA
ATOM      3  O   UNL     1     -41.445  23.625   0.745  0.00  0.00    -0.250 OA
ATOM      4  O   UNL     1     -31.959  27.446   5.132  0.00  0.00    -0.245 OA
ATOM      5  C   UNL     1     -38.262  23.506   2.251  0.00  0.00    +0.053 C 
ATOM      6  C   UNL     1     -38.399  24.961   1.774  0.00  0.00    +0.198 C 
ATOM      7  C   UNL     1     -37.571  25.457   0.552  0.00  0.00    +0.175 C 
ATOM      8  C   UNL     1     -36.856  22.893   2.320  0.00  0.00    +0.007 C 
ATOM      9  C   UNL     1     -39.233  22.776   1.323  0.00  0.00    +0.103 C 
ATOM     10  C   UNL     1     -37.577  27.008   0.342  0.00  0.00    +0.116 C 
ATOM     11  C   UNL     1     -35.925  24.249   4.438  0.00  0.00    +0.116 C 
ATOM     12  C   UNL     1     -36.181  22.895   3.714  0.00  0.00    +0.030 C 
ATOM     13  C   UNL     1     -34.799  27.828   2.994  0.00  0.00    +0.071 C 
ATOM     14  C   UNL     1     -35.187  26.753   4.025  0.00  0.00    +0.202 C 
ATOM     15  C   UNL     1     -35.258  25.293   3.507  0.00  0.00    +0.175 C 
ATOM     16  C   UNL     1     -36.880  27.774   1.500  0.00  0.00    +0.030 C 
ATOM     17  C   UNL     1     -35.347  27.641   1.568  0.00  0.00    +0.011 C 
ATOM     18  C   UNL     1     -40.306  23.823   1.140  0.00  0.00    +0.317 C 
ATOM     19  C   UNL     1     -33.319  27.834   3.171  0.00  0.00    +0.057 C 
ATOM     20  C   UNL     1     -36.957  27.392  -1.011  0.00  0.00    +0.032 C 
ATOM     21  C   UNL     1     -39.799  21.499   1.927  0.00  0.00    +0.012 C 
ATOM     22  C   UNL     1     -35.088  23.964   5.696  0.00  0.00    +0.032 C 
ATOM     23  C   UNL     1     -33.023  27.375   4.546  0.00  0.00    +0.337 C 
ATOM     24  C   UNL     1     -32.343  28.135   2.312  0.00  0.00    +0.002 C 
ENDROOT
BRANCH   7  25
ATOM     25  O   UNL     1     -38.037  24.815  -0.639  0.00  0.00    -0.379 OA
ATOM     26  H   UNL     1     -38.384  25.483  -1.251  0.00  0.00    +0.211 HD
ENDBRANCH   7  25
BRANCH  10  27
ATOM     27  O   UNL     1     -38.945  27.439   0.309  0.00  0.00    -0.384 OA
ATOM     28  H   UNL     1     -39.475  26.794  -0.185  0.00  0.00    +0.210 HD
ENDBRANCH  10  27
BRANCH  11  29
ATOM     29  O   UNL     1     -37.197  24.736   4.875  0.00  0.00    -0.384 OA
ATOM     30  H   UNL     1     -37.369  25.600   4.467  0.00  0.00    +0.210 HD
ENDBRANCH  11  29
BRANCH  15  31
ATOM     31  O   UNL     1     -33.967  24.854   3.096  0.00  0.00    -0.379 OA
ATOM     32  H   UNL     1     -34.058  24.098   2.494  0.00  0.00    +0.211 HD
ENDBRANCH  15  31
TORSDOF 4
ENDMDL
MODEL 7
REMARK VINA RESULT:      -6.3      1.191      1.264
REMARK  Name = 60200847
REMARK  4 active torsions:
REMARK  status: ('A' for Active; 'I' for Inactive)
REMARK    1  A    between atoms: C_7  and  O_25
REMARK    2  A    between atoms: C_10  and  O_27
REMARK    3  A    between atoms: C_11  and  O_29
REMARK    4  A    between atoms: C_15  and  O_31
REMARK                            x       y       z     vdW  Elec       q    Type
REMARK                         _______ _______ _______ _____ _____    ______ ____
ROOT
ATOM      1  O   UNL     1     -36.230  25.775   3.074  0.00  0.00    -0.450 OA
ATOM      2  O   UNL     1     -36.547  20.190  -0.989  0.00  0.00    -0.446 OA
ATOM      3  O   UNL     1     -35.517  27.000   4.875  0.00  0.00    -0.250 OA
ATOM      4  O   UNL     1     -37.704  18.381  -1.817  0.00  0.00    -0.245 OA
ATOM      5  C   UNL     1     -35.677  23.642   3.820  0.00  0.00    +0.053 C 
ATOM      6  C   UNL     1     -36.568  24.394   2.819  0.00  0.00    +0.198 C 
ATOM      7  C   UNL     1     -38.115  24.229   2.882  0.00  0.00    +0.175 C 
ATOM      8  C   UNL     1     -36.009  22.174   4.129  0.00  0.00    +0.007 C 
ATOM      9  C   UNL     1     -35.706  24.573   5.032  0.00  0.00    +0.103 C 
ATOM     10  C   UNL     1     -38.887  24.807   1.649  0.00  0.00    +0.116 C 
ATOM     11  C   UNL     1     -35.247  21.086   1.800  0.00  0.00    +0.116 C 
ATOM     12  C   UNL     1     -35.187  21.114   3.355  0.00  0.00    +0.030 C 
ATOM     13  C   UNL     1     -38.310  21.732  -0.724  0.00  0.00    +0.071 C 
ATOM     14  C   UNL     1     -36.886  21.383  -0.252  0.00  0.00    +0.202 C 
ATOM     15  C   UNL     1     -36.702  21.145   1.269  0.00  0.00    +0.175 C 
ATOM     16  C   UNL     1     -38.564  24.054   0.330  0.00  0.00    +0.030 C 
ATOM     17  C   UNL     1     -39.141  22.631   0.209  0.00  0.00    +0.011 C 
ATOM     18  C   UNL     1     -35.784  25.924   4.361  0.00  0.00    +0.317 C 
ATOM     19  C   UNL     1     -38.829  20.364  -1.011  0.00  0.00    +0.057 C 
ATOM     20  C   UNL     1     -40.403  24.834   1.900  0.00  0.00    +0.032 C 
ATOM     21  C   UNL     1     -34.469  24.458   5.910  0.00  0.00    +0.012 C 
ATOM     22  C   UNL     1     -34.496  19.834   1.319  0.00  0.00    +0.032 C 
ATOM     23  C   UNL     1     -37.674  19.495  -1.328  0.00  0.00    +0.337 C 
ATOM     24  C   UNL     1     -40.073  19.883  -0.977  0.00  0.00    +0.002 C 
ENDROOT
BRANCH   7  25
ATOM     25  O   UNL     1     -38.616  24.829   4.080  0.00  0.00    -0.379 OA
ATOM     26  H   UNL     1     -39.536  24.552   4.219  0.00  0.00    +0.211 HD
ENDBRANCH   7  25
BRANCH  10  27
ATOM     27  O   UNL     1     -38.472  26.169   1.474  0.00  0.00    -0.384 OA
ATOM     28  H   UNL     1     -39.171  26.664   1.018  0.00  0.00    +0.210 HD
ENDBRANCH  10  27
BRANCH  11  29
ATOM     29  O   UNL     1     -34.518  22.225   1.333  0.00  0.00    -0.384 OA
ATOM     30  H   UNL     1     -34.251  22.082   0.412  0.00  0.00    +0.210 HD
ENDBRANCH  11  29
BRANCH  15  31
ATOM     31  O   UNL     1     -37.437  19.995   1.679  0.00  0.00    -0.379 OA
ATOM     32  H   UNL     1     -37.040  19.626   2.483  0.00  0.00    +0.211 HD
ENDBRANCH  15  31
TORSDOF 4
ENDMDL
MODEL 8
REMARK VINA RESULT:      -6.2      2.083      6.219
REMARK  Name = 60200847
REMARK  4 active torsions:
REMARK  status: ('A' for Active; 'I' for Inactive)
REMARK    1  A    between atoms: C_7  and  O_25
REMARK    2  A    between atoms: C_10  and  O_27
REMARK    3  A    between atoms: C_11  and  O_29
REMARK    4  A    between atoms: C_15  and  O_31
REMARK                            x       y       z     vdW  Elec       q    Type
REMARK                         _______ _______ _______ _____ _____    ______ ____
ROOT
ATOM      1  O   UNL     1     -40.791  21.066   0.404  0.00  0.00    -0.450 OA
ATOM      2  O   UNL     1     -35.354  22.980   4.223  0.00  0.00    -0.446 OA
ATOM      3  O   UNL     1     -41.911  19.771  -1.119  0.00  0.00    -0.250 OA
ATOM      4  O   UNL     1     -33.660  24.466   4.689  0.00  0.00    -0.245 OA
ATOM      5  C   UNL     1     -38.603  20.493  -0.142  0.00  0.00    +0.053 C 
ATOM      6  C   UNL     1     -39.446  21.572   0.557  0.00  0.00    +0.198 C 
ATOM      7  C   UNL     1     -39.395  23.043   0.050  0.00  0.00    +0.175 C 
ATOM      8  C   UNL     1     -37.157  20.837  -0.529  0.00  0.00    +0.007 C 
ATOM      9  C   UNL     1     -39.501  20.099  -1.315  0.00  0.00    +0.103 C 
ATOM     10  C   UNL     1     -40.062  24.089   1.005  0.00  0.00    +0.116 C 
ATOM     11  C   UNL     1     -36.077  20.866   1.926  0.00  0.00    +0.116 C 
ATOM     12  C   UNL     1     -36.059  20.360   0.454  0.00  0.00    +0.030 C 
ATOM     13  C   UNL     1     -37.017  24.464   3.455  0.00  0.00    +0.071 C 
ATOM     14  C   UNL     1     -36.550  22.997   3.415  0.00  0.00    +0.202 C 
ATOM     15  C   UNL     1     -36.258  22.403   2.014  0.00  0.00    +0.175 C 
ATOM     16  C   UNL     1     -39.322  24.220   2.364  0.00  0.00    +0.030 C 
ATOM     17  C   UNL     1     -37.950  24.918   2.319  0.00  0.00    +0.011 C 
ATOM     18  C   UNL     1     -40.872  20.259  -0.700  0.00  0.00    +0.317 C 
ATOM     19  C   UNL     1     -35.700  25.150   3.585  0.00  0.00    +0.057 C 
ATOM     20  C   UNL     1     -40.196  25.462   0.327  0.00  0.00    +0.032 C 
ATOM     21  C   UNL     1     -39.271  18.675  -1.798  0.00  0.00    +0.012 C 
ATOM     22  C   UNL     1     -34.785  20.387   2.608  0.00  0.00    +0.032 C 
ATOM     23  C   UNL     1     -34.755  24.209   4.226  0.00  0.00    +0.337 C 
ATOM     24  C   UNL     1     -35.312  26.367   3.195  0.00  0.00    +0.002 C 
ENDROOT
BRANCH   7  25
ATOM     25  O   UNL     1     -39.999  23.129  -1.245  0.00  0.00    -0.379 OA
ATOM     26  H   UNL     1     -39.307  23.119  -1.925  0.00  0.00    +0.211 HD
ENDBRANCH   7  25
BRANCH  10  27
ATOM     27  O   UNL     1     -41.394  23.635   1.287  0.00  0.00    -0.384 OA
ATOM     28  H   UNL     1     -41.982  23.885   0.557  0.00  0.00    +0.210 HD
ENDBRANCH  10  27
BRANCH  11  29
ATOM     29  O   UNL     1     -37.170  20.215   2.578  0.00  0.00    -0.384 OA
ATOM     30  H   UNL     1     -37.829  20.876   2.841  0.00  0.00    +0.210 HD
ENDBRANCH  11  29
BRANCH  15  31
ATOM     31  O   UNL     1     -35.156  23.078   1.413  0.00  0.00    -0.379 OA
ATOM     32  H   UNL     1     -35.432  23.967   1.137  0.00  0.00    +0.211 HD
ENDBRANCH  15  31
TORSDOF 4
ENDMDL
MODEL 9
REMARK VINA RESULT:      -6.2      2.972      5.275
REMARK  Name = 60200847
REMARK  4 active torsions:
REMARK  status: ('A' for Active; 'I' for Inactive)
REMARK    1  A    between atoms: C_7  and  O_25
REMARK    2  A    between atoms: C_10  and  O_27
REMARK    3  A    between atoms: C_11  and  O_29
REMARK    4  A    between atoms: C_15  and  O_31
REMARK                            x       y       z     vdW  Elec       q    Type
REMARK                         _______ _______ _______ _____ _____    ______ ____
ROOT
ATOM      1  O   UNL     1     -33.522  27.764   4.601  0.00  0.00    -0.450 OA
ATOM      2  O   UNL     1     -39.595  26.486   1.552  0.00  0.00    -0.446 OA
ATOM      3  O   UNL     1     -31.395  28.606   4.728  0.00  0.00    -0.250 OA
ATOM      4  O   UNL     1     -41.085  25.015   0.599  0.00  0.00    -0.245 OA
ATOM      5  C   UNL     1     -33.799  27.774   2.290  0.00  0.00    +0.053 C 
ATOM      6  C   UNL     1     -34.340  27.144   3.584  0.00  0.00    +0.198 C 
ATOM      7  C   UNL     1     -34.299  25.598   3.769  0.00  0.00    +0.175 C 
ATOM      8  C   UNL     1     -34.147  27.103   0.953  0.00  0.00    +0.007 C 
ATOM      9  C   UNL     1     -32.302  27.871   2.587  0.00  0.00    +0.103 C 
ATOM     10  C   UNL     1     -35.128  25.061   4.983  0.00  0.00    +0.116 C 
ATOM     11  C   UNL     1     -36.744  27.761   0.833  0.00  0.00    +0.116 C 
ATOM     12  C   UNL     1     -35.335  27.718   0.173  0.00  0.00    +0.030 C 
ATOM     13  C   UNL     1     -38.621  25.099   3.190  0.00  0.00    +0.071 C 
ATOM     14  C   UNL     1     -38.401  26.373   2.354  0.00  0.00    +0.202 C 
ATOM     15  C   UNL     1     -37.143  26.395   1.448  0.00  0.00    +0.175 C 
ATOM     16  C   UNL     1     -36.655  25.297   4.820  0.00  0.00    +0.030 C 
ATOM     17  C   UNL     1     -37.361  24.427   3.764  0.00  0.00    +0.011 C 
ATOM     18  C   UNL     1     -32.315  28.142   4.073  0.00  0.00    +0.317 C 
ATOM     19  C   UNL     1     -39.456  24.309   2.240  0.00  0.00    +0.057 C 
ATOM     20  C   UNL     1     -34.835  23.576   5.247  0.00  0.00    +0.032 C 
ATOM     21  C   UNL     1     -31.608  28.988   1.823  0.00  0.00    +0.012 C 
ATOM     22  C   UNL     1     -37.749  28.244  -0.225  0.00  0.00    +0.032 C 
ATOM     23  C   UNL     1     -40.162  25.259   1.353  0.00  0.00    +0.337 C 
ATOM     24  C   UNL     1     -39.589  22.989   2.093  0.00  0.00    +0.002 C 
ENDROOT
BRANCH   7  25
ATOM     25  O   UNL     1     -32.941  25.163   3.891  0.00  0.00    -0.379 OA
ATOM     26  H   UNL     1     -32.408  25.569   3.189  0.00  0.00    +0.211 HD
ENDBRANCH   7  25
BRANCH  10  27
ATOM     27  O   UNL     1     -34.708  25.780   6.151  0.00  0.00    -0.384 OA
ATOM     28  H   UNL     1     -33.987  25.298   6.585  0.00  0.00    +0.210 HD
ENDBRANCH  10  27
BRANCH  11  29
ATOM     29  O   UNL     1     -36.695  28.755   1.859  0.00  0.00    -0.384 OA
ATOM     30  H   UNL     1     -35.921  28.598   2.424  0.00  0.00    +0.210 HD
ENDBRANCH  11  29
BRANCH  15  31
ATOM     31  O   UNL     1     -37.247  25.395   0.438  0.00  0.00    -0.379 OA
ATOM     32  H   UNL     1     -36.610  25.582  -0.269  0.00  0.00    +0.211 HD
ENDBRANCH  15  31
TORSDOF 4
ENDMDL
