MODEL 1
REMARK VINA RESULT:      -6.9      0.000      0.000
REMARK  Name = 193476
REMARK  3 active torsions:
REMARK  status: ('A' for Active; 'I' for Inactive)
REMARK    1  A    between atoms: N_2  and  C_20
REMARK    2  A    between atoms: C_9  and  N_24
REMARK    3  A    between atoms: P_12  and  O_22
REMARK                            x       y       z     vdW  Elec       q    Type
REMARK                         _______ _______ _______ _____ _____    ______ ____
ROOT
ATOM      1  O   UNL     1     -40.420  22.302   1.498  0.00  0.00    -0.193 OA
ATOM      2  N   UNL     1     -36.468  23.467   3.776  0.00  0.00    -0.238 N 
ATOM      3  N   UNL     1     -35.367  21.576   3.171  0.00  0.00    -0.245 NA
ATOM      4  N   UNL     1     -38.607  23.056   2.671  0.00  0.00    -0.305 NA
ATOM      5  N   UNL     1     -38.574  20.968   1.494  0.00  0.00    -0.235 N 
ATOM      6  C   UNL     1     -37.395  22.793   3.015  0.00  0.00    +0.217 C 
ATOM      7  C   UNL     1     -35.327  22.708   3.834  0.00  0.00    +0.223 C 
ATOM      8  C   UNL     1     -36.645  21.559   2.625  0.00  0.00    +0.134 C 
ATOM      9  C   UNL     1     -37.274  20.663   1.857  0.00  0.00    +0.180 C 
ATOM     10  C   UNL     1     -39.260  22.127   1.874  0.00  0.00    +0.268 C 
ATOM     11  H   UNL     1     -39.052  20.321   0.927  0.00  0.00    +0.162 HD
ENDROOT
BRANCH   2  20
ATOM     12  P   UNL     1     -32.936  27.755   4.702  0.00  0.00    +0.476 P 
ATOM     13  O   UNL     1     -36.631  25.821   3.544  0.00  0.00    -0.335 OA
ATOM     14  O   UNL     1     -33.790  26.645   5.536  0.00  0.00    -0.273 OA
ATOM     15  O   UNL     1     -34.008  28.411   3.669  0.00  0.00    -0.271 OA
ATOM     16  O   UNL     1     -32.202  28.743   5.562  0.00  0.00    -0.227 OA
ATOM     17  C   UNL     1     -34.652  25.840   4.764  0.00  0.00    +0.160 C 
ATOM     18  C   UNL     1     -35.648  26.721   4.044  0.00  0.00    +0.175 C 
ATOM     19  C   UNL     1     -35.598  24.944   5.524  0.00  0.00    +0.084 C 
ATOM     20  C   UNL     1     -36.692  24.710   4.475  0.00  0.00    +0.198 C 
ATOM     21  C   UNL     1     -34.946  27.565   3.001  0.00  0.00    +0.186 C 
BRANCH  12  22
ATOM     22  O   UNL     1     -31.976  26.866   3.750  0.00  0.00    -0.302 OA
ATOM     23  H   UNL     1     -32.301  25.953   3.726  0.00  0.00    +0.222 HD
ENDBRANCH  12  22
ENDBRANCH   2  20
BRANCH   9  24
ATOM     24  N   UNL     1     -36.688  19.502   1.441  0.00  0.00    -0.301 NA
ATOM     25  H   UNL     1     -35.769  19.286   1.721  0.00  0.00    +0.121 HD
ATOM     26  H   UNL     1     -37.183  18.881   0.858  0.00  0.00    +0.121 HD
ENDBRANCH   9  24
TORSDOF 3
ENDMDL
MODEL 2
REMARK VINA RESULT:      -6.3      2.119      3.224
REMARK  Name = 193476
REMARK  3 active torsions:
REMARK  status: ('A' for Active; 'I' for Inactive)
REMARK    1  A    between atoms: N_2  and  C_20
REMARK    2  A    between atoms: C_9  and  N_24
REMARK    3  A    between atoms: P_12  and  O_22
REMARK                            x       y       z     vdW  Elec       q    Type
REMARK                         _______ _______ _______ _____ _____    ______ ____
ROOT
ATOM      1  O   UNL     1     -36.114  18.343  -0.015  0.00  0.00    -0.193 OA
ATOM      2  N   UNL     1     -37.131  22.086   2.654  0.00  0.00    -0.238 N 
ATOM      3  N   UNL     1     -39.190  22.382   1.744  0.00  0.00    -0.245 NA
ATOM      4  N   UNL     1     -36.403  20.139   1.373  0.00  0.00    -0.305 NA
ATOM      5  N   UNL     1     -38.103  19.444  -0.167  0.00  0.00    -0.235 N 
ATOM      6  C   UNL     1     -37.215  21.071   1.729  0.00  0.00    +0.217 C 
ATOM      7  C   UNL     1     -38.296  22.808   2.605  0.00  0.00    +0.223 C 
ATOM      8  C   UNL     1     -38.578  21.284   1.151  0.00  0.00    +0.134 C 
ATOM      9  C   UNL     1     -38.989  20.441   0.197  0.00  0.00    +0.180 C 
ATOM     10  C   UNL     1     -36.828  19.264   0.383  0.00  0.00    +0.268 C 
ATOM     11  H   UNL     1     -38.390  18.813  -0.867  0.00  0.00    +0.162 HD
ENDROOT
BRANCH   2  20
ATOM     12  P   UNL     1     -34.761  27.072   3.768  0.00  0.00    +0.476 P 
ATOM     13  O   UNL     1     -36.382  23.153   4.634  0.00  0.00    -0.335 OA
ATOM     14  O   UNL     1     -34.398  25.656   3.047  0.00  0.00    -0.273 OA
ATOM     15  O   UNL     1     -35.376  26.654   5.215  0.00  0.00    -0.271 OA
ATOM     16  O   UNL     1     -33.620  28.047   3.824  0.00  0.00    -0.227 OA
ATOM     17  C   UNL     1     -35.378  24.649   3.165  0.00  0.00    +0.160 C 
ATOM     18  C   UNL     1     -35.620  24.356   4.629  0.00  0.00    +0.175 C 
ATOM     19  C   UNL     1     -34.990  23.273   2.684  0.00  0.00    +0.084 C 
ATOM     20  C   UNL     1     -35.978  22.397   3.465  0.00  0.00    +0.198 C 
ATOM     21  C   UNL     1     -36.273  25.545   5.302  0.00  0.00    +0.186 C 
BRANCH  12  22
ATOM     22  O   UNL     1     -36.047  27.606   2.942  0.00  0.00    -0.302 OA
ATOM     23  H   UNL     1     -36.768  27.806   3.560  0.00  0.00    +0.222 HD
ENDBRANCH  12  22
ENDBRANCH   2  20
BRANCH   9  24
ATOM     24  N   UNL     1     -40.213  20.540  -0.401  0.00  0.00    -0.301 NA
ATOM     25  H   UNL     1     -41.013  20.189   0.054  0.00  0.00    +0.121 HD
ATOM     26  H   UNL     1     -40.296  20.961  -1.287  0.00  0.00    +0.121 HD
ENDBRANCH   9  24
TORSDOF 3
ENDMDL
MODEL 3
REMARK VINA RESULT:      -6.3      1.943      3.184
REMARK  Name = 193476
REMARK  3 active torsions:
REMARK  status: ('A' for Active; 'I' for Inactive)
REMARK    1  A    between atoms: N_2  and  C_20
REMARK    2  A    between atoms: C_9  and  N_24
REMARK    3  A    between atoms: P_12  and  O_22
REMARK                            x       y       z     vdW  Elec       q    Type
REMARK                         _______ _______ _______ _____ _____    ______ ____
ROOT
ATOM      1  O   UNL     1     -39.950  26.569   3.379  0.00  0.00    -0.193 OA
ATOM      2  N   UNL     1     -37.477  22.596   2.863  0.00  0.00    -0.238 N 
ATOM      3  N   UNL     1     -38.867  21.743   1.283  0.00  0.00    -0.245 NA
ATOM      4  N   UNL     1     -38.610  24.717   3.288  0.00  0.00    -0.305 NA
ATOM      5  N   UNL     1     -40.556  24.939   1.907  0.00  0.00    -0.235 N 
ATOM      6  C   UNL     1     -38.434  23.575   2.723  0.00  0.00    +0.217 C 
ATOM      7  C   UNL     1     -37.791  21.566   2.014  0.00  0.00    +0.223 C 
ATOM      8  C   UNL     1     -39.329  22.993   1.675  0.00  0.00    +0.134 C 
ATOM      9  C   UNL     1     -40.388  23.713   1.291  0.00  0.00    +0.180 C 
ATOM     10  C   UNL     1     -39.709  25.464   2.890  0.00  0.00    +0.268 C 
ATOM     11  H   UNL     1     -41.330  25.484   1.635  0.00  0.00    +0.162 HD
ENDROOT
BRANCH   2  20
ATOM     12  P   UNL     1     -33.810  26.694   4.075  0.00  0.00    +0.476 P 
ATOM     13  O   UNL     1     -36.671  23.547   4.879  0.00  0.00    -0.335 OA
ATOM     14  O   UNL     1     -33.828  25.179   3.476  0.00  0.00    -0.273 OA
ATOM     15  O   UNL     1     -34.692  26.610   5.440  0.00  0.00    -0.271 OA
ATOM     16  O   UNL     1     -32.436  27.274   4.247  0.00  0.00    -0.227 OA
ATOM     17  C   UNL     1     -35.081  24.533   3.500  0.00  0.00    +0.160 C 
ATOM     18  C   UNL     1     -35.575  24.454   4.927  0.00  0.00    +0.175 C 
ATOM     19  C   UNL     1     -35.091  23.069   3.139  0.00  0.00    +0.084 C 
ATOM     20  C   UNL     1     -36.389  22.607   3.812  0.00  0.00    +0.198 C 
ATOM     21  C   UNL     1     -35.896  25.839   5.449  0.00  0.00    +0.186 C 
BRANCH  12  22
ATOM     22  O   UNL     1     -34.754  27.523   3.055  0.00  0.00    -0.302 OA
ATOM     23  H   UNL     1     -35.189  28.247   3.533  0.00  0.00    +0.222 HD
ENDBRANCH  12  22
ENDBRANCH   2  20
BRANCH   9  24
ATOM     24  N   UNL     1     -41.273  23.281   0.343  0.00  0.00    -0.301 NA
ATOM     25  H   UNL     1     -41.367  22.318   0.160  0.00  0.00    +0.121 HD
ATOM     26  H   UNL     1     -41.815  23.933  -0.158  0.00  0.00    +0.121 HD
ENDBRANCH   9  24
TORSDOF 3
ENDMDL
MODEL 4
REMARK VINA RESULT:      -6.3      1.853      3.193
REMARK  Name = 193476
REMARK  3 active torsions:
REMARK  status: ('A' for Active; 'I' for Inactive)
REMARK    1  A    between atoms: N_2  and  C_20
REMARK    2  A    between atoms: C_9  and  N_24
REMARK    3  A    between atoms: P_12  and  O_22
REMARK                            x       y       z     vdW  Elec       q    Type
REMARK                         _______ _______ _______ _____ _____    ______ ____
ROOT
ATOM      1  O   UNL     1     -39.437  20.216   0.135  0.00  0.00    -0.193 OA
ATOM      2  N   UNL     1     -38.037  23.665   3.018  0.00  0.00    -0.238 N 
ATOM      3  N   UNL     1     -39.820  24.994   2.560  0.00  0.00    -0.245 NA
ATOM      4  N   UNL     1     -38.576  21.765   1.581  0.00  0.00    -0.305 NA
ATOM      5  N   UNL     1     -40.639  22.131   0.417  0.00  0.00    -0.235 N 
ATOM      6  C   UNL     1     -38.760  22.922   2.113  0.00  0.00    +0.217 C 
ATOM      7  C   UNL     1     -38.696  24.850   3.223  0.00  0.00    +0.223 C 
ATOM      8  C   UNL     1     -39.928  23.814   1.835  0.00  0.00    +0.134 C 
ATOM      9  C   UNL     1     -40.854  23.378   0.974  0.00  0.00    +0.180 C 
ATOM     10  C   UNL     1     -39.536  21.312   0.688  0.00  0.00    +0.268 C 
ATOM     11  H   UNL     1     -41.312  21.793  -0.218  0.00  0.00    +0.162 HD
ENDROOT
BRANCH   2  20
ATOM     12  P   UNL     1     -33.551  26.891   4.105  0.00  0.00    +0.476 P 
ATOM     13  O   UNL     1     -36.593  23.912   4.881  0.00  0.00    -0.335 OA
ATOM     14  O   UNL     1     -33.975  25.625   3.170  0.00  0.00    -0.273 OA
ATOM     15  O   UNL     1     -34.054  26.490   5.599  0.00  0.00    -0.271 OA
ATOM     16  O   UNL     1     -32.102  27.273   4.008  0.00  0.00    -0.227 OA
ATOM     17  C   UNL     1     -35.269  25.113   3.396  0.00  0.00    +0.160 C 
ATOM     18  C   UNL     1     -35.386  24.665   4.836  0.00  0.00    +0.175 C 
ATOM     19  C   UNL     1     -35.616  23.825   2.692  0.00  0.00    +0.084 C 
ATOM     20  C   UNL     1     -36.756  23.303   3.576  0.00  0.00    +0.198 C 
ATOM     21  C   UNL     1     -35.326  25.860   5.764  0.00  0.00    +0.186 C 
BRANCH  12  22
ATOM     22  O   UNL     1     -34.574  28.062   3.654  0.00  0.00    -0.302 OA
ATOM     23  H   UNL     1     -34.205  28.538   2.894  0.00  0.00    +0.222 HD
ENDBRANCH  12  22
ENDBRANCH   2  20
BRANCH   9  24
ATOM     24  N   UNL     1     -41.961  24.108   0.645  0.00  0.00    -0.301 NA
ATOM     25  H   UNL     1     -41.862  24.983   0.206  0.00  0.00    +0.121 HD
ATOM     26  H   UNL     1     -42.860  23.759   0.849  0.00  0.00    +0.121 HD
ENDBRANCH   9  24
TORSDOF 3
ENDMDL
MODEL 5
REMARK VINA RESULT:      -6.2      2.219      2.745
REMARK  Name = 193476
REMARK  3 active torsions:
REMARK  status: ('A' for Active; 'I' for Inactive)
REMARK    1  A    between atoms: N_2  and  C_20
REMARK    2  A    between atoms: C_9  and  N_24
REMARK    3  A    between atoms: P_12  and  O_22
REMARK                            x       y       z     vdW  Elec       q    Type
REMARK                         _______ _______ _______ _____ _____    ______ ____
ROOT
ATOM      1  O   UNL     1     -35.460  22.027   6.834  0.00  0.00    -0.193 OA
ATOM      2  N   UNL     1     -36.240  24.652   3.003  0.00  0.00    -0.238 N 
ATOM      3  N   UNL     1     -36.021  22.910   1.564  0.00  0.00    -0.245 NA
ATOM      4  N   UNL     1     -35.858  23.480   5.111  0.00  0.00    -0.305 NA
ATOM      5  N   UNL     1     -35.467  21.145   4.734  0.00  0.00    -0.235 N 
ATOM      6  C   UNL     1     -35.979  23.587   3.835  0.00  0.00    +0.217 C 
ATOM      7  C   UNL     1     -36.240  24.195   1.710  0.00  0.00    +0.223 C 
ATOM      8  C   UNL     1     -35.847  22.456   2.866  0.00  0.00    +0.134 C 
ATOM      9  C   UNL     1     -35.589  21.240   3.359  0.00  0.00    +0.180 C 
ATOM     10  C   UNL     1     -35.590  22.219   5.624  0.00  0.00    +0.268 C 
ATOM     11  H   UNL     1     -35.279  20.257   5.115  0.00  0.00    +0.162 HD
ENDROOT
BRANCH   2  20
ATOM     12  P   UNL     1     -32.293  28.514   4.106  0.00  0.00    +0.476 P 
ATOM     13  O   UNL     1     -35.917  26.912   2.365  0.00  0.00    -0.335 OA
ATOM     14  O   UNL     1     -33.500  27.720   4.860  0.00  0.00    -0.273 OA
ATOM     15  O   UNL     1     -32.965  29.092   2.742  0.00  0.00    -0.271 OA
ATOM     16  O   UNL     1     -31.606  29.544   4.956  0.00  0.00    -0.227 OA
ATOM     17  C   UNL     1     -34.296  26.903   4.031  0.00  0.00    +0.160 C 
ATOM     18  C   UNL     1     -34.926  27.751   2.949  0.00  0.00    +0.175 C 
ATOM     19  C   UNL     1     -35.536  26.314   4.656  0.00  0.00    +0.084 C 
ATOM     20  C   UNL     1     -36.387  26.028   3.414  0.00  0.00    +0.198 C 
ATOM     21  C   UNL     1     -33.864  28.265   1.999  0.00  0.00    +0.186 C 
BRANCH  12  22
ATOM     22  O   UNL     1     -31.319  27.331   3.585  0.00  0.00    -0.302 OA
ATOM     23  H   UNL     1     -30.921  27.588   2.739  0.00  0.00    +0.222 HD
ENDBRANCH  12  22
ENDBRANCH   2  20
BRANCH   9  24
ATOM     24  N   UNL     1     -35.448  20.134   2.568  0.00  0.00    -0.301 NA
ATOM     25  H   UNL     1     -36.047  20.000   1.798  0.00  0.00    +0.121 HD
ATOM     26  H   UNL     1     -34.749  19.471   2.770  0.00  0.00    +0.121 HD
ENDBRANCH   9  24
TORSDOF 3
ENDMDL
MODEL 6
REMARK VINA RESULT:      -6.1      4.347      6.290
REMARK  Name = 193476
REMARK  3 active torsions:
REMARK  status: ('A' for Active; 'I' for Inactive)
REMARK    1  A    between atoms: N_2  and  C_20
REMARK    2  A    between atoms: C_9  and  N_24
REMARK    3  A    between atoms: P_12  and  O_22
REMARK                            x       y       z     vdW  Elec       q    Type
REMARK                         _______ _______ _______ _____ _____    ______ ____
ROOT
ATOM      1  O   UNL     1     -39.369  25.979   2.060  0.00  0.00    -0.193 OA
ATOM      2  N   UNL     1     -36.513  22.398   3.151  0.00  0.00    -0.238 N 
ATOM      3  N   UNL     1     -35.457  23.532   4.811  0.00  0.00    -0.245 NA
ATOM      4  N   UNL     1     -38.081  24.123   2.423  0.00  0.00    -0.305 NA
ATOM      5  N   UNL     1     -37.827  26.117   3.730  0.00  0.00    -0.235 N 
ATOM      6  C   UNL     1     -37.138  23.624   3.142  0.00  0.00    +0.217 C 
ATOM      7  C   UNL     1     -35.551  22.415   4.128  0.00  0.00    +0.223 C 
ATOM      8  C   UNL     1     -36.431  24.346   4.245  0.00  0.00    +0.134 C 
ATOM      9  C   UNL     1     -36.808  25.601   4.510  0.00  0.00    +0.180 C 
ATOM     10  C   UNL     1     -38.473  25.425   2.698  0.00  0.00    +0.268 C 
ATOM     11  H   UNL     1     -38.119  27.039   3.913  0.00  0.00    +0.162 HD
ENDROOT
BRANCH   2  20
ATOM     12  P   UNL     1     -33.152  20.212  -0.803  0.00  0.00    +0.476 P 
ATOM     13  O   UNL     1     -35.902  20.191   2.539  0.00  0.00    -0.335 OA
ATOM     14  O   UNL     1     -34.579  20.989  -0.675  0.00  0.00    -0.273 OA
ATOM     15  O   UNL     1     -33.242  19.000   0.278  0.00  0.00    -0.271 OA
ATOM     16  O   UNL     1     -32.804  19.788  -2.201  0.00  0.00    -0.227 OA
ATOM     17  C   UNL     1     -35.030  21.213   0.643  0.00  0.00    +0.160 C 
ATOM     18  C   UNL     1     -35.178  19.885   1.352  0.00  0.00    +0.175 C 
ATOM     19  C   UNL     1     -36.432  21.748   0.793  0.00  0.00    +0.084 C 
ATOM     20  C   UNL     1     -36.761  21.317   2.227  0.00  0.00    +0.198 C 
ATOM     21  C   UNL     1     -33.822  19.246   1.561  0.00  0.00    +0.186 C 
BRANCH  12  22
ATOM     22  O   UNL     1     -32.092  21.241  -0.142  0.00  0.00    -0.302 OA
ATOM     23  H   UNL     1     -32.506  22.113  -0.042  0.00  0.00    +0.222 HD
ENDBRANCH  12  22
ENDBRANCH   2  20
BRANCH   9  24
ATOM     24  N   UNL     1     -36.233  26.355   5.494  0.00  0.00    -0.301 NA
ATOM     25  H   UNL     1     -35.863  27.242   5.282  0.00  0.00    +0.121 HD
ATOM     26  H   UNL     1     -36.186  26.010   6.416  0.00  0.00    +0.121 HD
ENDBRANCH   9  24
TORSDOF 3
ENDMDL
MODEL 7
REMARK VINA RESULT:      -6.0      1.205      1.226
REMARK  Name = 193476
REMARK  3 active torsions:
REMARK  status: ('A' for Active; 'I' for Inactive)
REMARK    1  A    between atoms: N_2  and  C_20
REMARK    2  A    between atoms: C_9  and  N_24
REMARK    3  A    between atoms: P_12  and  O_22
REMARK                            x       y       z     vdW  Elec       q    Type
REMARK                         _______ _______ _______ _____ _____    ______ ____
ROOT
ATOM      1  O   UNL     1     -38.551  23.349  -0.149  0.00  0.00    -0.193 OA
ATOM      2  N   UNL     1     -36.326  24.220   3.908  0.00  0.00    -0.238 N 
ATOM      3  N   UNL     1     -35.806  22.042   4.280  0.00  0.00    -0.245 NA
ATOM      4  N   UNL     1     -37.523  23.990   1.792  0.00  0.00    -0.305 NA
ATOM      5  N   UNL     1     -37.586  21.699   1.090  0.00  0.00    -0.235 N 
ATOM      6  C   UNL     1     -36.865  23.577   2.817  0.00  0.00    +0.217 C 
ATOM      7  C   UNL     1     -35.740  23.278   4.714  0.00  0.00    +0.223 C 
ATOM      8  C   UNL     1     -36.503  22.150   3.083  0.00  0.00    +0.134 C 
ATOM      9  C   UNL     1     -36.885  21.233   2.187  0.00  0.00    +0.180 C 
ATOM     10  C   UNL     1     -37.919  23.039   0.862  0.00  0.00    +0.268 C 
ATOM     11  H   UNL     1     -37.873  21.038   0.419  0.00  0.00    +0.162 HD
ENDROOT
BRANCH   2  20
ATOM     12  P   UNL     1     -32.340  28.192   4.135  0.00  0.00    +0.476 P 
ATOM     13  O   UNL     1     -36.124  26.410   3.023  0.00  0.00    -0.335 OA
ATOM     14  O   UNL     1     -33.430  27.467   5.106  0.00  0.00    -0.273 OA
ATOM     15  O   UNL     1     -33.187  28.632   2.818  0.00  0.00    -0.271 OA
ATOM     16  O   UNL     1     -31.570  29.302   4.791  0.00  0.00    -0.227 OA
ATOM     17  C   UNL     1     -34.309  26.570   4.466  0.00  0.00    +0.160 C 
ATOM     18  C   UNL     1     -35.083  27.307   3.396  0.00  0.00    +0.175 C 
ATOM     19  C   UNL     1     -35.450  26.037   5.295  0.00  0.00    +0.084 C 
ATOM     20  C   UNL     1     -36.445  25.628   4.202  0.00  0.00    +0.198 C 
ATOM     21  C   UNL     1     -34.157  27.734   2.276  0.00  0.00    +0.186 C 
BRANCH  12  22
ATOM     22  O   UNL     1     -31.418  26.969   3.611  0.00  0.00    -0.302 OA
ATOM     23  H   UNL     1     -30.844  26.664   4.331  0.00  0.00    +0.222 HD
ENDBRANCH  12  22
ENDBRANCH   2  20
BRANCH   9  24
ATOM     24  N   UNL     1     -36.610  19.902   2.326  0.00  0.00    -0.301 NA
ATOM     25  H   UNL     1     -37.291  19.294   2.694  0.00  0.00    +0.121 HD
ATOM     26  H   UNL     1     -35.729  19.551   2.060  0.00  0.00    +0.121 HD
ENDBRANCH   9  24
TORSDOF 3
ENDMDL
MODEL 8
REMARK VINA RESULT:      -5.9      4.410      7.585
REMARK  Name = 193476
REMARK  3 active torsions:
REMARK  status: ('A' for Active; 'I' for Inactive)
REMARK    1  A    between atoms: N_2  and  C_20
REMARK    2  A    between atoms: C_9  and  N_24
REMARK    3  A    between atoms: P_12  and  O_22
REMARK                            x       y       z     vdW  Elec       q    Type
REMARK                         _______ _______ _______ _____ _____    ______ ____
ROOT
ATOM      1  O   UNL     1     -31.394  30.871   2.835  0.00  0.00    -0.193 OA
ATOM      2  N   UNL     1     -33.797  27.024   4.100  0.00  0.00    -0.238 N 
ATOM      3  N   UNL     1     -32.962  26.997   6.211  0.00  0.00    -0.245 NA
ATOM      4  N   UNL     1     -32.644  28.997   3.239  0.00  0.00    -0.305 NA
ATOM      5  N   UNL     1     -31.246  29.974   4.924  0.00  0.00    -0.235 N 
ATOM      6  C   UNL     1     -32.961  28.117   4.122  0.00  0.00    +0.217 C 
ATOM      7  C   UNL     1     -33.743  26.418   5.329  0.00  0.00    +0.223 C 
ATOM      8  C   UNL     1     -32.432  28.080   5.520  0.00  0.00    +0.134 C 
ATOM      9  C   UNL     1     -31.570  29.035   5.886  0.00  0.00    +0.180 C 
ATOM     10  C   UNL     1     -31.750  29.988   3.618  0.00  0.00    +0.268 C 
ATOM     11  H   UNL     1     -30.614  30.686   5.176  0.00  0.00    +0.162 HD
ENDROOT
BRANCH   2  20
ATOM     12  P   UNL     1     -36.115  21.975   3.178  0.00  0.00    +0.476 P 
ATOM     13  O   UNL     1     -35.909  26.296   3.307  0.00  0.00    -0.335 OA
ATOM     14  O   UNL     1     -34.955  22.941   2.564  0.00  0.00    -0.273 OA
ATOM     15  O   UNL     1     -37.423  22.932   3.314  0.00  0.00    -0.271 OA
ATOM     16  O   UNL     1     -36.337  20.708   2.403  0.00  0.00    -0.227 OA
ATOM     17  C   UNL     1     -34.868  24.224   3.142  0.00  0.00    +0.160 C 
ATOM     18  C   UNL     1     -36.187  24.942   2.966  0.00  0.00    +0.175 C 
ATOM     19  C   UNL     1     -33.944  25.206   2.466  0.00  0.00    +0.084 C 
ATOM     20  C   UNL     1     -34.525  26.540   2.951  0.00  0.00    +0.198 C 
ATOM     21  C   UNL     1     -37.265  24.270   3.791  0.00  0.00    +0.186 C 
BRANCH  12  22
ATOM     22  O   UNL     1     -35.648  21.739   4.710  0.00  0.00    -0.302 OA
ATOM     23  H   UNL     1     -36.390  21.380   5.222  0.00  0.00    +0.222 HD
ENDBRANCH  12  22
ENDBRANCH   2  20
BRANCH   9  24
ATOM     24  N   UNL     1     -31.023  29.100   7.136  0.00  0.00    -0.301 NA
ATOM     25  H   UNL     1     -30.069  29.316   7.246  0.00  0.00    +0.121 HD
ATOM     26  H   UNL     1     -31.583  28.929   7.928  0.00  0.00    +0.121 HD
ENDBRANCH   9  24
TORSDOF 3
ENDMDL
MODEL 9
REMARK VINA RESULT:      -5.9      2.369      3.832
REMARK  Name = 193476
REMARK  3 active torsions:
REMARK  status: ('A' for Active; 'I' for Inactive)
REMARK    1  A    between atoms: N_2  and  C_20
REMARK    2  A    between atoms: C_9  and  N_24
REMARK    3  A    between atoms: P_12  and  O_22
REMARK                            x       y       z     vdW  Elec       q    Type
REMARK                         _______ _______ _______ _____ _____    ______ ____
ROOT
ATOM      1  O   UNL     1     -37.810  19.099  -1.900  0.00  0.00    -0.193 OA
ATOM      2  N   UNL     1     -37.522  21.913   1.864  0.00  0.00    -0.238 N 
ATOM      3  N   UNL     1     -39.761  22.273   1.971  0.00  0.00    -0.245 NA
ATOM      4  N   UNL     1     -37.446  20.437  -0.080  0.00  0.00    -0.305 NA
ATOM      5  N   UNL     1     -39.649  20.038  -0.938  0.00  0.00    -0.235 N 
ATOM      6  C   UNL     1     -38.010  21.175   0.811  0.00  0.00    +0.217 C 
ATOM      7  C   UNL     1     -38.580  22.528   2.483  0.00  0.00    +0.223 C 
ATOM      8  C   UNL     1     -39.482  21.422   0.908  0.00  0.00    +0.134 C 
ATOM      9  C   UNL     1     -40.274  20.831   0.007  0.00  0.00    +0.180 C 
ATOM     10  C   UNL     1     -38.267  19.823  -1.014  0.00  0.00    +0.268 C 
ATOM     11  H   UNL     1     -40.217  19.593  -1.608  0.00  0.00    +0.162 HD
ENDROOT
BRANCH   2  20
ATOM     12  P   UNL     1     -35.056  25.890   4.998  0.00  0.00    +0.476 P 
ATOM     13  O   UNL     1     -35.928  21.881   3.618  0.00  0.00    -0.335 OA
ATOM     14  O   UNL     1     -35.054  25.335   3.466  0.00  0.00    -0.273 OA
ATOM     15  O   UNL     1     -34.868  24.562   5.919  0.00  0.00    -0.271 OA
ATOM     16  O   UNL     1     -34.064  26.986   5.260  0.00  0.00    -0.227 OA
ATOM     17  C   UNL     1     -35.819  24.172   3.242  0.00  0.00    +0.160 C 
ATOM     18  C   UNL     1     -35.302  23.056   4.122  0.00  0.00    +0.175 C 
ATOM     19  C   UNL     1     -35.679  23.524   1.888  0.00  0.00    +0.084 C 
ATOM     20  C   UNL     1     -36.129  22.091   2.197  0.00  0.00    +0.198 C 
ATOM     21  C   UNL     1     -35.574  23.367   5.579  0.00  0.00    +0.186 C 
BRANCH  12  22
ATOM     22  O   UNL     1     -36.596  26.319   5.250  0.00  0.00    -0.302 OA
ATOM     23  H   UNL     1     -37.176  25.560   5.077  0.00  0.00    +0.222 HD
ENDBRANCH  12  22
ENDBRANCH   2  20
BRANCH   9  24
ATOM     24  N   UNL     1     -41.632  20.986   0.000  0.00  0.00    -0.301 NA
ATOM     25  H   UNL     1     -42.217  20.200  -0.101  0.00  0.00    +0.121 HD
ATOM     26  H   UNL     1     -42.026  21.883   0.094  0.00  0.00    +0.121 HD
ENDBRANCH   9  24
TORSDOF 3
ENDMDL
