MODEL 1
REMARK VINA RESULT:      -6.5      0.000      0.000
REMARK  Name = 21120714
REMARK  6 active torsions:
REMARK  status: ('A' for Active; 'I' for Inactive)
REMARK    1  A    between atoms: C2*_2  and  O2*_17
REMARK    2  A    between atoms: C3*_3  and  O3*_19
REMARK    3  A    between atoms: C1*_4  and  N_8
REMARK    4  A    between atoms: C4*_5  and  C5*_21
REMARK    5  A    between atoms: C_12  and  C_15
REMARK    6  A    between atoms: C5*_21  and  O5*_22
REMARK                            x       y       z     vdW  Elec       q    Type
REMARK                         _______ _______ _______ _____ _____    ______ ____
ROOT
ATOM      1  O4* UNL     1     -37.333  22.549   1.517  0.00  0.00    -0.333 OA
ATOM      2  C2* UNL     1     -39.490  23.145   2.328  0.00  0.00    +0.187 C 
ATOM      3  C3* UNL     1     -39.589  21.871   1.519  0.00  0.00    +0.171 C 
ATOM      4  C1* UNL     1     -38.128  23.678   1.914  0.00  0.00    +0.229 C 
ATOM      5  C4* UNL     1     -38.156  21.373   1.574  0.00  0.00    +0.175 C 
ENDROOT
BRANCH   4   8
ATOM      6  O   UNL     1     -38.458  26.417   2.504  0.00  0.00    -0.252 OA
ATOM      7  O   UNL     1     -35.539  26.224   6.048  0.00  0.00    -0.270 OA
ATOM      8  N   UNL     1     -37.463  24.361   2.987  0.00  0.00    -0.217 N 
ATOM      9  N   UNL     1     -36.998  26.301   4.270  0.00  0.00    -0.236 N 
ATOM     10  C   UNL     1     -36.590  23.665   3.816  0.00  0.00    +0.076 C 
ATOM     11  C   UNL     1     -37.698  25.737   3.198  0.00  0.00    +0.315 C 
ATOM     12  C   UNL     1     -35.920  24.204   4.844  0.00  0.00    +0.069 C 
ATOM     13  C   UNL     1     -36.118  25.655   5.126  0.00  0.00    +0.254 C 
ATOM     14  H   UNL     1     -37.146  27.260   4.434  0.00  0.00    +0.159 HD
BRANCH  12  15
ATOM     15  C   UNL     1     -35.030  23.426   5.665  0.00  0.00    +0.006 C 
ATOM     16  C   UNL     1     -35.366  22.254   6.204  0.00  0.00    +0.000 C 
ENDBRANCH  12  15
ENDBRANCH   4   8
BRANCH   2  17
ATOM     17  O2* UNL     1     -40.529  24.043   1.984  0.00  0.00    -0.378 OA
ATOM     18  H2* UNL     1     -41.181  24.075   2.702  0.00  0.00    +0.211 HD
ENDBRANCH   2  17
BRANCH   3  19
ATOM     19  O3* UNL     1     -40.478  20.939   2.103  0.00  0.00    -0.379 OA
ATOM     20  H3* UNL     1     -41.270  20.856   1.549  0.00  0.00    +0.211 HD
ENDBRANCH   3  19
BRANCH   5  21
ATOM     21  C5* UNL     1     -37.799  20.440   0.430  0.00  0.00    +0.169 C 
BRANCH  21  22
ATOM     22  O5* UNL     1     -38.952  19.699   0.066  0.00  0.00    -0.379 OA
ATOM     23  H5* UNL     1     -39.074  19.742  -0.896  0.00  0.00    +0.211 HD
ENDBRANCH  21  22
ENDBRANCH   5  21
TORSDOF 6
ENDMDL
MODEL 2
REMARK VINA RESULT:      -5.7      3.169      6.404
REMARK  Name = 21120714
REMARK  6 active torsions:
REMARK  status: ('A' for Active; 'I' for Inactive)
REMARK    1  A    between atoms: C2*_2  and  O2*_17
REMARK    2  A    between atoms: C3*_3  and  O3*_19
REMARK    3  A    between atoms: C1*_4  and  N_8
REMARK    4  A    between atoms: C4*_5  and  C5*_21
REMARK    5  A    between atoms: C_12  and  C_15
REMARK    6  A    between atoms: C5*_21  and  O5*_22
REMARK                            x       y       z     vdW  Elec       q    Type
REMARK                         _______ _______ _______ _____ _____    ______ ____
ROOT
ATOM      1  O4* UNL     1     -33.448  25.397   4.364  0.00  0.00    -0.333 OA
ATOM      2  C2* UNL     1     -35.738  26.045   4.301  0.00  0.00    +0.187 C 
ATOM      3  C3* UNL     1     -34.863  27.277   4.248  0.00  0.00    +0.171 C 
ATOM      4  C1* UNL     1     -34.760  24.982   4.778  0.00  0.00    +0.229 C 
ATOM      5  C4* UNL     1     -33.555  26.691   3.748  0.00  0.00    +0.175 C 
ENDROOT
BRANCH   4   8
ATOM      6  O   UNL     1     -35.536  22.722   6.277  0.00  0.00    -0.252 OA
ATOM      7  O   UNL     1     -35.820  20.072   2.534  0.00  0.00    -0.270 OA
ATOM      8  N   UNL     1     -35.042  23.694   4.213  0.00  0.00    -0.217 N 
ATOM      9  N   UNL     1     -35.673  21.414   4.397  0.00  0.00    -0.236 N 
ATOM     10  C   UNL     1     -34.938  23.501   2.840  0.00  0.00    +0.076 C 
ATOM     11  C   UNL     1     -35.423  22.625   5.053  0.00  0.00    +0.315 C 
ATOM     12  C   UNL     1     -35.178  22.343   2.211  0.00  0.00    +0.069 C 
ATOM     13  C   UNL     1     -35.585  21.168   3.035  0.00  0.00    +0.254 C 
ATOM     14  H   UNL     1     -35.939  20.656   4.964  0.00  0.00    +0.159 HD
BRANCH  12  15
ATOM     15  C   UNL     1     -35.052  22.211   0.782  0.00  0.00    +0.006 C 
ATOM     16  C   UNL     1     -33.887  22.020   0.163  0.00  0.00    +0.000 C 
ENDBRANCH  12  15
ENDBRANCH   4   8
BRANCH   2  17
ATOM     17  O2* UNL     1     -36.804  26.222   5.217  0.00  0.00    -0.378 OA
ATOM     18  H2* UNL     1     -37.267  27.051   5.019  0.00  0.00    +0.211 HD
ENDBRANCH   2  17
BRANCH   3  19
ATOM     19  O3* UNL     1     -35.366  28.247   3.350  0.00  0.00    -0.379 OA
ATOM     20  H3* UNL     1     -36.040  27.842   2.782  0.00  0.00    +0.211 HD
ENDBRANCH   3  19
BRANCH   5  21
ATOM     21  C5* UNL     1     -32.343  27.531   4.106  0.00  0.00    +0.169 C 
BRANCH  21  22
ATOM     22  O5* UNL     1     -32.768  28.643   4.878  0.00  0.00    -0.379 OA
ATOM     23  H5* UNL     1     -31.995  29.075   5.274  0.00  0.00    +0.211 HD
ENDBRANCH  21  22
ENDBRANCH   5  21
TORSDOF 6
ENDMDL
MODEL 3
REMARK VINA RESULT:      -5.7      1.981      6.055
REMARK  Name = 21120714
REMARK  6 active torsions:
REMARK  status: ('A' for Active; 'I' for Inactive)
REMARK    1  A    between atoms: C2*_2  and  O2*_17
REMARK    2  A    between atoms: C3*_3  and  O3*_19
REMARK    3  A    between atoms: C1*_4  and  N_8
REMARK    4  A    between atoms: C4*_5  and  C5*_21
REMARK    5  A    between atoms: C_12  and  C_15
REMARK    6  A    between atoms: C5*_21  and  O5*_22
REMARK                            x       y       z     vdW  Elec       q    Type
REMARK                         _______ _______ _______ _____ _____    ______ ____
ROOT
ATOM      1  O4* UNL     1     -35.994  25.045   2.395  0.00  0.00    -0.333 OA
ATOM      2  C2* UNL     1     -36.532  24.425   4.629  0.00  0.00    +0.187 C 
ATOM      3  C3* UNL     1     -35.827  25.762   4.632  0.00  0.00    +0.171 C 
ATOM      4  C1* UNL     1     -36.213  23.902   3.237  0.00  0.00    +0.229 C 
ATOM      5  C4* UNL     1     -36.067  26.228   3.207  0.00  0.00    +0.175 C 
ENDROOT
BRANCH   4   8
ATOM      6  O   UNL     1     -36.128  21.103   2.893  0.00  0.00    -0.252 OA
ATOM      7  O   UNL     1     -40.372  20.975   1.137  0.00  0.00    -0.270 OA
ATOM      8  N   UNL     1     -37.286  23.120   2.692  0.00  0.00    -0.217 N 
ATOM      9  N   UNL     1     -38.248  21.059   2.019  0.00  0.00    -0.236 N 
ATOM     10  C   UNL     1     -38.464  23.742   2.295  0.00  0.00    +0.076 C 
ATOM     11  C   UNL     1     -37.142  21.721   2.562  0.00  0.00    +0.315 C 
ATOM     12  C   UNL     1     -39.524  23.108   1.775  0.00  0.00    +0.069 C 
ATOM     13  C   UNL     1     -39.444  21.628   1.607  0.00  0.00    +0.254 C 
ATOM     14  H   UNL     1     -38.169  20.083   1.918  0.00  0.00    +0.159 HD
BRANCH  12  15
ATOM     15  C   UNL     1     -40.717  23.814   1.383  0.00  0.00    +0.006 C 
ATOM     16  C   UNL     1     -40.978  25.070   1.745  0.00  0.00    +0.000 C 
ENDBRANCH  12  15
ENDBRANCH   4   8
BRANCH   2  17
ATOM     17  O2* UNL     1     -36.011  23.577   5.637  0.00  0.00    -0.378 OA
ATOM     18  H2* UNL     1     -36.701  22.964   5.933  0.00  0.00    +0.211 HD
ENDBRANCH   2  17
BRANCH   3  19
ATOM     19  O3* UNL     1     -36.396  26.659   5.566  0.00  0.00    -0.379 OA
ATOM     20  H3* UNL     1     -35.842  26.692   6.361  0.00  0.00    +0.211 HD
ENDBRANCH   3  19
BRANCH   5  21
ATOM     21  C5* UNL     1     -35.048  27.245   2.726  0.00  0.00    +0.169 C 
BRANCH  21  22
ATOM     22  O5* UNL     1     -35.253  28.463   3.422  0.00  0.00    -0.379 OA
ATOM     23  H5* UNL     1     -35.505  28.272   4.340  0.00  0.00    +0.211 HD
ENDBRANCH  21  22
ENDBRANCH   5  21
TORSDOF 6
ENDMDL
MODEL 4
REMARK VINA RESULT:      -5.5      1.420      1.940
REMARK  Name = 21120714
REMARK  6 active torsions:
REMARK  status: ('A' for Active; 'I' for Inactive)
REMARK    1  A    between atoms: C2*_2  and  O2*_17
REMARK    2  A    between atoms: C3*_3  and  O3*_19
REMARK    3  A    between atoms: C1*_4  and  N_8
REMARK    4  A    between atoms: C4*_5  and  C5*_21
REMARK    5  A    between atoms: C_12  and  C_15
REMARK    6  A    between atoms: C5*_21  and  O5*_22
REMARK                            x       y       z     vdW  Elec       q    Type
REMARK                         _______ _______ _______ _____ _____    ______ ____
ROOT
ATOM      1  O4* UNL     1     -36.302  22.754   0.699  0.00  0.00    -0.333 OA
ATOM      2  C2* UNL     1     -37.681  21.416   2.104  0.00  0.00    +0.187 C 
ATOM      3  C3* UNL     1     -37.166  20.578   0.956  0.00  0.00    +0.171 C 
ATOM      4  C1* UNL     1     -37.409  22.829   1.612  0.00  0.00    +0.229 C 
ATOM      5  C4* UNL     1     -35.943  21.373   0.533  0.00  0.00    +0.175 C 
ENDROOT
BRANCH   4   8
ATOM      6  O   UNL     1     -38.127  25.556   1.702  0.00  0.00    -0.252 OA
ATOM      7  O   UNL     1     -36.069  26.184   5.761  0.00  0.00    -0.270 OA
ATOM      8  N   UNL     1     -37.071  23.720   2.684  0.00  0.00    -0.217 N 
ATOM      9  N   UNL     1     -37.094  25.850   3.729  0.00  0.00    -0.236 N 
ATOM     10  C   UNL     1     -36.341  23.252   3.771  0.00  0.00    +0.076 C 
ATOM     11  C   UNL     1     -37.479  25.071   2.632  0.00  0.00    +0.315 C 
ATOM     12  C   UNL     1     -35.973  23.997   4.822  0.00  0.00    +0.069 C 
ATOM     13  C   UNL     1     -36.369  25.435   4.836  0.00  0.00    +0.254 C 
ATOM     14  H   UNL     1     -37.367  26.795   3.712  0.00  0.00    +0.159 HD
BRANCH  12  15
ATOM     15  C   UNL     1     -35.217  23.448   5.918  0.00  0.00    +0.006 C 
ATOM     16  C   UNL     1     -35.224  22.154   6.238  0.00  0.00    +0.000 C 
ENDBRANCH  12  15
ENDBRANCH   4   8
BRANCH   2  17
ATOM     17  O2* UNL     1     -39.063  21.192   2.311  0.00  0.00    -0.378 OA
ATOM     18  H2* UNL     1     -39.560  21.492   1.534  0.00  0.00    +0.211 HD
ENDBRANCH   2  17
BRANCH   3  19
ATOM     19  O3* UNL     1     -36.809  19.273   1.369  0.00  0.00    -0.379 OA
ATOM     20  H3* UNL     1     -36.083  19.324   2.008  0.00  0.00    +0.211 HD
ENDBRANCH   3  19
BRANCH   5  21
ATOM     21  C5* UNL     1     -35.529  21.120  -0.906  0.00  0.00    +0.169 C 
BRANCH  21  22
ATOM     22  O5* UNL     1     -36.336  20.084  -1.440  0.00  0.00    -0.379 OA
ATOM     23  H5* UNL     1     -36.237  19.286  -0.897  0.00  0.00    +0.211 HD
ENDBRANCH  21  22
ENDBRANCH   5  21
TORSDOF 6
ENDMDL
MODEL 5
REMARK VINA RESULT:      -5.3      1.370      1.760
REMARK  Name = 21120714
REMARK  6 active torsions:
REMARK  status: ('A' for Active; 'I' for Inactive)
REMARK    1  A    between atoms: C2*_2  and  O2*_17
REMARK    2  A    between atoms: C3*_3  and  O3*_19
REMARK    3  A    between atoms: C1*_4  and  N_8
REMARK    4  A    between atoms: C4*_5  and  C5*_21
REMARK    5  A    between atoms: C_12  and  C_15
REMARK    6  A    between atoms: C5*_21  and  O5*_22
REMARK                            x       y       z     vdW  Elec       q    Type
REMARK                         _______ _______ _______ _____ _____    ______ ____
ROOT
ATOM      1  O4* UNL     1     -38.314  23.242   0.404  0.00  0.00    -0.333 OA
ATOM      2  C2* UNL     1     -38.967  21.462   1.844  0.00  0.00    +0.187 C 
ATOM      3  C3* UNL     1     -39.007  20.990   0.408  0.00  0.00    +0.171 C 
ATOM      4  C1* UNL     1     -38.919  22.973   1.679  0.00  0.00    +0.229 C 
ATOM      5  C4* UNL     1     -38.078  21.989  -0.259  0.00  0.00    +0.175 C 
ENDROOT
BRANCH   4   8
ATOM      6  O   UNL     1     -39.385  25.581   2.650  0.00  0.00    -0.252 OA
ATOM      7  O   UNL     1     -35.888  25.330   5.620  0.00  0.00    -0.270 OA
ATOM      8  N   UNL     1     -38.142  23.606   2.706  0.00  0.00    -0.217 N 
ATOM      9  N   UNL     1     -37.635  25.437   4.127  0.00  0.00    -0.236 N 
ATOM     10  C   UNL     1     -37.079  22.925   3.289  0.00  0.00    +0.076 C 
ATOM     11  C   UNL     1     -38.458  24.918   3.121  0.00  0.00    +0.315 C 
ATOM     12  C   UNL     1     -36.290  23.421   4.253  0.00  0.00    +0.069 C 
ATOM     13  C   UNL     1     -36.565  24.803   4.741  0.00  0.00    +0.254 C 
ATOM     14  H   UNL     1     -37.837  26.351   4.430  0.00  0.00    +0.159 HD
BRANCH  12  15
ATOM     15  C   UNL     1     -35.204  22.661   4.815  0.00  0.00    +0.006 C 
ATOM     16  C   UNL     1     -35.316  21.934   5.927  0.00  0.00    +0.000 C 
ENDBRANCH  12  15
ENDBRANCH   4   8
BRANCH   2  17
ATOM     17  O2* UNL     1     -40.128  21.050   2.542  0.00  0.00    -0.378 OA
ATOM     18  H2* UNL     1     -39.881  20.748   3.430  0.00  0.00    +0.211 HD
ENDBRANCH   2  17
BRANCH   3  19
ATOM     19  O3* UNL     1     -38.521  19.669   0.270  0.00  0.00    -0.379 OA
ATOM     20  H3* UNL     1     -37.604  19.693  -0.042  0.00  0.00    +0.211 HD
ENDBRANCH   3  19
BRANCH   5  21
ATOM     21  C5* UNL     1     -38.327  22.141  -1.749  0.00  0.00    +0.169 C 
BRANCH  21  22
ATOM     22  O5* UNL     1     -38.001  20.921  -2.394  0.00  0.00    -0.379 OA
ATOM     23  H5* UNL     1     -37.081  20.953  -2.699  0.00  0.00    +0.211 HD
ENDBRANCH  21  22
ENDBRANCH   5  21
TORSDOF 6
ENDMDL
MODEL 6
REMARK VINA RESULT:      -5.3      3.296      4.344
REMARK  Name = 21120714
REMARK  6 active torsions:
REMARK  status: ('A' for Active; 'I' for Inactive)
REMARK    1  A    between atoms: C2*_2  and  O2*_17
REMARK    2  A    between atoms: C3*_3  and  O3*_19
REMARK    3  A    between atoms: C1*_4  and  N_8
REMARK    4  A    between atoms: C4*_5  and  C5*_21
REMARK    5  A    between atoms: C_12  and  C_15
REMARK    6  A    between atoms: C5*_21  and  O5*_22
REMARK                            x       y       z     vdW  Elec       q    Type
REMARK                         _______ _______ _______ _____ _____    ______ ____
ROOT
ATOM      1  O4* UNL     1     -35.829  23.348   2.529  0.00  0.00    -0.333 OA
ATOM      2  C2* UNL     1     -35.360  23.069   4.846  0.00  0.00    +0.187 C 
ATOM      3  C3* UNL     1     -35.833  21.756   4.265  0.00  0.00    +0.171 C 
ATOM      4  C1* UNL     1     -35.788  24.061   3.776  0.00  0.00    +0.229 C 
ATOM      5  C4* UNL     1     -35.545  21.964   2.789  0.00  0.00    +0.175 C 
ENDROOT
BRANCH   4   8
ATOM      6  O   UNL     1     -35.881  26.396   5.358  0.00  0.00    -0.252 OA
ATOM      7  O   UNL     1     -32.231  28.226   3.249  0.00  0.00    -0.270 OA
ATOM      8  N   UNL     1     -34.870  25.158   3.656  0.00  0.00    -0.217 N 
ATOM      9  N   UNL     1     -34.057  27.293   4.294  0.00  0.00    -0.236 N 
ATOM     10  C   UNL     1     -33.852  25.109   2.710  0.00  0.00    +0.076 C 
ATOM     11  C   UNL     1     -35.004  26.283   4.497  0.00  0.00    +0.315 C 
ATOM     12  C   UNL     1     -32.944  26.075   2.514  0.00  0.00    +0.069 C 
ATOM     13  C   UNL     1     -33.024  27.296   3.368  0.00  0.00    +0.254 C 
ATOM     14  H   UNL     1     -34.133  28.087   4.869  0.00  0.00    +0.159 HD
BRANCH  12  15
ATOM     15  C   UNL     1     -31.913  25.961   1.516  0.00  0.00    +0.006 C 
ATOM     16  C   UNL     1     -32.154  26.000   0.205  0.00  0.00    +0.000 C 
ENDBRANCH  12  15
ENDBRANCH   4   8
BRANCH   2  17
ATOM     17  O2* UNL     1     -35.996  23.331   6.084  0.00  0.00    -0.378 OA
ATOM     18  H2* UNL     1     -36.434  24.195   6.047  0.00  0.00    +0.211 HD
ENDBRANCH   2  17
BRANCH   3  19
ATOM     19  O3* UNL     1     -35.106  20.656   4.778  0.00  0.00    -0.379 OA
ATOM     20  H3* UNL     1     -34.262  20.579   4.307  0.00  0.00    +0.211 HD
ENDBRANCH   3  19
BRANCH   5  21
ATOM     21  C5* UNL     1     -36.390  21.088   1.882  0.00  0.00    +0.169 C 
BRANCH  21  22
ATOM     22  O5* UNL     1     -36.679  19.874   2.556  0.00  0.00    -0.379 OA
ATOM     23  H5* UNL     1     -36.814  20.054   3.500  0.00  0.00    +0.211 HD
ENDBRANCH  21  22
ENDBRANCH   5  21
TORSDOF 6
ENDMDL
MODEL 7
REMARK VINA RESULT:      -5.2      2.271      3.077
REMARK  Name = 21120714
REMARK  6 active torsions:
REMARK  status: ('A' for Active; 'I' for Inactive)
REMARK    1  A    between atoms: C2*_2  and  O2*_17
REMARK    2  A    between atoms: C3*_3  and  O3*_19
REMARK    3  A    between atoms: C1*_4  and  N_8
REMARK    4  A    between atoms: C4*_5  and  C5*_21
REMARK    5  A    between atoms: C_12  and  C_15
REMARK    6  A    between atoms: C5*_21  and  O5*_22
REMARK                            x       y       z     vdW  Elec       q    Type
REMARK                         _______ _______ _______ _____ _____    ______ ____
ROOT
ATOM      1  O4* UNL     1     -34.812  20.978   1.150  0.00  0.00    -0.333 OA
ATOM      2  C2* UNL     1     -37.164  20.677   0.938  0.00  0.00    +0.187 C 
ATOM      3  C3* UNL     1     -36.450  19.440   0.442  0.00  0.00    +0.171 C 
ATOM      4  C1* UNL     1     -36.040  21.702   0.967  0.00  0.00    +0.229 C 
ATOM      5  C4* UNL     1     -35.108  19.573   1.140  0.00  0.00    +0.175 C 
ENDROOT
BRANCH   4   8
ATOM      6  O   UNL     1     -37.555  24.076   0.800  0.00  0.00    -0.252 OA
ATOM      7  O   UNL     1     -36.571  25.262   5.128  0.00  0.00    -0.270 OA
ATOM      8  N   UNL     1     -36.192  22.643   2.040  0.00  0.00    -0.217 N 
ATOM      9  N   UNL     1     -37.053  24.651   2.963  0.00  0.00    -0.236 N 
ATOM     10  C   UNL     1     -35.569  22.408   3.260  0.00  0.00    +0.076 C 
ATOM     11  C   UNL     1     -36.974  23.803   1.853  0.00  0.00    +0.315 C 
ATOM     12  C   UNL     1     -35.645  23.219   4.325  0.00  0.00    +0.069 C 
ATOM     13  C   UNL     1     -36.453  24.466   4.200  0.00  0.00    +0.254 C 
ATOM     14  H   UNL     1     -37.592  25.467   2.854  0.00  0.00    +0.159 HD
BRANCH  12  15
ATOM     15  C   UNL     1     -34.974  22.916   5.562  0.00  0.00    +0.006 C 
ATOM     16  C   UNL     1     -35.453  22.063   6.467  0.00  0.00    +0.000 C 
ENDBRANCH  12  15
ENDBRANCH   4   8
BRANCH   2  17
ATOM     17  O2* UNL     1     -38.194  21.058   0.043  0.00  0.00    -0.378 OA
ATOM     18  H2* UNL     1     -38.938  20.441   0.124  0.00  0.00    +0.211 HD
ENDBRANCH   2  17
BRANCH   3  19
ATOM     19  O3* UNL     1     -37.113  18.253   0.830  0.00  0.00    -0.379 OA
ATOM     20  H3* UNL     1     -36.518  17.712   1.371  0.00  0.00    +0.211 HD
ENDBRANCH   3  19
BRANCH   5  21
ATOM     21  C5* UNL     1     -33.990  18.818   0.444  0.00  0.00    +0.169 C 
BRANCH  21  22
ATOM     22  O5* UNL     1     -34.182  17.427   0.643  0.00  0.00    -0.379 OA
ATOM     23  H5* UNL     1     -33.510  16.934   0.146  0.00  0.00    +0.211 HD
ENDBRANCH  21  22
ENDBRANCH   5  21
TORSDOF 6
ENDMDL
MODEL 8
REMARK VINA RESULT:      -5.2      2.966      3.906
REMARK  Name = 21120714
REMARK  6 active torsions:
REMARK  status: ('A' for Active; 'I' for Inactive)
REMARK    1  A    between atoms: C2*_2  and  O2*_17
REMARK    2  A    between atoms: C3*_3  and  O3*_19
REMARK    3  A    between atoms: C1*_4  and  N_8
REMARK    4  A    between atoms: C4*_5  and  C5*_21
REMARK    5  A    between atoms: C_12  and  C_15
REMARK    6  A    between atoms: C5*_21  and  O5*_22
REMARK                            x       y       z     vdW  Elec       q    Type
REMARK                         _______ _______ _______ _____ _____    ______ ____
ROOT
ATOM      1  O4* UNL     1     -34.892  22.142   0.679  0.00  0.00    -0.333 OA
ATOM      2  C2* UNL     1     -35.590  20.536   2.291  0.00  0.00    +0.187 C 
ATOM      3  C3* UNL     1     -34.729  19.861   1.247  0.00  0.00    +0.171 C 
ATOM      4  C1* UNL     1     -35.947  21.847   1.610  0.00  0.00    +0.229 C 
ATOM      5  C4* UNL     1     -33.964  21.045   0.683  0.00  0.00    +0.175 C 
ENDROOT
BRANCH   4   8
ATOM      6  O   UNL     1     -38.330  22.559   2.941  0.00  0.00    -0.252 OA
ATOM      7  O   UNL     1     -36.299  26.020   5.178  0.00  0.00    -0.270 OA
ATOM      8  N   UNL     1     -36.060  22.930   2.544  0.00  0.00    -0.217 N 
ATOM      9  N   UNL     1     -37.299  24.282   4.049  0.00  0.00    -0.236 N 
ATOM     10  C   UNL     1     -34.946  23.707   2.843  0.00  0.00    +0.076 C 
ATOM     11  C   UNL     1     -37.302  23.205   3.157  0.00  0.00    +0.315 C 
ATOM     12  C   UNL     1     -34.942  24.739   3.698  0.00  0.00    +0.069 C 
ATOM     13  C   UNL     1     -36.220  25.088   4.383  0.00  0.00    +0.254 C 
ATOM     14  H   UNL     1     -38.155  24.491   4.487  0.00  0.00    +0.159 HD
BRANCH  12  15
ATOM     15  C   UNL     1     -33.751  25.504   3.963  0.00  0.00    +0.006 C 
ATOM     16  C   UNL     1     -33.010  26.063   3.006  0.00  0.00    +0.000 C 
ENDBRANCH  12  15
ENDBRANCH   4   8
BRANCH   2  17
ATOM     17  O2* UNL     1     -36.742  19.762   2.571  0.00  0.00    -0.378 OA
ATOM     18  H2* UNL     1     -37.057  19.961   3.467  0.00  0.00    +0.211 HD
ENDBRANCH   2  17
BRANCH   3  19
ATOM     19  O3* UNL     1     -33.853  18.909   1.815  0.00  0.00    -0.379 OA
ATOM     20  H3* UNL     1     -33.486  19.260   2.641  0.00  0.00    +0.211 HD
ENDBRANCH   3  19
BRANCH   5  21
ATOM     21  C5* UNL     1     -33.441  20.811  -0.722  0.00  0.00    +0.169 C 
BRANCH  21  22
ATOM     22  O5* UNL     1     -33.874  19.535  -1.165  0.00  0.00    -0.379 OA
ATOM     23  H5* UNL     1     -34.287  19.620  -2.039  0.00  0.00    +0.211 HD
ENDBRANCH  21  22
ENDBRANCH   5  21
TORSDOF 6
ENDMDL
MODEL 9
REMARK VINA RESULT:      -5.1      3.012      5.392
REMARK  Name = 21120714
REMARK  6 active torsions:
REMARK  status: ('A' for Active; 'I' for Inactive)
REMARK    1  A    between atoms: C2*_2  and  O2*_17
REMARK    2  A    between atoms: C3*_3  and  O3*_19
REMARK    3  A    between atoms: C1*_4  and  N_8
REMARK    4  A    between atoms: C4*_5  and  C5*_21
REMARK    5  A    between atoms: C_12  and  C_15
REMARK    6  A    between atoms: C5*_21  and  O5*_22
REMARK                            x       y       z     vdW  Elec       q    Type
REMARK                         _______ _______ _______ _____ _____    ______ ____
ROOT
ATOM      1  O4* UNL     1     -35.348  25.691   2.354  0.00  0.00    -0.333 OA
ATOM      2  C2* UNL     1     -37.566  25.127   3.007  0.00  0.00    +0.187 C 
ATOM      3  C3* UNL     1     -37.545  26.535   2.456  0.00  0.00    +0.171 C 
ATOM      4  C1* UNL     1     -36.091  24.866   3.266  0.00  0.00    +0.229 C 
ATOM      5  C4* UNL     1     -36.276  26.508   1.622  0.00  0.00    +0.175 C 
ENDROOT
BRANCH   4   8
ATOM      6  O   UNL     1     -36.357  22.824   5.195  0.00  0.00    -0.252 OA
ATOM      7  O   UNL     1     -34.707  19.621   2.343  0.00  0.00    -0.270 OA
ATOM      8  N   UNL     1     -35.737  23.493   3.046  0.00  0.00    -0.217 N 
ATOM      9  N   UNL     1     -35.531  21.239   3.757  0.00  0.00    -0.236 N 
ATOM     10  C   UNL     1     -35.225  23.098   1.814  0.00  0.00    +0.076 C 
ATOM     11  C   UNL     1     -35.909  22.547   4.079  0.00  0.00    +0.315 C 
ATOM     12  C   UNL     1     -34.864  21.845   1.504  0.00  0.00    +0.069 C 
ATOM     13  C   UNL     1     -35.017  20.792   2.548  0.00  0.00    +0.254 C 
ATOM     14  H   UNL     1     -35.642  20.564   4.464  0.00  0.00    +0.159 HD
BRANCH  12  15
ATOM     15  C   UNL     1     -34.340  21.503   0.207  0.00  0.00    +0.006 C 
ATOM     16  C   UNL     1     -33.046  21.583  -0.107  0.00  0.00    +0.000 C 
ENDBRANCH  12  15
ENDBRANCH   4   8
BRANCH   2  17
ATOM     17  O2* UNL     1     -38.324  25.065   4.202  0.00  0.00    -0.378 OA
ATOM     18  H2* UNL     1     -38.458  24.138   4.453  0.00  0.00    +0.211 HD
ENDBRANCH   2  17
BRANCH   3  19
ATOM     19  O3* UNL     1     -38.678  26.809   1.655  0.00  0.00    -0.379 OA
ATOM     20  H3* UNL     1     -39.429  26.283   1.968  0.00  0.00    +0.211 HD
ENDBRANCH   3  19
BRANCH   5  21
ATOM     21  C5* UNL     1     -35.678  27.884   1.391  0.00  0.00    +0.169 C 
BRANCH  21  22
ATOM     22  O5* UNL     1     -36.614  28.866   1.804  0.00  0.00    -0.379 OA
ATOM     23  H5* UNL     1     -36.191  29.471   2.434  0.00  0.00    +0.211 HD
ENDBRANCH  21  22
ENDBRANCH   5  21
TORSDOF 6
ENDMDL
