MODEL 1
REMARK VINA RESULT:      -6.5      0.000      0.000
REMARK  Name = 53860042
REMARK  10 active torsions:
REMARK  status: ('A' for Active; 'I' for Inactive)
REMARK    1  A    between atoms: O_1  and  C_4
REMARK    2  A    between atoms: O_1  and  C_17
REMARK    3  A    between atoms: N_3  and  C_6
REMARK    4  A    between atoms: C_6  and  C_8
REMARK    5  A    between atoms: C_6  and  C_11
REMARK    6  A    between atoms: C_8  and  O_9
REMARK    7  A    between atoms: C_11  and  C_12
REMARK    8  A    between atoms: C_12  and  C_14
REMARK    9  A    between atoms: C_14  and  O_15
REMARK   10  A    between atoms: C_17  and  C_18
REMARK                            x       y       z     vdW  Elec       q    Type
REMARK                         _______ _______ _______ _____ _____    ______ ____
ROOT
ATOM      1  O   UNL     1     -36.675  22.298   1.853  0.00  0.00    -0.434 OA
ENDROOT
BRANCH   1   4
ATOM      2  O   UNL     1     -38.110  23.469   3.212  0.00  0.00    -0.226 OA
ATOM      3  N   UNL     1     -35.832  23.911   3.190  0.00  0.00    -0.262 N 
ATOM      4  C   UNL     1     -36.977  23.251   2.795  0.00  0.00    +0.402 C 
ATOM      5  H   UNL     1     -34.978  23.645   2.781  0.00  0.00    +0.153 HD
BRANCH   3   6
ATOM      6  C   UNL     1     -35.816  24.972   4.171  0.00  0.00    +0.174 C 
BRANCH   6   8
ATOM      7  O   UNL     1     -34.855  27.175   4.405  0.00  0.00    -0.248 OA
ATOM      8  C   UNL     1     -34.941  26.142   3.747  0.00  0.00    +0.335 C 
BRANCH   8   9
ATOM      9  O   UNL     1     -34.308  25.908   2.564  0.00  0.00    -0.443 OA
ATOM     10  C   UNL     1     -32.878  25.933   2.610  0.00  0.00    +0.256 C 
ENDBRANCH   8   9
ENDBRANCH   6   8
BRANCH   6  11
ATOM     11  C   UNL     1     -35.432  24.437   5.560  0.00  0.00    +0.043 C 
BRANCH  11  12
ATOM     12  C   UNL     1     -34.600  23.147   5.554  0.00  0.00    +0.112 C 
BRANCH  12  14
ATOM     13  O   UNL     1     -36.296  21.966   6.829  0.00  0.00    -0.250 OA
ATOM     14  C   UNL     1     -35.367  21.935   6.033  0.00  0.00    +0.314 C 
BRANCH  14  15
ATOM     15  O   UNL     1     -34.880  20.780   5.513  0.00  0.00    -0.480 OA
ATOM     16  H   UNL     1     -34.101  20.791   4.993  0.00  0.00    +0.295 HD
ENDBRANCH  14  15
ENDBRANCH  12  14
ENDBRANCH  11  12
ENDBRANCH   6  11
ENDBRANCH   3   6
ENDBRANCH   1   4
BRANCH   1  17
ATOM     17  C   UNL     1     -35.457  21.597   2.033  0.00  0.00    +0.219 C 
BRANCH  17  18
ATOM     18  C   UNL     1     -34.876  21.272   0.662  0.00  0.00    +0.088 C 
ATOM     19  C   UNL     1     -33.777  20.220   0.726  0.00  0.00    -0.015 C 
ATOM     20  C   UNL     1     -34.137  22.450   0.043  0.00  0.00    -0.015 C 
ATOM     21  C   UNL     1     -32.573  20.734   0.193  0.00  0.00    -0.004 C 
ATOM     22  C   UNL     1     -32.794  22.102  -0.225  0.00  0.00    -0.004 C 
ATOM     23  C   UNL     1     -34.630  23.706  -0.266  0.00  0.00    -0.004 C 
ATOM     24  C   UNL     1     -33.857  18.921   1.198  0.00  0.00    -0.004 C 
ATOM     25  C   UNL     1     -31.434  19.948   0.140  0.00  0.00    -0.000 C 
ATOM     26  C   UNL     1     -31.930  23.019  -0.801  0.00  0.00    -0.000 C 
ATOM     27  C   UNL     1     -33.759  24.630  -0.845  0.00  0.00    -0.000 C 
ATOM     28  C   UNL     1     -32.708  18.129   1.145  0.00  0.00    -0.000 C 
ATOM     29  C   UNL     1     -32.422  24.291  -1.109  0.00  0.00    -0.000 C 
ATOM     30  C   UNL     1     -31.508  18.637   0.621  0.00  0.00    -0.000 C 
ENDBRANCH  17  18
ENDBRANCH   1  17
TORSDOF 10
ENDMDL
MODEL 2
REMARK VINA RESULT:      -6.4     11.217     13.611
REMARK  Name = 53860042
REMARK  10 active torsions:
REMARK  status: ('A' for Active; 'I' for Inactive)
REMARK    1  A    between atoms: O_1  and  C_4
REMARK    2  A    between atoms: O_1  and  C_17
REMARK    3  A    between atoms: N_3  and  C_6
REMARK    4  A    between atoms: C_6  and  C_8
REMARK    5  A    between atoms: C_6  and  C_11
REMARK    6  A    between atoms: C_8  and  O_9
REMARK    7  A    between atoms: C_11  and  C_12
REMARK    8  A    between atoms: C_12  and  C_14
REMARK    9  A    between atoms: C_14  and  O_15
REMARK   10  A    between atoms: C_17  and  C_18
REMARK                            x       y       z     vdW  Elec       q    Type
REMARK                         _______ _______ _______ _____ _____    ______ ____
ROOT
ATOM      1  O   UNL     1     -43.686  28.271   3.497  0.00  0.00    -0.434 OA
ENDROOT
BRANCH   1   4
ATOM      2  O   UNL     1     -41.957  28.894   4.875  0.00  0.00    -0.226 OA
ATOM      3  N   UNL     1     -44.019  29.954   4.965  0.00  0.00    -0.262 N 
ATOM      4  C   UNL     1     -43.113  29.032   4.486  0.00  0.00    +0.402 C 
ATOM      5  H   UNL     1     -44.920  29.967   4.571  0.00  0.00    +0.153 HD
BRANCH   3   6
ATOM      6  C   UNL     1     -43.720  30.903   6.013  0.00  0.00    +0.174 C 
BRANCH   6   8
ATOM      7  O   UNL     1     -43.463  30.018   8.245  0.00  0.00    -0.248 OA
ATOM      8  C   UNL     1     -44.217  30.441   7.375  0.00  0.00    +0.335 C 
BRANCH   8   9
ATOM      9  O   UNL     1     -45.572  30.531   7.484  0.00  0.00    -0.443 OA
ATOM     10  C   UNL     1     -46.088  30.542   8.819  0.00  0.00    +0.256 C 
ENDBRANCH   8   9
ENDBRANCH   6   8
BRANCH   6  11
ATOM     11  C   UNL     1     -44.235  32.305   5.656  0.00  0.00    +0.043 C 
BRANCH  11  12
ATOM     12  C   UNL     1     -44.853  32.435   4.256  0.00  0.00    +0.112 C 
BRANCH  12  14
ATOM     13  O   UNL     1     -43.119  33.982   3.550  0.00  0.00    -0.250 OA
ATOM     14  C   UNL     1     -44.265  33.567   3.443  0.00  0.00    +0.314 C 
BRANCH  14  15
ATOM     15  O   UNL     1     -45.172  34.118   2.597  0.00  0.00    -0.480 OA
ATOM     16  H   UNL     1     -45.996  34.421   2.924  0.00  0.00    +0.295 HD
ENDBRANCH  14  15
ENDBRANCH  12  14
ENDBRANCH  11  12
ENDBRANCH   6  11
ENDBRANCH   3   6
ENDBRANCH   1   4
BRANCH   1  17
ATOM     17  C   UNL     1     -45.029  27.871   3.708  0.00  0.00    +0.219 C 
BRANCH  17  18
ATOM     18  C   UNL     1     -45.030  26.483   4.338  0.00  0.00    +0.088 C 
ATOM     19  C   UNL     1     -45.661  25.431   3.437  0.00  0.00    -0.015 C 
ATOM     20  C   UNL     1     -45.917  26.400   5.572  0.00  0.00    -0.015 C 
ATOM     21  C   UNL     1     -46.755  24.818   4.088  0.00  0.00    -0.004 C 
ATOM     22  C   UNL     1     -46.912  25.412   5.398  0.00  0.00    -0.004 C 
ATOM     23  C   UNL     1     -45.824  27.128   6.747  0.00  0.00    -0.004 C 
ATOM     24  C   UNL     1     -45.276  25.048   2.163  0.00  0.00    -0.004 C 
ATOM     25  C   UNL     1     -47.480  23.819   3.459  0.00  0.00    -0.000 C 
ATOM     26  C   UNL     1     -47.831  25.153   6.401  0.00  0.00    -0.000 C 
ATOM     27  C   UNL     1     -46.752  26.868   7.757  0.00  0.00    -0.000 C 
ATOM     28  C   UNL     1     -46.007  24.041   1.528  0.00  0.00    -0.000 C 
ATOM     29  C   UNL     1     -47.746  25.891   7.586  0.00  0.00    -0.000 C 
ATOM     30  C   UNL     1     -47.098  23.433   2.170  0.00  0.00    -0.000 C 
ENDBRANCH  17  18
ENDBRANCH   1  17
TORSDOF 10
ENDMDL
MODEL 3
REMARK VINA RESULT:      -6.4      1.584      3.632
REMARK  Name = 53860042
REMARK  10 active torsions:
REMARK  status: ('A' for Active; 'I' for Inactive)
REMARK    1  A    between atoms: O_1  and  C_4
REMARK    2  A    between atoms: O_1  and  C_17
REMARK    3  A    between atoms: N_3  and  C_6
REMARK    4  A    between atoms: C_6  and  C_8
REMARK    5  A    between atoms: C_6  and  C_11
REMARK    6  A    between atoms: C_8  and  O_9
REMARK    7  A    between atoms: C_11  and  C_12
REMARK    8  A    between atoms: C_12  and  C_14
REMARK    9  A    between atoms: C_14  and  O_15
REMARK   10  A    between atoms: C_17  and  C_18
REMARK                            x       y       z     vdW  Elec       q    Type
REMARK                         _______ _______ _______ _____ _____    ______ ____
ROOT
ATOM      1  O   UNL     1     -36.166  20.686   0.578  0.00  0.00    -0.434 OA
ENDROOT
BRANCH   1   4
ATOM      2  O   UNL     1     -35.995  20.253   2.827  0.00  0.00    -0.226 OA
ATOM      3  N   UNL     1     -36.351  22.404   2.032  0.00  0.00    -0.262 N 
ATOM      4  C   UNL     1     -36.155  21.045   1.903  0.00  0.00    +0.402 C 
ATOM      5  H   UNL     1     -36.468  22.935   1.213  0.00  0.00    +0.153 HD
BRANCH   3   6
ATOM      6  C   UNL     1     -36.392  23.091   3.302  0.00  0.00    +0.174 C 
BRANCH   6   8
ATOM      7  O   UNL     1     -38.106  24.577   4.131  0.00  0.00    -0.248 OA
ATOM      8  C   UNL     1     -37.274  24.331   3.263  0.00  0.00    +0.335 C 
BRANCH   8   9
ATOM      9  O   UNL     1     -37.042  25.092   2.158  0.00  0.00    -0.443 OA
ATOM     10  C   UNL     1     -36.960  26.503   2.382  0.00  0.00    +0.256 C 
ENDBRANCH   8   9
ENDBRANCH   6   8
BRANCH   6  11
ATOM     11  C   UNL     1     -34.976  23.406   3.809  0.00  0.00    +0.043 C 
BRANCH  11  12
ATOM     12  C   UNL     1     -34.784  23.279   5.327  0.00  0.00    +0.112 C 
BRANCH  12  14
ATOM     13  O   UNL     1     -36.273  21.993   6.751  0.00  0.00    -0.250 OA
ATOM     14  C   UNL     1     -35.389  22.018   5.905  0.00  0.00    +0.314 C 
BRANCH  14  15
ATOM     15  O   UNL     1     -34.806  20.896   5.415  0.00  0.00    -0.480 OA
ATOM     16  H   UNL     1     -34.788  20.742   4.491  0.00  0.00    +0.295 HD
ENDBRANCH  14  15
ENDBRANCH  12  14
ENDBRANCH  11  12
ENDBRANCH   6  11
ENDBRANCH   3   6
ENDBRANCH   1   4
BRANCH   1  17
ATOM     17  C   UNL     1     -35.049  19.947   0.116  0.00  0.00    +0.219 C 
BRANCH  17  18
ATOM     18  C   UNL     1     -33.783  20.556   0.707  0.00  0.00    +0.088 C 
ATOM     19  C   UNL     1     -33.227  21.690  -0.141  0.00  0.00    -0.015 C 
ATOM     20  C   UNL     1     -32.614  19.582   0.720  0.00  0.00    -0.015 C 
ATOM     21  C   UNL     1     -31.903  21.402  -0.542  0.00  0.00    -0.004 C 
ATOM     22  C   UNL     1     -31.527  20.108  -0.014  0.00  0.00    -0.004 C 
ATOM     23  C   UNL     1     -32.528  18.350   1.348  0.00  0.00    -0.004 C 
ATOM     24  C   UNL     1     -33.845  22.877  -0.501  0.00  0.00    -0.004 C 
ATOM     25  C   UNL     1     -31.190  22.301  -1.318  0.00  0.00    -0.000 C 
ATOM     26  C   UNL     1     -30.345  19.396  -0.131  0.00  0.00    -0.000 C 
ATOM     27  C   UNL     1     -31.337  17.633   1.229  0.00  0.00    -0.000 C 
ATOM     28  C   UNL     1     -33.126  23.783  -1.284  0.00  0.00    -0.000 C 
ATOM     29  C   UNL     1     -30.256  18.149   0.496  0.00  0.00    -0.000 C 
ATOM     30  C   UNL     1     -31.812  23.497  -1.689  0.00  0.00    -0.000 C 
ENDBRANCH  17  18
ENDBRANCH   1  17
TORSDOF 10
ENDMDL
MODEL 4
REMARK VINA RESULT:      -6.3      3.720      6.122
REMARK  Name = 53860042
REMARK  10 active torsions:
REMARK  status: ('A' for Active; 'I' for Inactive)
REMARK    1  A    between atoms: O_1  and  C_4
REMARK    2  A    between atoms: O_1  and  C_17
REMARK    3  A    between atoms: N_3  and  C_6
REMARK    4  A    between atoms: C_6  and  C_8
REMARK    5  A    between atoms: C_6  and  C_11
REMARK    6  A    between atoms: C_8  and  O_9
REMARK    7  A    between atoms: C_11  and  C_12
REMARK    8  A    between atoms: C_12  and  C_14
REMARK    9  A    between atoms: C_14  and  O_15
REMARK   10  A    between atoms: C_17  and  C_18
REMARK                            x       y       z     vdW  Elec       q    Type
REMARK                         _______ _______ _______ _____ _____    ______ ____
ROOT
ATOM      1  O   UNL     1     -36.176  26.809   2.730  0.00  0.00    -0.434 OA
ENDROOT
BRANCH   1   4
ATOM      2  O   UNL     1     -37.729  27.438   1.159  0.00  0.00    -0.226 OA
ATOM      3  N   UNL     1     -38.147  25.710   2.650  0.00  0.00    -0.262 N 
ATOM      4  C   UNL     1     -37.388  26.717   2.091  0.00  0.00    +0.402 C 
ATOM      5  H   UNL     1     -37.762  25.199   3.398  0.00  0.00    +0.153 HD
BRANCH   3   6
ATOM      6  C   UNL     1     -39.475  25.363   2.200  0.00  0.00    +0.174 C 
BRANCH   6   8
ATOM      7  O   UNL     1     -41.023  26.016   3.934  0.00  0.00    -0.248 OA
ATOM      8  C   UNL     1     -40.549  26.241   2.825  0.00  0.00    +0.335 C 
BRANCH   8   9
ATOM      9  O   UNL     1     -40.920  27.263   2.004  0.00  0.00    -0.443 OA
ATOM     10  C   UNL     1     -41.183  26.902   0.644  0.00  0.00    +0.256 C 
ENDBRANCH   8   9
ENDBRANCH   6   8
BRANCH   6  11
ATOM     11  C   UNL     1     -39.759  23.868   2.410  0.00  0.00    +0.043 C 
BRANCH  11  12
ATOM     12  C   UNL     1     -39.307  22.952   1.264  0.00  0.00    +0.112 C 
BRANCH  12  14
ATOM     13  O   UNL     1     -40.602  20.908   1.049  0.00  0.00    -0.250 OA
ATOM     14  C   UNL     1     -39.625  21.492   1.500  0.00  0.00    +0.314 C 
BRANCH  14  15
ATOM     15  O   UNL     1     -38.723  20.894   2.318  0.00  0.00    -0.480 OA
ATOM     16  H   UNL     1     -37.835  21.194   2.336  0.00  0.00    +0.295 HD
ENDBRANCH  14  15
ENDBRANCH  12  14
ENDBRANCH  11  12
ENDBRANCH   6  11
ENDBRANCH   3   6
ENDBRANCH   1   4
BRANCH   1  17
ATOM     17  C   UNL     1     -35.028  26.520   1.950  0.00  0.00    +0.219 C 
BRANCH  17  18
ATOM     18  C   UNL     1     -34.055  25.711   2.799  0.00  0.00    +0.088 C 
ATOM     19  C   UNL     1     -34.723  24.535   3.497  0.00  0.00    -0.015 C 
ATOM     20  C   UNL     1     -33.511  26.500   3.982  0.00  0.00    -0.015 C 
ATOM     21  C   UNL     1     -34.562  24.637   4.897  0.00  0.00    -0.004 C 
ATOM     22  C   UNL     1     -33.818  25.843   5.194  0.00  0.00    -0.004 C 
ATOM     23  C   UNL     1     -32.793  27.684   3.967  0.00  0.00    -0.004 C 
ATOM     24  C   UNL     1     -35.394  23.465   2.927  0.00  0.00    -0.004 C 
ATOM     25  C   UNL     1     -35.083  23.669   5.739  0.00  0.00    -0.000 C 
ATOM     26  C   UNL     1     -33.413  26.375   6.407  0.00  0.00    -0.000 C 
ATOM     27  C   UNL     1     -32.385  28.221   5.189  0.00  0.00    -0.000 C 
ATOM     28  C   UNL     1     -35.920  22.490   3.776  0.00  0.00    -0.000 C 
ATOM     29  C   UNL     1     -32.693  27.574   6.397  0.00  0.00    -0.000 C 
ATOM     30  C   UNL     1     -35.766  22.591   5.169  0.00  0.00    -0.000 C 
ENDBRANCH  17  18
ENDBRANCH   1  17
TORSDOF 10
ENDMDL
MODEL 5
REMARK VINA RESULT:      -6.3      4.574      8.541
REMARK  Name = 53860042
REMARK  10 active torsions:
REMARK  status: ('A' for Active; 'I' for Inactive)
REMARK    1  A    between atoms: O_1  and  C_4
REMARK    2  A    between atoms: O_1  and  C_17
REMARK    3  A    between atoms: N_3  and  C_6
REMARK    4  A    between atoms: C_6  and  C_8
REMARK    5  A    between atoms: C_6  and  C_11
REMARK    6  A    between atoms: C_8  and  O_9
REMARK    7  A    between atoms: C_11  and  C_12
REMARK    8  A    between atoms: C_12  and  C_14
REMARK    9  A    between atoms: C_14  and  O_15
REMARK   10  A    between atoms: C_17  and  C_18
REMARK                            x       y       z     vdW  Elec       q    Type
REMARK                         _______ _______ _______ _____ _____    ______ ____
ROOT
ATOM      1  O   UNL     1     -33.300  27.782   5.142  0.00  0.00    -0.434 OA
ENDROOT
BRANCH   1   4
ATOM      2  O   UNL     1     -32.895  25.774   4.104  0.00  0.00    -0.226 OA
ATOM      3  N   UNL     1     -35.029  26.372   4.793  0.00  0.00    -0.262 N 
ATOM      4  C   UNL     1     -33.673  26.564   4.630  0.00  0.00    +0.402 C 
ATOM      5  H   UNL     1     -35.549  27.083   5.232  0.00  0.00    +0.153 HD
BRANCH   3   6
ATOM      6  C   UNL     1     -35.729  25.186   4.357  0.00  0.00    +0.174 C 
BRANCH   6   8
ATOM      7  O   UNL     1     -37.097  26.460   2.830  0.00  0.00    -0.248 OA
ATOM      8  C   UNL     1     -37.009  25.511   3.602  0.00  0.00    +0.335 C 
BRANCH   8   9
ATOM      9  O   UNL     1     -38.019  24.650   3.909  0.00  0.00    -0.443 OA
ATOM     10  C   UNL     1     -38.566  23.917   2.808  0.00  0.00    +0.256 C 
ENDBRANCH   8   9
ENDBRANCH   6   8
BRANCH   6  11
ATOM     11  C   UNL     1     -35.980  24.227   5.531  0.00  0.00    +0.043 C 
BRANCH  11  12
ATOM     12  C   UNL     1     -34.952  23.097   5.681  0.00  0.00    +0.112 C 
BRANCH  12  14
ATOM     13  O   UNL     1     -35.732  21.766   3.805  0.00  0.00    -0.250 OA
ATOM     14  C   UNL     1     -35.349  21.824   4.966  0.00  0.00    +0.314 C 
BRANCH  14  15
ATOM     15  O   UNL     1     -35.280  20.737   5.774  0.00  0.00    -0.480 OA
ATOM     16  H   UNL     1     -35.456  19.883   5.429  0.00  0.00    +0.295 HD
ENDBRANCH  14  15
ENDBRANCH  12  14
ENDBRANCH  11  12
ENDBRANCH   6  11
ENDBRANCH   3   6
ENDBRANCH   1   4
BRANCH   1  17
ATOM     17  C   UNL     1     -32.291  28.482   4.434  0.00  0.00    +0.219 C 
BRANCH  17  18
ATOM     18  C   UNL     1     -32.133  29.865   5.052  0.00  0.00    +0.088 C 
ATOM     19  C   UNL     1     -32.446  30.985   4.070  0.00  0.00    -0.015 C 
ATOM     20  C   UNL     1     -30.691  30.181   5.426  0.00  0.00    -0.015 C 
ATOM     21  C   UNL     1     -31.329  31.837   3.921  0.00  0.00    -0.004 C 
ATOM     22  C   UNL     1     -30.252  31.343   4.753  0.00  0.00    -0.004 C 
ATOM     23  C   UNL     1     -29.862  29.499   6.301  0.00  0.00    -0.004 C 
ATOM     24  C   UNL     1     -33.630  31.227   3.392  0.00  0.00    -0.004 C 
ATOM     25  C   UNL     1     -31.386  32.935   3.080  0.00  0.00    -0.000 C 
ATOM     26  C   UNL     1     -28.969  31.827   4.947  0.00  0.00    -0.000 C 
ATOM     27  C   UNL     1     -28.569  29.987   6.496  0.00  0.00    -0.000 C 
ATOM     28  C   UNL     1     -33.687  32.334   2.543  0.00  0.00    -0.000 C 
ATOM     29  C   UNL     1     -28.126  31.138   5.825  0.00  0.00    -0.000 C 
ATOM     30  C   UNL     1     -32.576  33.180   2.388  0.00  0.00    -0.000 C 
ENDBRANCH  17  18
ENDBRANCH   1  17
TORSDOF 10
ENDMDL
MODEL 6
REMARK VINA RESULT:      -6.2      1.392      2.908
REMARK  Name = 53860042
REMARK  10 active torsions:
REMARK  status: ('A' for Active; 'I' for Inactive)
REMARK    1  A    between atoms: O_1  and  C_4
REMARK    2  A    between atoms: O_1  and  C_17
REMARK    3  A    between atoms: N_3  and  C_6
REMARK    4  A    between atoms: C_6  and  C_8
REMARK    5  A    between atoms: C_6  and  C_11
REMARK    6  A    between atoms: C_8  and  O_9
REMARK    7  A    between atoms: C_11  and  C_12
REMARK    8  A    between atoms: C_12  and  C_14
REMARK    9  A    between atoms: C_14  and  O_15
REMARK   10  A    between atoms: C_17  and  C_18
REMARK                            x       y       z     vdW  Elec       q    Type
REMARK                         _______ _______ _______ _____ _____    ______ ____
ROOT
ATOM      1  O   UNL     1     -34.846  20.372   3.045  0.00  0.00    -0.434 OA
ENDROOT
BRANCH   1   4
ATOM      2  O   UNL     1     -35.177  20.879   5.260  0.00  0.00    -0.226 OA
ATOM      3  N   UNL     1     -35.527  22.454   3.592  0.00  0.00    -0.262 N 
ATOM      4  C   UNL     1     -35.184  21.210   4.078  0.00  0.00    +0.402 C 
ATOM      5  H   UNL     1     -35.493  22.597   2.620  0.00  0.00    +0.153 HD
BRANCH   3   6
ATOM      6  C   UNL     1     -35.932  23.559   4.431  0.00  0.00    +0.174 C 
BRANCH   6   8
ATOM      7  O   UNL     1     -36.230  25.298   2.783  0.00  0.00    -0.248 OA
ATOM      8  C   UNL     1     -36.727  24.607   3.667  0.00  0.00    +0.335 C 
BRANCH   8   9
ATOM      9  O   UNL     1     -38.015  24.692   4.101  0.00  0.00    -0.443 OA
ATOM     10  C   UNL     1     -38.983  25.038   3.105  0.00  0.00    +0.256 C 
ENDBRANCH   8   9
ENDBRANCH   6   8
BRANCH   6  11
ATOM     11  C   UNL     1     -34.727  24.169   5.164  0.00  0.00    +0.043 C 
BRANCH  11  12
ATOM     12  C   UNL     1     -34.959  25.571   5.745  0.00  0.00    +0.112 C 
BRANCH  12  14
ATOM     13  O   UNL     1     -32.859  26.790   5.777  0.00  0.00    -0.250 OA
ATOM     14  C   UNL     1     -33.954  26.594   5.265  0.00  0.00    +0.314 C 
BRANCH  14  15
ATOM     15  O   UNL     1     -34.418  27.319   4.217  0.00  0.00    -0.480 OA
ATOM     16  H   UNL     1     -35.196  27.052   3.769  0.00  0.00    +0.295 HD
ENDBRANCH  14  15
ENDBRANCH  12  14
ENDBRANCH  11  12
ENDBRANCH   6  11
ENDBRANCH   3   6
ENDBRANCH   1   4
BRANCH   1  17
ATOM     17  C   UNL     1     -35.830  20.178   2.043  0.00  0.00    +0.219 C 
BRANCH  17  18
ATOM     18  C   UNL     1     -35.148  20.204   0.680  0.00  0.00    +0.088 C 
ATOM     19  C   UNL     1     -33.801  19.495   0.685  0.00  0.00    -0.015 C 
ATOM     20  C   UNL     1     -34.753  21.609   0.248  0.00  0.00    -0.015 C 
ATOM     21  C   UNL     1     -32.776  20.384   0.288  0.00  0.00    -0.004 C 
ATOM     22  C   UNL     1     -33.360  21.680   0.020  0.00  0.00    -0.004 C 
ATOM     23  C   UNL     1     -35.570  22.711   0.059  0.00  0.00    -0.004 C 
ATOM     24  C   UNL     1     -33.526  18.174   0.997  0.00  0.00    -0.004 C 
ATOM     25  C   UNL     1     -31.461  19.954   0.211  0.00  0.00    -0.000 C 
ATOM     26  C   UNL     1     -32.773  22.865  -0.392  0.00  0.00    -0.000 C 
ATOM     27  C   UNL     1     -34.978  23.905  -0.356  0.00  0.00    -0.000 C 
ATOM     28  C   UNL     1     -32.200  17.741   0.919  0.00  0.00    -0.000 C 
ATOM     29  C   UNL     1     -33.593  23.983  -0.578  0.00  0.00    -0.000 C 
ATOM     30  C   UNL     1     -31.178  18.623   0.531  0.00  0.00    -0.000 C 
ENDBRANCH  17  18
ENDBRANCH   1  17
TORSDOF 10
ENDMDL
MODEL 7
REMARK VINA RESULT:      -6.2      1.609      4.269
REMARK  Name = 53860042
REMARK  10 active torsions:
REMARK  status: ('A' for Active; 'I' for Inactive)
REMARK    1  A    between atoms: O_1  and  C_4
REMARK    2  A    between atoms: O_1  and  C_17
REMARK    3  A    between atoms: N_3  and  C_6
REMARK    4  A    between atoms: C_6  and  C_8
REMARK    5  A    between atoms: C_6  and  C_11
REMARK    6  A    between atoms: C_8  and  O_9
REMARK    7  A    between atoms: C_11  and  C_12
REMARK    8  A    between atoms: C_12  and  C_14
REMARK    9  A    between atoms: C_14  and  O_15
REMARK   10  A    between atoms: C_17  and  C_18
REMARK                            x       y       z     vdW  Elec       q    Type
REMARK                         _______ _______ _______ _____ _____    ______ ____
ROOT
ATOM      1  O   UNL     1     -36.130  19.974   1.591  0.00  0.00    -0.434 OA
ENDROOT
BRANCH   1   4
ATOM      2  O   UNL     1     -35.449  20.642   3.680  0.00  0.00    -0.226 OA
ATOM      3  N   UNL     1     -36.834  21.970   2.376  0.00  0.00    -0.262 N 
ATOM      4  C   UNL     1     -36.080  20.849   2.648  0.00  0.00    +0.402 C 
ATOM      5  H   UNL     1     -37.296  22.020   1.509  0.00  0.00    +0.153 HD
BRANCH   3   6
ATOM      6  C   UNL     1     -36.983  23.078   3.292  0.00  0.00    +0.174 C 
BRANCH   6   8
ATOM      7  O   UNL     1     -38.698  24.705   3.788  0.00  0.00    -0.248 OA
ATOM      8  C   UNL     1     -38.196  23.939   2.971  0.00  0.00    +0.335 C 
BRANCH   8   9
ATOM      9  O   UNL     1     -38.651  23.732   1.704  0.00  0.00    -0.443 OA
ATOM     10  C   UNL     1     -40.035  23.385   1.591  0.00  0.00    +0.256 C 
ENDBRANCH   8   9
ENDBRANCH   6   8
BRANCH   6  11
ATOM     11  C   UNL     1     -35.692  23.907   3.375  0.00  0.00    +0.043 C 
BRANCH  11  12
ATOM     12  C   UNL     1     -35.286  24.342   4.789  0.00  0.00    +0.112 C 
BRANCH  12  14
ATOM     13  O   UNL     1     -34.507  26.628   5.047  0.00  0.00    -0.250 OA
ATOM     14  C   UNL     1     -35.433  25.829   5.027  0.00  0.00    +0.314 C 
BRANCH  14  15
ATOM     15  O   UNL     1     -36.720  26.187   5.267  0.00  0.00    -0.480 OA
ATOM     16  H   UNL     1     -37.131  26.843   4.739  0.00  0.00    +0.295 HD
ENDBRANCH  14  15
ENDBRANCH  12  14
ENDBRANCH  11  12
ENDBRANCH   6  11
ENDBRANCH   3   6
ENDBRANCH   1   4
BRANCH   1  17
ATOM     17  C   UNL     1     -35.340  20.303   0.462  0.00  0.00    +0.219 C 
BRANCH  17  18
ATOM     18  C   UNL     1     -34.001  20.844   0.946  0.00  0.00    +0.088 C 
ATOM     19  C   UNL     1     -33.497  22.005   0.099  0.00  0.00    -0.015 C 
ATOM     20  C   UNL     1     -32.869  19.838   0.789  0.00  0.00    -0.015 C 
ATOM     21  C   UNL     1     -32.232  21.699  -0.452  0.00  0.00    -0.004 C 
ATOM     22  C   UNL     1     -31.847  20.370  -0.028  0.00  0.00    -0.004 C 
ATOM     23  C   UNL     1     -32.761  18.574   1.345  0.00  0.00    -0.004 C 
ATOM     24  C   UNL     1     -34.108  23.225  -0.137  0.00  0.00    -0.004 C 
ATOM     25  C   UNL     1     -31.573  22.615  -1.255  0.00  0.00    -0.000 C 
ATOM     26  C   UNL     1     -30.708  19.631  -0.303  0.00  0.00    -0.000 C 
ATOM     27  C   UNL     1     -31.613  17.830   1.068  0.00  0.00    -0.000 C 
ATOM     28  C   UNL     1     -33.444  24.148  -0.947  0.00  0.00    -0.000 C 
ATOM     29  C   UNL     1     -30.598  18.352   0.251  0.00  0.00    -0.000 C 
ATOM     30  C   UNL     1     -32.189  23.846  -1.501  0.00  0.00    -0.000 C 
ENDBRANCH  17  18
ENDBRANCH   1  17
TORSDOF 10
ENDMDL
MODEL 8
REMARK VINA RESULT:      -6.2      1.621      3.064
REMARK  Name = 53860042
REMARK  10 active torsions:
REMARK  status: ('A' for Active; 'I' for Inactive)
REMARK    1  A    between atoms: O_1  and  C_4
REMARK    2  A    between atoms: O_1  and  C_17
REMARK    3  A    between atoms: N_3  and  C_6
REMARK    4  A    between atoms: C_6  and  C_8
REMARK    5  A    between atoms: C_6  and  C_11
REMARK    6  A    between atoms: C_8  and  O_9
REMARK    7  A    between atoms: C_11  and  C_12
REMARK    8  A    between atoms: C_12  and  C_14
REMARK    9  A    between atoms: C_14  and  O_15
REMARK   10  A    between atoms: C_17  and  C_18
REMARK                            x       y       z     vdW  Elec       q    Type
REMARK                         _______ _______ _______ _____ _____    ______ ____
ROOT
ATOM      1  O   UNL     1     -35.200  21.827   3.129  0.00  0.00    -0.434 OA
ENDROOT
BRANCH   1   4
ATOM      2  O   UNL     1     -35.953  22.379   5.228  0.00  0.00    -0.226 OA
ATOM      3  N   UNL     1     -36.414  23.713   3.386  0.00  0.00    -0.262 N 
ATOM      4  C   UNL     1     -35.866  22.622   4.028  0.00  0.00    +0.402 C 
ATOM      5  H   UNL     1     -36.275  23.798   2.416  0.00  0.00    +0.153 HD
BRANCH   3   6
ATOM      6  C   UNL     1     -37.178  24.739   4.058  0.00  0.00    +0.174 C 
BRANCH   6   8
ATOM      7  O   UNL     1     -38.761  26.225   3.001  0.00  0.00    -0.248 OA
ATOM      8  C   UNL     1     -38.466  25.078   3.323  0.00  0.00    +0.335 C 
BRANCH   8   9
ATOM      9  O   UNL     1     -39.237  23.977   3.102  0.00  0.00    -0.443 OA
ATOM     10  C   UNL     1     -40.096  24.040   1.959  0.00  0.00    +0.256 C 
ENDBRANCH   8   9
ENDBRANCH   6   8
BRANCH   6  11
ATOM     11  C   UNL     1     -36.320  25.985   4.324  0.00  0.00    +0.043 C 
BRANCH  11  12
ATOM     12  C   UNL     1     -35.554  25.977   5.654  0.00  0.00    +0.112 C 
BRANCH  12  14
ATOM     13  O   UNL     1     -33.438  25.203   4.747  0.00  0.00    -0.250 OA
ATOM     14  C   UNL     1     -34.051  25.966   5.482  0.00  0.00    +0.314 C 
BRANCH  14  15
ATOM     15  O   UNL     1     -33.436  26.876   6.278  0.00  0.00    -0.480 OA
ATOM     16  H   UNL     1     -33.740  27.763   6.300  0.00  0.00    +0.295 HD
ENDBRANCH  14  15
ENDBRANCH  12  14
ENDBRANCH  11  12
ENDBRANCH   6  11
ENDBRANCH   3   6
ENDBRANCH   1   4
BRANCH   1  17
ATOM     17  C   UNL     1     -35.910  20.706   2.632  0.00  0.00    +0.219 C 
BRANCH  17  18
ATOM     18  C   UNL     1     -35.538  20.505   1.168  0.00  0.00    +0.088 C 
ATOM     19  C   UNL     1     -34.115  19.996   0.989  0.00  0.00    -0.015 C 
ATOM     20  C   UNL     1     -35.496  21.811   0.388  0.00  0.00    -0.015 C 
ATOM     21  C   UNL     1     -33.367  20.893   0.194  0.00  0.00    -0.004 C 
ATOM     22  C   UNL     1     -34.215  22.007  -0.175  0.00  0.00    -0.004 C 
ATOM     23  C   UNL     1     -36.517  22.726   0.188  0.00  0.00    -0.004 C 
ATOM     24  C   UNL     1     -33.552  18.829   1.478  0.00  0.00    -0.004 C 
ATOM     25  C   UNL     1     -32.042  20.630  -0.110  0.00  0.00    -0.000 C 
ATOM     26  C   UNL     1     -33.945  23.131  -0.939  0.00  0.00    -0.000 C 
ATOM     27  C   UNL     1     -36.244  23.858  -0.581  0.00  0.00    -0.000 C 
ATOM     28  C   UNL     1     -32.215  18.564   1.172  0.00  0.00    -0.000 C 
ATOM     29  C   UNL     1     -34.971  24.060  -1.138  0.00  0.00    -0.000 C 
ATOM     30  C   UNL     1     -31.467  19.456   0.386  0.00  0.00    -0.000 C 
ENDBRANCH  17  18
ENDBRANCH   1  17
TORSDOF 10
ENDMDL
MODEL 9
REMARK VINA RESULT:      -6.2      2.317      6.480
REMARK  Name = 53860042
REMARK  10 active torsions:
REMARK  status: ('A' for Active; 'I' for Inactive)
REMARK    1  A    between atoms: O_1  and  C_4
REMARK    2  A    between atoms: O_1  and  C_17
REMARK    3  A    between atoms: N_3  and  C_6
REMARK    4  A    between atoms: C_6  and  C_8
REMARK    5  A    between atoms: C_6  and  C_11
REMARK    6  A    between atoms: C_8  and  O_9
REMARK    7  A    between atoms: C_11  and  C_12
REMARK    8  A    between atoms: C_12  and  C_14
REMARK    9  A    between atoms: C_14  and  O_15
REMARK   10  A    between atoms: C_17  and  C_18
REMARK                            x       y       z     vdW  Elec       q    Type
REMARK                         _______ _______ _______ _____ _____    ______ ____
ROOT
ATOM      1  O   UNL     1     -35.094  23.214   4.383  0.00  0.00    -0.434 OA
ENDROOT
BRANCH   1   4
ATOM      2  O   UNL     1     -35.119  20.984   4.934  0.00  0.00    -0.226 OA
ATOM      3  N   UNL     1     -35.581  21.704   2.777  0.00  0.00    -0.262 N 
ATOM      4  C   UNL     1     -35.254  21.879   4.105  0.00  0.00    +0.402 C 
ATOM      5  H   UNL     1     -35.660  22.503   2.209  0.00  0.00    +0.153 HD
BRANCH   3   6
ATOM      6  C   UNL     1     -35.815  20.412   2.172  0.00  0.00    +0.174 C 
BRANCH   6   8
ATOM      7  O   UNL     1     -33.784  19.129   1.925  0.00  0.00    -0.248 OA
ATOM      8  C   UNL     1     -34.598  19.895   1.419  0.00  0.00    +0.335 C 
BRANCH   8   9
ATOM      9  O   UNL     1     -34.522  20.400   0.156  0.00  0.00    -0.443 OA
ATOM     10  C   UNL     1     -33.425  21.284  -0.093  0.00  0.00    +0.256 C 
ENDBRANCH   8   9
ENDBRANCH   6   8
BRANCH   6  11
ATOM     11  C   UNL     1     -37.073  20.432   1.291  0.00  0.00    +0.043 C 
BRANCH  11  12
ATOM     12  C   UNL     1     -37.877  21.739   1.332  0.00  0.00    +0.112 C 
BRANCH  12  14
ATOM     13  O   UNL     1     -40.082  22.128   2.273  0.00  0.00    -0.250 OA
ATOM     14  C   UNL     1     -39.367  21.525   1.484  0.00  0.00    +0.314 C 
BRANCH  14  15
ATOM     15  O   UNL     1     -39.831  20.542   0.673  0.00  0.00    -0.480 OA
ATOM     16  H   UNL     1     -40.592  20.052   0.916  0.00  0.00    +0.295 HD
ENDBRANCH  14  15
ENDBRANCH  12  14
ENDBRANCH  11  12
ENDBRANCH   6  11
ENDBRANCH   3   6
ENDBRANCH   1   4
BRANCH   1  17
ATOM     17  C   UNL     1     -35.730  23.695   5.555  0.00  0.00    +0.219 C 
BRANCH  17  18
ATOM     18  C   UNL     1     -36.090  25.161   5.346  0.00  0.00    +0.088 C 
ATOM     19  C   UNL     1     -36.779  25.410   4.012  0.00  0.00    -0.015 C 
ATOM     20  C   UNL     1     -34.865  26.056   5.229  0.00  0.00    -0.015 C 
ATOM     21  C   UNL     1     -36.045  26.343   3.245  0.00  0.00    -0.004 C 
ATOM     22  C   UNL     1     -34.870  26.739   3.992  0.00  0.00    -0.004 C 
ATOM     23  C   UNL     1     -33.853  26.251   6.155  0.00  0.00    -0.004 C 
ATOM     24  C   UNL     1     -37.963  24.867   3.541  0.00  0.00    -0.004 C 
ATOM     25  C   UNL     1     -36.489  26.731   1.992  0.00  0.00    -0.000 C 
ATOM     26  C   UNL     1     -33.851  27.620   3.670  0.00  0.00    -0.000 C 
ATOM     27  C   UNL     1     -32.826  27.139   5.829  0.00  0.00    -0.000 C 
ATOM     28  C   UNL     1     -38.411  25.258   2.277  0.00  0.00    -0.000 C 
ATOM     29  C   UNL     1     -32.824  27.816   4.598  0.00  0.00    -0.000 C 
ATOM     30  C   UNL     1     -37.680  26.181   1.510  0.00  0.00    -0.000 C 
ENDBRANCH  17  18
ENDBRANCH   1  17
TORSDOF 10
ENDMDL
