MODEL 1
REMARK VINA RESULT:      -6.2      0.000      0.000
REMARK  Name = 5748325
REMARK  6 active torsions:
REMARK  status: ('A' for Active; 'I' for Inactive)
REMARK    1  A    between atoms: C_2  and  N_14
REMARK    2  A    between atoms: C_3  and  N_10
REMARK    3  A    between atoms: C_6  and  N_13
REMARK    4  A    between atoms: N_14  and  CA_16
REMARK    5  A    between atoms: CA_16  and  C_19
REMARK    6  A    between atoms: C_19  and  O_20
REMARK                            x       y       z     vdW  Elec       q    Type
REMARK                         _______ _______ _______ _____ _____    ______ ____
ROOT
ATOM      1  F   UNK A   0     -35.462  26.656   2.448  0.00  0.00    -0.202 F 
ATOM      2  C   UNK A   0     -36.478  23.347   3.623  0.00  0.00    +0.070 C 
ATOM      3  C   UNK A   0     -35.540  23.169   4.659  0.00  0.00    +0.158 C 
ATOM      4  C   UNK A   0     -36.429  24.547   2.885  0.00  0.00    +0.047 C 
ATOM      5  C   UNK A   0     -34.590  24.150   4.946  0.00  0.00    +0.052 C 
ATOM      6  C   UNK A   0     -34.560  25.330   4.202  0.00  0.00    +0.172 C 
ATOM      7  C   UNK A   0     -35.480  25.528   3.171  0.00  0.00    +0.164 C 
ENDROOT
BRANCH   3  10
ATOM      8  O   UNK A   0     -35.114  20.916   4.912  0.00  0.00    -0.126 OA
ATOM      9  O   UNK A   0     -35.982  22.013   6.605  0.00  0.00    -0.126 OA
ATOM     10  N   UNK A   0     -35.546  21.973   5.431  0.00  0.00    +0.059 N 
ENDBRANCH   3  10
BRANCH   6  13
ATOM     11  O   UNK A   0     -33.749  27.045   5.512  0.00  0.00    -0.126 OA
ATOM     12  O   UNK A   0     -32.608  26.461   3.731  0.00  0.00    -0.126 OA
ATOM     13  N   UNK A   0     -33.593  26.326   4.495  0.00  0.00    +0.060 N 
ENDBRANCH   6  13
BRANCH   2  14
ATOM     14  N   ALA A   1     -37.428  22.387   3.316  0.00  0.00    -0.324 N 
ATOM     15  H   ALA A   1     -37.710  21.768   4.029  0.00  0.00    +0.147 HD
BRANCH  14  16
ATOM     16  CA  ALA A   1     -38.030  22.242   2.010  0.00  0.00    +0.169 C 
ATOM     17  CB  ALA A   1     -37.537  20.972   1.337  0.00  0.00    +0.033 C 
BRANCH  16  19
ATOM     18  OXT ALA A   1     -40.220  23.241   2.133  0.00  0.00    -0.248 OA
ATOM     19  C   ALA A   1     -39.537  22.223   2.124  0.00  0.00    +0.332 C 
BRANCH  19  20
ATOM     20  O   ALA A   1     -40.074  20.980   2.155  0.00  0.00    -0.479 OA
ATOM     21  H   ALA A   1     -39.815  20.374   2.822  0.00  0.00    +0.295 HD
ENDBRANCH  19  20
ENDBRANCH  16  19
ENDBRANCH  14  16
ENDBRANCH   2  14
TORSDOF 6
ENDMDL
MODEL 2
REMARK VINA RESULT:      -5.9      1.573      2.061
REMARK  Name = 5748325
REMARK  6 active torsions:
REMARK  status: ('A' for Active; 'I' for Inactive)
REMARK    1  A    between atoms: C_2  and  N_14
REMARK    2  A    between atoms: C_3  and  N_10
REMARK    3  A    between atoms: C_6  and  N_13
REMARK    4  A    between atoms: N_14  and  CA_16
REMARK    5  A    between atoms: CA_16  and  C_19
REMARK    6  A    between atoms: C_19  and  O_20
REMARK                            x       y       z     vdW  Elec       q    Type
REMARK                         _______ _______ _______ _____ _____    ______ ____
ROOT
ATOM      1  F   UNK A   0     -35.374  26.963   3.003  0.00  0.00    -0.202 F 
ATOM      2  C   UNK A   0     -36.447  23.570   3.841  0.00  0.00    +0.070 C 
ATOM      3  C   UNK A   0     -35.514  23.273   4.855  0.00  0.00    +0.158 C 
ATOM      4  C   UNK A   0     -36.377  24.836   3.227  0.00  0.00    +0.047 C 
ATOM      5  C   UNK A   0     -34.549  24.205   5.238  0.00  0.00    +0.052 C 
ATOM      6  C   UNK A   0     -34.498  25.453   4.616  0.00  0.00    +0.172 C 
ATOM      7  C   UNK A   0     -35.412  25.768   3.610  0.00  0.00    +0.164 C 
ENDROOT
BRANCH   3  10
ATOM      8  O   UNK A   0     -36.037  21.926   6.653  0.00  0.00    -0.126 OA
ATOM      9  O   UNK A   0     -35.072  21.011   4.905  0.00  0.00    -0.126 OA
ATOM     10  N   UNK A   0     -35.542  22.007   5.503  0.00  0.00    +0.059 N 
ENDBRANCH   3  10
BRANCH   6  13
ATOM     11  O   UNK A   0     -32.615  26.714   4.191  0.00  0.00    -0.126 OA
ATOM     12  O   UNK A   0     -33.573  26.895   6.158  0.00  0.00    -0.126 OA
ATOM     13  N   UNK A   0     -33.515  26.399   5.007  0.00  0.00    +0.060 N 
ENDBRANCH   6  13
BRANCH   2  14
ATOM     14  N   ALA A   1     -37.412  22.661   3.440  0.00  0.00    -0.324 N 
ATOM     15  H   ALA A   1     -38.133  22.440   4.073  0.00  0.00    +0.147 HD
BRANCH  14  16
ATOM     16  CA  ALA A   1     -37.421  22.021   2.144  0.00  0.00    +0.169 C 
ATOM     17  CB  ALA A   1     -37.214  23.048   1.044  0.00  0.00    +0.033 C 
BRANCH  16  19
ATOM     18  OXT ALA A   1     -35.250  21.147   1.568  0.00  0.00    -0.248 OA
ATOM     19  C   ALA A   1     -36.349  20.957   2.075  0.00  0.00    +0.332 C 
BRANCH  19  20
ATOM     20  O   ALA A   1     -36.688  19.790   2.674  0.00  0.00    -0.479 OA
ATOM     21  H   ALA A   1     -37.478  19.350   2.430  0.00  0.00    +0.295 HD
ENDBRANCH  19  20
ENDBRANCH  16  19
ENDBRANCH  14  16
ENDBRANCH   2  14
TORSDOF 6
ENDMDL
MODEL 3
REMARK VINA RESULT:      -5.8      2.712      5.960
REMARK  Name = 5748325
REMARK  6 active torsions:
REMARK  status: ('A' for Active; 'I' for Inactive)
REMARK    1  A    between atoms: C_2  and  N_14
REMARK    2  A    between atoms: C_3  and  N_10
REMARK    3  A    between atoms: C_6  and  N_13
REMARK    4  A    between atoms: N_14  and  CA_16
REMARK    5  A    between atoms: CA_16  and  C_19
REMARK    6  A    between atoms: C_19  and  O_20
REMARK                            x       y       z     vdW  Elec       q    Type
REMARK                         _______ _______ _______ _____ _____    ______ ____
ROOT
ATOM      1  F   UNK A   0     -37.522  23.464   3.567  0.00  0.00    -0.202 F 
ATOM      2  C   UNK A   0     -35.433  26.410   4.141  0.00  0.00    +0.070 C 
ATOM      3  C   UNK A   0     -34.470  25.848   5.004  0.00  0.00    +0.158 C 
ATOM      4  C   UNK A   0     -36.462  25.573   3.665  0.00  0.00    +0.047 C 
ATOM      5  C   UNK A   0     -34.535  24.505   5.378  0.00  0.00    +0.052 C 
ATOM      6  C   UNK A   0     -35.564  23.696   4.895  0.00  0.00    +0.172 C 
ATOM      7  C   UNK A   0     -36.527  24.230   4.038  0.00  0.00    +0.164 C 
ENDROOT
BRANCH   3  10
ATOM      8  O   UNK A   0     -33.377  26.896   6.744  0.00  0.00    -0.126 OA
ATOM      9  O   UNK A   0     -32.549  27.092   4.720  0.00  0.00    -0.126 OA
ATOM     10  N   UNK A   0     -33.413  26.653   5.514  0.00  0.00    +0.059 N 
ENDBRANCH   3  10
BRANCH   6  13
ATOM     11  O   UNK A   0     -35.308  21.450   4.441  0.00  0.00    -0.126 OA
ATOM     12  O   UNK A   0     -36.001  22.041   6.438  0.00  0.00    -0.126 OA
ATOM     13  N   UNK A   0     -35.628  22.330   5.276  0.00  0.00    +0.060 N 
ENDBRANCH   6  13
BRANCH   2  14
ATOM     14  N   ALA A   1     -35.392  27.740   3.758  0.00  0.00    -0.324 N 
ATOM     15  H   ALA A   1     -35.679  28.419   4.411  0.00  0.00    +0.147 HD
BRANCH  14  16
ATOM     16  CA  ALA A   1     -34.953  28.186   2.456  0.00  0.00    +0.169 C 
ATOM     17  CB  ALA A   1     -36.149  28.492   1.569  0.00  0.00    +0.033 C 
BRANCH  16  19
ATOM     18  OXT ALA A   1     -33.793  30.136   1.642  0.00  0.00    -0.248 OA
ATOM     19  C   ALA A   1     -34.073  29.409   2.588  0.00  0.00    +0.332 C 
BRANCH  19  20
ATOM     20  O   ALA A   1     -33.668  29.666   3.855  0.00  0.00    -0.479 OA
ATOM     21  H   ALA A   1     -33.629  28.973   4.484  0.00  0.00    +0.295 HD
ENDBRANCH  19  20
ENDBRANCH  16  19
ENDBRANCH  14  16
ENDBRANCH   2  14
TORSDOF 6
ENDMDL
MODEL 4
REMARK VINA RESULT:      -5.7      2.809      4.064
REMARK  Name = 5748325
REMARK  6 active torsions:
REMARK  status: ('A' for Active; 'I' for Inactive)
REMARK    1  A    between atoms: C_2  and  N_14
REMARK    2  A    between atoms: C_3  and  N_10
REMARK    3  A    between atoms: C_6  and  N_13
REMARK    4  A    between atoms: N_14  and  CA_16
REMARK    5  A    between atoms: CA_16  and  C_19
REMARK    6  A    between atoms: C_19  and  O_20
REMARK                            x       y       z     vdW  Elec       q    Type
REMARK                         _______ _______ _______ _____ _____    ______ ____
ROOT
ATOM      1  F   UNK A   0     -33.017  27.192   7.168  0.00  0.00    -0.202 F 
ATOM      2  C   UNK A   0     -34.791  24.997   4.844  0.00  0.00    +0.070 C 
ATOM      3  C   UNK A   0     -34.388  25.575   3.624  0.00  0.00    +0.158 C 
ATOM      4  C   UNK A   0     -34.307  25.568   6.038  0.00  0.00    +0.047 C 
ATOM      5  C   UNK A   0     -33.537  26.681   3.598  0.00  0.00    +0.052 C 
ATOM      6  C   UNK A   0     -33.071  27.230   4.793  0.00  0.00    +0.172 C 
ATOM      7  C   UNK A   0     -33.456  26.673   6.013  0.00  0.00    +0.164 C 
ENDROOT
BRANCH   3  10
ATOM      8  O   UNK A   0     -36.085  24.873   2.228  0.00  0.00    -0.126 OA
ATOM      9  O   UNK A   0     -34.015  24.743   1.506  0.00  0.00    -0.126 OA
ATOM     10  N   UNK A   0     -34.852  25.037   2.391  0.00  0.00    +0.059 N 
ENDBRANCH   3  10
BRANCH   6  13
ATOM     11  O   UNK A   0     -30.967  28.167   4.687  0.00  0.00    -0.126 OA
ATOM     12  O   UNK A   0     -32.702  29.505   4.815  0.00  0.00    -0.126 OA
ATOM     13  N   UNK A   0     -32.205  28.355   4.764  0.00  0.00    +0.060 N 
ENDBRANCH   6  13
BRANCH   2  14
ATOM     14  N   ALA A   1     -35.637  23.902   4.897  0.00  0.00    -0.324 N 
ATOM     15  H   ALA A   1     -36.608  24.064   4.862  0.00  0.00    +0.147 HD
BRANCH  14  16
ATOM     16  CA  ALA A   1     -35.176  22.537   4.999  0.00  0.00    +0.169 C 
ATOM     17  CB  ALA A   1     -35.541  21.954   6.354  0.00  0.00    +0.033 C 
BRANCH  16  19
ATOM     18  OXT ALA A   1     -35.304  20.614   3.550  0.00  0.00    -0.248 OA
ATOM     19  C   ALA A   1     -35.769  21.696   3.891  0.00  0.00    +0.332 C 
BRANCH  19  20
ATOM     20  O   ALA A   1     -36.896  22.214   3.345  0.00  0.00    -0.479 OA
ATOM     21  H   ALA A   1     -37.734  21.875   3.590  0.00  0.00    +0.295 HD
ENDBRANCH  19  20
ENDBRANCH  16  19
ENDBRANCH  14  16
ENDBRANCH   2  14
TORSDOF 6
ENDMDL
MODEL 5
REMARK VINA RESULT:      -5.6      2.621      3.824
REMARK  Name = 5748325
REMARK  6 active torsions:
REMARK  status: ('A' for Active; 'I' for Inactive)
REMARK    1  A    between atoms: C_2  and  N_14
REMARK    2  A    between atoms: C_3  and  N_10
REMARK    3  A    between atoms: C_6  and  N_13
REMARK    4  A    between atoms: N_14  and  CA_16
REMARK    5  A    between atoms: CA_16  and  C_19
REMARK    6  A    between atoms: C_19  and  O_20
REMARK                            x       y       z     vdW  Elec       q    Type
REMARK                         _______ _______ _______ _____ _____    ______ ____
ROOT
ATOM      1  F   UNK A   0     -32.882  27.249   4.886  0.00  0.00    -0.202 F 
ATOM      2  C   UNK A   0     -35.677  24.931   4.459  0.00  0.00    +0.070 C 
ATOM      3  C   UNK A   0     -36.396  25.616   3.459  0.00  0.00    +0.158 C 
ATOM      4  C   UNK A   0     -34.480  25.511   4.926  0.00  0.00    +0.047 C 
ATOM      5  C   UNK A   0     -35.939  26.832   2.948  0.00  0.00    +0.052 C 
ATOM      6  C   UNK A   0     -34.753  27.387   3.427  0.00  0.00    +0.172 C 
ATOM      7  C   UNK A   0     -34.023  26.726   4.416  0.00  0.00    +0.164 C 
ENDROOT
BRANCH   3  10
ATOM      8  O   UNK A   0     -37.798  25.052   1.715  0.00  0.00    -0.126 OA
ATOM      9  O   UNK A   0     -38.459  24.632   3.766  0.00  0.00    -0.126 OA
ATOM     10  N   UNK A   0     -37.612  25.073   2.955  0.00  0.00    +0.059 N 
ENDBRANCH   3  10
BRANCH   6  13
ATOM     11  O   UNK A   0     -34.779  29.691   3.351  0.00  0.00    -0.126 OA
ATOM     12  O   UNK A   0     -33.405  28.616   2.018  0.00  0.00    -0.126 OA
ATOM     13  N   UNK A   0     -34.290  28.624   2.906  0.00  0.00    +0.060 N 
ENDBRANCH   6  13
BRANCH   2  14
ATOM     14  N   ALA A   1     -36.111  23.726   4.984  0.00  0.00    -0.324 N 
ATOM     15  H   ALA A   1     -37.008  23.692   5.389  0.00  0.00    +0.147 HD
BRANCH  14  16
ATOM     16  CA  ALA A   1     -35.322  22.515   4.970  0.00  0.00    +0.169 C 
ATOM     17  CB  ALA A   1     -35.394  21.820   6.319  0.00  0.00    +0.033 C 
BRANCH  16  19
ATOM     18  OXT ALA A   1     -35.197  20.573   3.548  0.00  0.00    -0.248 OA
ATOM     19  C   ALA A   1     -35.802  21.587   3.877  0.00  0.00    +0.332 C 
BRANCH  19  20
ATOM     20  O   ALA A   1     -36.991  21.940   3.333  0.00  0.00    -0.479 OA
ATOM     21  H   ALA A   1     -37.599  22.453   3.828  0.00  0.00    +0.295 HD
ENDBRANCH  19  20
ENDBRANCH  16  19
ENDBRANCH  14  16
ENDBRANCH   2  14
TORSDOF 6
ENDMDL
MODEL 6
REMARK VINA RESULT:      -5.5      2.286      2.842
REMARK  Name = 5748325
REMARK  6 active torsions:
REMARK  status: ('A' for Active; 'I' for Inactive)
REMARK    1  A    between atoms: C_2  and  N_14
REMARK    2  A    between atoms: C_3  and  N_10
REMARK    3  A    between atoms: C_6  and  N_13
REMARK    4  A    between atoms: N_14  and  CA_16
REMARK    5  A    between atoms: CA_16  and  C_19
REMARK    6  A    between atoms: C_19  and  O_20
REMARK                            x       y       z     vdW  Elec       q    Type
REMARK                         _______ _______ _______ _____ _____    ______ ____
ROOT
ATOM      1  F   UNK A   0     -33.681  23.776   4.965  0.00  0.00    -0.202 F 
ATOM      2  C   UNK A   0     -37.100  23.554   3.688  0.00  0.00    +0.070 C 
ATOM      3  C   UNK A   0     -37.466  24.913   3.765  0.00  0.00    +0.158 C 
ATOM      4  C   UNK A   0     -35.802  23.195   4.103  0.00  0.00    +0.047 C 
ATOM      5  C   UNK A   0     -36.571  25.873   4.240  0.00  0.00    +0.052 C 
ATOM      6  C   UNK A   0     -35.292  25.494   4.645  0.00  0.00    +0.172 C 
ATOM      7  C   UNK A   0     -34.907  24.154   4.577  0.00  0.00    +0.164 C 
ENDROOT
BRANCH   3  10
ATOM      8  O   UNK A   0     -38.875  26.288   2.563  0.00  0.00    -0.126 OA
ATOM      9  O   UNK A   0     -39.763  24.717   3.814  0.00  0.00    -0.126 OA
ATOM     10  N   UNK A   0     -38.767  25.326   3.361  0.00  0.00    +0.059 N 
ENDBRANCH   3  10
BRANCH   6  13
ATOM     11  O   UNK A   0     -34.000  26.410   6.321  0.00  0.00    -0.126 OA
ATOM     12  O   UNK A   0     -33.988  27.371   4.348  0.00  0.00    -0.126 OA
ATOM     13  N   UNK A   0     -34.384  26.472   5.128  0.00  0.00    +0.060 N 
ENDBRANCH   6  13
BRANCH   2  14
ATOM     14  N   ALA A   1     -37.970  22.582   3.225  0.00  0.00    -0.324 N 
ATOM     15  H   ALA A   1     -38.448  22.033   3.889  0.00  0.00    +0.147 HD
BRANCH  14  16
ATOM     16  CA  ALA A   1     -38.217  22.328   1.824  0.00  0.00    +0.169 C 
ATOM     17  CB  ALA A   1     -37.410  21.130   1.352  0.00  0.00    +0.033 C 
BRANCH  16  19
ATOM     18  OXT ALA A   1     -40.380  22.830   0.886  0.00  0.00    -0.248 OA
ATOM     19  C   ALA A   1     -39.691  22.094   1.583  0.00  0.00    +0.332 C 
BRANCH  19  20
ATOM     20  O   ALA A   1     -40.173  20.965   2.156  0.00  0.00    -0.479 OA
ATOM     21  H   ALA A   1     -39.649  20.490   2.771  0.00  0.00    +0.295 HD
ENDBRANCH  19  20
ENDBRANCH  16  19
ENDBRANCH  14  16
ENDBRANCH   2  14
TORSDOF 6
ENDMDL
MODEL 7
REMARK VINA RESULT:      -5.5      2.222      3.347
REMARK  Name = 5748325
REMARK  6 active torsions:
REMARK  status: ('A' for Active; 'I' for Inactive)
REMARK    1  A    between atoms: C_2  and  N_14
REMARK    2  A    between atoms: C_3  and  N_10
REMARK    3  A    between atoms: C_6  and  N_13
REMARK    4  A    between atoms: N_14  and  CA_16
REMARK    5  A    between atoms: CA_16  and  C_19
REMARK    6  A    between atoms: C_19  and  O_20
REMARK                            x       y       z     vdW  Elec       q    Type
REMARK                         _______ _______ _______ _____ _____    ______ ____
ROOT
ATOM      1  F   UNK A   0     -33.598  23.836   4.956  0.00  0.00    -0.202 F 
ATOM      2  C   UNK A   0     -36.956  23.430   3.566  0.00  0.00    +0.070 C 
ATOM      3  C   UNK A   0     -37.397  24.767   3.630  0.00  0.00    +0.158 C 
ATOM      4  C   UNK A   0     -35.654  23.141   4.025  0.00  0.00    +0.047 C 
ATOM      5  C   UNK A   0     -36.572  25.774   4.133  0.00  0.00    +0.052 C 
ATOM      6  C   UNK A   0     -35.288  25.464   4.581  0.00  0.00    +0.172 C 
ATOM      7  C   UNK A   0     -34.830  24.147   4.527  0.00  0.00    +0.164 C 
ENDROOT
BRANCH   3  10
ATOM      8  O   UNK A   0     -39.693  24.566   3.731  0.00  0.00    -0.126 OA
ATOM      9  O   UNK A   0     -38.828  25.944   2.257  0.00  0.00    -0.126 OA
ATOM     10  N   UNK A   0     -38.704  25.109   3.183  0.00  0.00    +0.059 N 
ENDBRANCH   3  10
BRANCH   6  13
ATOM     11  O   UNK A   0     -34.118  27.436   4.337  0.00  0.00    -0.126 OA
ATOM     12  O   UNK A   0     -34.069  26.425   6.285  0.00  0.00    -0.126 OA
ATOM     13  N   UNK A   0     -34.451  26.490   5.093  0.00  0.00    +0.060 N 
ENDBRANCH   6  13
BRANCH   2  14
ATOM     14  N   ALA A   1     -37.756  22.412   3.075  0.00  0.00    -0.324 N 
ATOM     15  H   ALA A   1     -38.472  22.065   3.655  0.00  0.00    +0.147 HD
BRANCH  14  16
ATOM     16  CA  ALA A   1     -37.600  21.833   1.761  0.00  0.00    +0.169 C 
ATOM     17  CB  ALA A   1     -37.230  22.905   0.750  0.00  0.00    +0.033 C 
BRANCH  16  19
ATOM     18  OXT ALA A   1     -35.487  20.834   1.174  0.00  0.00    -0.248 OA
ATOM     19  C   ALA A   1     -36.546  20.750   1.784  0.00  0.00    +0.332 C 
BRANCH  19  20
ATOM     20  O   ALA A   1     -36.848  19.700   2.587  0.00  0.00    -0.479 OA
ATOM     21  H   ALA A   1     -37.664  19.682   3.046  0.00  0.00    +0.295 HD
ENDBRANCH  19  20
ENDBRANCH  16  19
ENDBRANCH  14  16
ENDBRANCH   2  14
TORSDOF 6
ENDMDL
MODEL 8
REMARK VINA RESULT:      -5.4      2.363      5.873
REMARK  Name = 5748325
REMARK  6 active torsions:
REMARK  status: ('A' for Active; 'I' for Inactive)
REMARK    1  A    between atoms: C_2  and  N_14
REMARK    2  A    between atoms: C_3  and  N_10
REMARK    3  A    between atoms: C_6  and  N_13
REMARK    4  A    between atoms: N_14  and  CA_16
REMARK    5  A    between atoms: CA_16  and  C_19
REMARK    6  A    between atoms: C_19  and  O_20
REMARK                            x       y       z     vdW  Elec       q    Type
REMARK                         _______ _______ _______ _____ _____    ______ ____
ROOT
ATOM      1  F   UNK A   0     -40.325  23.875   1.964  0.00  0.00    -0.202 F 
ATOM      2  C   UNK A   0     -36.864  23.259   2.969  0.00  0.00    +0.070 C 
ATOM      3  C   UNK A   0     -36.643  22.035   2.306  0.00  0.00    +0.158 C 
ATOM      4  C   UNK A   0     -38.129  23.865   2.834  0.00  0.00    +0.047 C 
ATOM      5  C   UNK A   0     -37.647  21.441   1.540  0.00  0.00    +0.052 C 
ATOM      6  C   UNK A   0     -38.892  22.059   1.421  0.00  0.00    +0.172 C 
ATOM      7  C   UNK A   0     -39.133  23.271   2.068  0.00  0.00    +0.164 C 
ENDROOT
BRANCH   3  10
ATOM      8  O   UNK A   0     -35.199  20.575   3.356  0.00  0.00    -0.126 OA
ATOM      9  O   UNK A   0     -34.497  21.632   1.563  0.00  0.00    -0.126 OA
ATOM     10  N   UNK A   0     -35.383  21.382   2.413  0.00  0.00    +0.059 N 
ENDBRANCH   3  10
BRANCH   6  13
ATOM     11  O   UNK A   0     -39.866  21.558  -0.608  0.00  0.00    -0.126 OA
ATOM     12  O   UNK A   0     -40.828  20.824   1.224  0.00  0.00    -0.126 OA
ATOM     13  N   UNK A   0     -39.911  21.452   0.642  0.00  0.00    +0.060 N 
ENDBRANCH   6  13
BRANCH   2  14
ATOM     14  N   ALA A   1     -35.886  23.868   3.737  0.00  0.00    -0.324 N 
ATOM     15  H   ALA A   1     -35.062  24.166   3.288  0.00  0.00    +0.147 HD
BRANCH  14  16
ATOM     16  CA  ALA A   1     -36.007  24.091   5.160  0.00  0.00    +0.169 C 
ATOM     17  CB  ALA A   1     -35.186  23.069   5.928  0.00  0.00    +0.033 C 
BRANCH  16  19
ATOM     18  OXT ALA A   1     -34.429  25.758   5.894  0.00  0.00    -0.248 OA
ATOM     19  C   ALA A   1     -35.563  25.492   5.513  0.00  0.00    +0.332 C 
BRANCH  19  20
ATOM     20  O   ALA A   1     -36.512  26.440   5.317  0.00  0.00    -0.479 OA
ATOM     21  H   ALA A   1     -36.926  26.521   4.481  0.00  0.00    +0.295 HD
ENDBRANCH  19  20
ENDBRANCH  16  19
ENDBRANCH  14  16
ENDBRANCH   2  14
TORSDOF 6
ENDMDL
MODEL 9
REMARK VINA RESULT:      -5.3      2.844      6.229
REMARK  Name = 5748325
REMARK  6 active torsions:
REMARK  status: ('A' for Active; 'I' for Inactive)
REMARK    1  A    between atoms: C_2  and  N_14
REMARK    2  A    between atoms: C_3  and  N_10
REMARK    3  A    between atoms: C_6  and  N_13
REMARK    4  A    between atoms: N_14  and  CA_16
REMARK    5  A    between atoms: CA_16  and  C_19
REMARK    6  A    between atoms: C_19  and  O_20
REMARK                            x       y       z     vdW  Elec       q    Type
REMARK                         _______ _______ _______ _____ _____    ______ ____
ROOT
ATOM      1  F   UNK A   0     -37.006  20.094   1.661  0.00  0.00    -0.202 F 
ATOM      2  C   UNK A   0     -36.837  23.504   2.969  0.00  0.00    +0.070 C 
ATOM      3  C   UNK A   0     -38.084  23.987   2.524  0.00  0.00    +0.158 C 
ATOM      4  C   UNK A   0     -36.496  22.171   2.661  0.00  0.00    +0.047 C 
ATOM      5  C   UNK A   0     -38.954  23.171   1.799  0.00  0.00    +0.052 C 
ATOM      6  C   UNK A   0     -38.594  21.856   1.506  0.00  0.00    +0.172 C 
ATOM      7  C   UNK A   0     -37.365  21.356   1.937  0.00  0.00    +0.164 C 
ENDROOT
BRANCH   3  10
ATOM      8  O   UNK A   0     -37.654  26.252   2.597  0.00  0.00    -0.126 OA
ATOM      9  O   UNK A   0     -39.624  25.539   3.256  0.00  0.00    -0.126 OA
ATOM     10  N   UNK A   0     -38.474  25.326   2.807  0.00  0.00    +0.059 N 
ENDBRANCH   3  10
BRANCH   6  13
ATOM     11  O   UNK A   0     -40.663  20.895   1.168  0.00  0.00    -0.126 OA
ATOM     12  O   UNK A   0     -39.059  20.454  -0.264  0.00  0.00    -0.126 OA
ATOM     13  N   UNK A   0     -39.481  21.028   0.768  0.00  0.00    +0.060 N 
ENDBRANCH   6  13
BRANCH   2  14
ATOM     14  N   ALA A   1     -35.955  24.294   3.687  0.00  0.00    -0.324 N 
ATOM     15  H   ALA A   1     -35.292  24.823   3.186  0.00  0.00    +0.147 HD
BRANCH  14  16
ATOM     16  CA  ALA A   1     -35.953  24.387   5.129  0.00  0.00    +0.169 C 
ATOM     17  CB  ALA A   1     -34.944  23.417   5.721  0.00  0.00    +0.033 C 
BRANCH  16  19
ATOM     18  OXT ALA A   1     -34.538  26.141   5.985  0.00  0.00    -0.248 OA
ATOM     19  C   ALA A   1     -35.638  25.800   5.566  0.00  0.00    +0.332 C 
BRANCH  19  20
ATOM     20  O   ALA A   1     -36.662  26.672   5.398  0.00  0.00    -0.479 OA
ATOM     21  H   ALA A   1     -36.519  27.481   4.947  0.00  0.00    +0.295 HD
ENDBRANCH  19  20
ENDBRANCH  16  19
ENDBRANCH  14  16
ENDBRANCH   2  14
TORSDOF 6
ENDMDL
