MODEL 1
REMARK VINA RESULT:      -6.3      0.000      0.000
REMARK  Name = 51039
REMARK  6 active torsions:
REMARK  status: ('A' for Active; 'I' for Inactive)
REMARK    1  A    between atoms: N_2  and  CA_10
REMARK    2  A    between atoms: C_3  and  CA_19
REMARK    3  A    between atoms: CA_12  and  C_16
REMARK    4  A    between atoms: C_16  and  O_17
REMARK    5  A    between atoms: CA_19  and  C_20
REMARK    6  A    between atoms: CA_19  and  N_26
REMARK                            x       y       z     vdW  Elec       q    Type
REMARK                         _______ _______ _______ _____ _____    ______ ____
ROOT
ATOM      1  O   UNL     1     -35.406  20.305   3.195  0.00  0.00    -0.277 OA
ATOM      2  N   UNL     1     -35.102  22.195   1.886  0.00  0.00    -0.298 N 
ATOM      3  C   UNL     1     -35.187  20.818   2.098  0.00  0.00    +0.206 C 
ATOM      4  H   UNL     1     -34.924  22.521   0.974  0.00  0.00    +0.150 HD
ENDROOT
BRANCH   2  10
ATOM      5 CL   UNL     1     -36.578  28.554   0.999  0.00  0.00    -0.085 Cl
ATOM      6  S   UNL     1     -34.096  24.985   1.089  0.00  0.00    -0.113 S 
ATOM      7  O   UNL     1     -37.803  23.289   3.353  0.00  0.00    -0.273 OA
ATOM      8  N   UNL     1     -36.278  24.928   2.615  0.00  0.00    -0.241 N 
ATOM      9  C   UNL     1     -34.857  24.639   2.694  0.00  0.00    +0.155 C 
ATOM     10  CA  UNL     1     -35.269  23.175   2.959  0.00  0.00    +0.178 C 
ATOM     11  C   UNL     1     -36.716  23.735   3.069  0.00  0.00    +0.251 C 
ATOM     12  CA  UNL     1     -36.781  26.118   2.192  0.00  0.00    +0.138 C 
ATOM     13  C   UNL     1     -34.559  26.753   1.121  0.00  0.00    +0.098 C 
ATOM     14  C   UNL     1     -36.000  26.998   1.529  0.00  0.00    +0.066 C 
BRANCH  12  16
ATOM     15  OXT UNL     1     -39.034  26.557   1.579  0.00  0.00    -0.244 OA
ATOM     16  C   UNL     1     -38.207  26.374   2.447  0.00  0.00    +0.353 C 
BRANCH  16  17
ATOM     17  O   UNL     1     -38.430  26.369   3.776  0.00  0.00    -0.476 OA
ATOM     18  H   UNL     1     -37.842  26.818   4.351  0.00  0.00    +0.295 HD
ENDBRANCH  16  17
ENDBRANCH  12  16
ENDBRANCH   2  10
BRANCH   3  19
ATOM     19  CA  UNL     1     -34.956  20.006   0.828  0.00  0.00    +0.036 C 
BRANCH  19  20
ATOM     20  C   UNL     1     -33.511  19.567   0.723  0.00  0.00    -0.034 C 
ATOM     21  C   UNL     1     -33.120  18.384   1.324  0.00  0.00    -0.006 C 
ATOM     22  C   UNL     1     -32.614  20.359   0.029  0.00  0.00    -0.006 C 
ATOM     23  C   UNL     1     -31.789  17.979   1.227  0.00  0.00    -0.000 C 
ATOM     24  C   UNL     1     -31.283  19.955  -0.068  0.00  0.00    -0.000 C 
ATOM     25  C   UNL     1     -30.870  18.765   0.531  0.00  0.00    -0.000 C 
ENDBRANCH  19  20
BRANCH  19  26
ATOM     26  N   UNL     1     -35.885  18.871   0.848  0.00  0.00    +0.390 N 
ATOM     27  H1  UNL     1     -36.561  18.999   1.601  0.00  0.00    -0.088 HD
ATOM     28  H2  UNL     1     -35.363  18.008   1.003  0.00  0.00    -0.088 HD
ATOM     29  H3  UNL     1     -36.374  18.816  -0.045  0.00  0.00    -0.088 HD
ENDBRANCH  19  26
ENDBRANCH   3  19
TORSDOF 6
ENDMDL
MODEL 2
REMARK VINA RESULT:      -6.0      4.507      6.143
REMARK  Name = 51039
REMARK  6 active torsions:
REMARK  status: ('A' for Active; 'I' for Inactive)
REMARK    1  A    between atoms: N_2  and  CA_10
REMARK    2  A    between atoms: C_3  and  CA_19
REMARK    3  A    between atoms: CA_12  and  C_16
REMARK    4  A    between atoms: C_16  and  O_17
REMARK    5  A    between atoms: CA_19  and  C_20
REMARK    6  A    between atoms: CA_19  and  N_26
REMARK                            x       y       z     vdW  Elec       q    Type
REMARK                         _______ _______ _______ _____ _____    ______ ____
ROOT
ATOM      1  O   UNL     1     -34.191  25.914   3.408  0.00  0.00    -0.277 OA
ATOM      2  N   UNL     1     -35.749  27.631   3.358  0.00  0.00    -0.298 N 
ATOM      3  C   UNL     1     -35.286  26.369   3.735  0.00  0.00    +0.206 C 
ATOM      4  H   UNL     1     -36.640  27.917   3.665  0.00  0.00    +0.150 HD
ENDROOT
BRANCH   2  10
ATOM      5 CL   UNL     1     -38.231  31.513  -1.350  0.00  0.00    -0.085 Cl
ATOM      6  S   UNL     1     -36.837  27.830   0.493  0.00  0.00    -0.113 S 
ATOM      7  O   UNL     1     -35.212  30.834   3.669  0.00  0.00    -0.273 OA
ATOM      8  N   UNL     1     -35.889  30.090   1.536  0.00  0.00    -0.241 N 
ATOM      9  C   UNL     1     -35.420  28.795   1.072  0.00  0.00    +0.155 C 
ATOM     10  CA  UNL     1     -34.967  28.547   2.528  0.00  0.00    +0.178 C 
ATOM     11  C   UNL     1     -35.317  30.045   2.758  0.00  0.00    +0.251 C 
ATOM     12  CA  UNL     1     -36.650  30.927   0.784  0.00  0.00    +0.138 C 
ATOM     13  C   UNL     1     -37.275  29.039  -0.808  0.00  0.00    +0.098 C 
ATOM     14  C   UNL     1     -37.275  30.477  -0.326  0.00  0.00    +0.066 C 
BRANCH  12  16
ATOM     15  OXT UNL     1     -36.017  33.207   1.004  0.00  0.00    -0.244 OA
ATOM     16  C   UNL     1     -36.796  32.312   1.258  0.00  0.00    +0.353 C 
BRANCH  16  17
ATOM     17  O   UNL     1     -37.913  32.412   2.005  0.00  0.00    -0.476 OA
ATOM     18  H   UNL     1     -37.867  32.759   2.873  0.00  0.00    +0.295 HD
ENDBRANCH  16  17
ENDBRANCH  12  16
ENDBRANCH   2  10
BRANCH   3  19
ATOM     19  CA  UNL     1     -36.292  25.596   4.581  0.00  0.00    +0.036 C 
BRANCH  19  20
ATOM     20  C   UNL     1     -35.885  24.144   4.711  0.00  0.00    -0.034 C 
ATOM     21  C   UNL     1     -36.062  23.294   3.633  0.00  0.00    -0.006 C 
ATOM     22  C   UNL     1     -35.346  23.698   5.905  0.00  0.00    -0.006 C 
ATOM     23  C   UNL     1     -35.687  21.956   3.753  0.00  0.00    -0.000 C 
ATOM     24  C   UNL     1     -34.970  22.360   6.025  0.00  0.00    -0.000 C 
ATOM     25  C   UNL     1     -35.141  21.489   4.949  0.00  0.00    -0.000 C 
ENDBRANCH  19  20
BRANCH  19  26
ATOM     26  N   UNL     1     -36.392  26.267   5.881  0.00  0.00    +0.390 N 
ATOM     27  H1  UNL     1     -35.748  27.058   5.905  0.00  0.00    -0.088 HD
ATOM     28  H2  UNL     1     -36.150  25.609   6.622  0.00  0.00    -0.088 HD
ATOM     29  H3  UNL     1     -37.346  26.600   6.020  0.00  0.00    -0.088 HD
ENDBRANCH  19  26
ENDBRANCH   3  19
TORSDOF 6
ENDMDL
MODEL 3
REMARK VINA RESULT:      -5.9      3.452      7.109
REMARK  Name = 51039
REMARK  6 active torsions:
REMARK  status: ('A' for Active; 'I' for Inactive)
REMARK    1  A    between atoms: N_2  and  CA_10
REMARK    2  A    between atoms: C_3  and  CA_19
REMARK    3  A    between atoms: CA_12  and  C_16
REMARK    4  A    between atoms: C_16  and  O_17
REMARK    5  A    between atoms: CA_19  and  C_20
REMARK    6  A    between atoms: CA_19  and  N_26
REMARK                            x       y       z     vdW  Elec       q    Type
REMARK                         _______ _______ _______ _____ _____    ______ ____
ROOT
ATOM      1  O   UNL     1     -35.641  26.624   5.610  0.00  0.00    -0.277 OA
ATOM      2  N   UNL     1     -34.609  24.661   4.930  0.00  0.00    -0.298 N 
ATOM      3  C   UNL     1     -34.616  25.987   5.368  0.00  0.00    +0.206 C 
ATOM      4  H   UNL     1     -33.742  24.226   4.760  0.00  0.00    +0.150 HD
ENDROOT
BRANCH   2  10
ATOM      5 CL   UNL     1     -36.102  21.423  -0.609  0.00  0.00    -0.085 Cl
ATOM      6  S   UNL     1     -35.606  24.842   2.031  0.00  0.00    -0.113 S 
ATOM      7  O   UNL     1     -35.174  21.461   5.213  0.00  0.00    -0.273 OA
ATOM      8  N   UNL     1     -35.921  22.482   3.224  0.00  0.00    -0.241 N 
ATOM      9  C   UNL     1     -36.433  23.840   3.290  0.00  0.00    +0.155 C 
ATOM     10  CA  UNL     1     -35.833  23.891   4.713  0.00  0.00    +0.178 C 
ATOM     11  C   UNL     1     -35.583  22.367   4.525  0.00  0.00    +0.251 C 
ATOM     12  CA  UNL     1     -35.903  21.741   2.085  0.00  0.00    +0.138 C 
ATOM     13  C   UNL     1     -36.224  23.819   0.647  0.00  0.00    +0.098 C 
ATOM     14  C   UNL     1     -36.076  22.327   0.880  0.00  0.00    +0.066 C 
BRANCH  12  16
ATOM     15  OXT UNL     1     -34.559  19.781   2.054  0.00  0.00    -0.244 OA
ATOM     16  C   UNL     1     -35.643  20.300   2.224  0.00  0.00    +0.353 C 
BRANCH  16  17
ATOM     17  O   UNL     1     -36.786  19.672   2.564  0.00  0.00    -0.476 OA
ATOM     18  H   UNL     1     -36.984  18.831   2.204  0.00  0.00    +0.295 HD
ENDBRANCH  16  17
ENDBRANCH  12  16
ENDBRANCH   2  10
BRANCH   3  19
ATOM     19  CA  UNL     1     -33.216  26.577   5.497  0.00  0.00    +0.036 C 
BRANCH  19  20
ATOM     20  C   UNL     1     -33.019  27.715   4.518  0.00  0.00    -0.034 C 
ATOM     21  C   UNL     1     -32.221  28.787   4.882  0.00  0.00    -0.006 C 
ATOM     22  C   UNL     1     -33.640  27.660   3.283  0.00  0.00    -0.006 C 
ATOM     23  C   UNL     1     -32.039  29.835   3.980  0.00  0.00    -0.000 C 
ATOM     24  C   UNL     1     -33.457  28.708   2.382  0.00  0.00    -0.000 C 
ATOM     25  C   UNL     1     -32.657  29.796   2.730  0.00  0.00    -0.000 C 
ENDBRANCH  19  20
BRANCH  19  26
ATOM     26  N   UNL     1     -33.036  27.000   6.889  0.00  0.00    +0.390 N 
ATOM     27  H1  UNL     1     -32.060  26.878   7.158  0.00  0.00    -0.088 HD
ATOM     28  H2  UNL     1     -33.629  26.434   7.496  0.00  0.00    -0.088 HD
ATOM     29  H3  UNL     1     -33.294  27.983   6.982  0.00  0.00    -0.088 HD
ENDBRANCH  19  26
ENDBRANCH   3  19
TORSDOF 6
ENDMDL
MODEL 4
REMARK VINA RESULT:      -5.9      4.280      6.201
REMARK  Name = 51039
REMARK  6 active torsions:
REMARK  status: ('A' for Active; 'I' for Inactive)
REMARK    1  A    between atoms: N_2  and  CA_10
REMARK    2  A    between atoms: C_3  and  CA_19
REMARK    3  A    between atoms: CA_12  and  C_16
REMARK    4  A    between atoms: C_16  and  O_17
REMARK    5  A    between atoms: CA_19  and  C_20
REMARK    6  A    between atoms: CA_19  and  N_26
REMARK                            x       y       z     vdW  Elec       q    Type
REMARK                         _______ _______ _______ _____ _____    ______ ____
ROOT
ATOM      1  O   UNL     1     -35.043  25.178   1.515  0.00  0.00    -0.277 OA
ATOM      2  N   UNL     1     -34.348  26.322   3.409  0.00  0.00    -0.298 N 
ATOM      3  C   UNL     1     -35.191  25.461   2.703  0.00  0.00    +0.206 C 
ATOM      4  H   UNL     1     -34.539  26.492   4.360  0.00  0.00    +0.150 HD
ENDROOT
BRANCH   2  10
ATOM      5 CL   UNL     1     -33.692  32.827   2.608  0.00  0.00    -0.085 Cl
ATOM      6  S   UNL     1     -35.139  28.809   1.792  0.00  0.00    -0.113 S 
ATOM      7  O   UNL     1     -31.732  27.708   4.779  0.00  0.00    -0.273 OA
ATOM      8  N   UNL     1     -32.841  28.974   3.128  0.00  0.00    -0.241 N 
ATOM      9  C   UNL     1     -33.422  28.277   1.993  0.00  0.00    +0.155 C 
ATOM     10  CA  UNL     1     -33.193  26.979   2.798  0.00  0.00    +0.178 C 
ATOM     11  C   UNL     1     -32.398  27.881   3.785  0.00  0.00    +0.251 C 
ATOM     12  CA  UNL     1     -32.850  30.325   3.264  0.00  0.00    +0.138 C 
ATOM     13  C   UNL     1     -34.685  30.559   1.513  0.00  0.00    +0.098 C 
ATOM     14  C   UNL     1     -33.667  31.088   2.505  0.00  0.00    +0.066 C 
BRANCH  12  16
ATOM     15  OXT UNL     1     -30.939  31.492   4.061  0.00  0.00    -0.244 OA
ATOM     16  C   UNL     1     -31.974  30.903   4.295  0.00  0.00    +0.353 C 
BRANCH  16  17
ATOM     17  O   UNL     1     -32.505  30.671   5.512  0.00  0.00    -0.476 OA
ATOM     18  H   UNL     1     -33.362  30.303   5.586  0.00  0.00    +0.295 HD
ENDBRANCH  16  17
ENDBRANCH  12  16
ENDBRANCH   2  10
BRANCH   3  19
ATOM     19  CA  UNL     1     -36.334  24.919   3.554  0.00  0.00    +0.036 C 
BRANCH  19  20
ATOM     20  C   UNL     1     -35.909  23.673   4.300  0.00  0.00    -0.034 C 
ATOM     21  C   UNL     1     -35.669  23.749   5.660  0.00  0.00    -0.006 C 
ATOM     22  C   UNL     1     -35.769  22.484   3.605  0.00  0.00    -0.006 C 
ATOM     23  C   UNL     1     -35.278  22.600   6.348  0.00  0.00    -0.000 C 
ATOM     24  C   UNL     1     -35.377  21.336   4.292  0.00  0.00    -0.000 C 
ATOM     25  C   UNL     1     -35.132  21.394   5.664  0.00  0.00    -0.000 C 
ENDBRANCH  19  20
BRANCH  19  26
ATOM     26  N   UNL     1     -36.765  25.991   4.457  0.00  0.00    +0.390 N 
ATOM     27  H1  UNL     1     -37.049  25.589   5.350  0.00  0.00    -0.088 HD
ATOM     28  H2  UNL     1     -37.554  26.488   4.043  0.00  0.00    -0.088 HD
ATOM     29  H3  UNL     1     -35.994  26.641   4.606  0.00  0.00    -0.088 HD
ENDBRANCH  19  26
ENDBRANCH   3  19
TORSDOF 6
ENDMDL
MODEL 5
REMARK VINA RESULT:      -5.8      4.940      6.923
REMARK  Name = 51039
REMARK  6 active torsions:
REMARK  status: ('A' for Active; 'I' for Inactive)
REMARK    1  A    between atoms: N_2  and  CA_10
REMARK    2  A    between atoms: C_3  and  CA_19
REMARK    3  A    between atoms: CA_12  and  C_16
REMARK    4  A    between atoms: C_16  and  O_17
REMARK    5  A    between atoms: CA_19  and  C_20
REMARK    6  A    between atoms: CA_19  and  N_26
REMARK                            x       y       z     vdW  Elec       q    Type
REMARK                         _______ _______ _______ _____ _____    ______ ____
ROOT
ATOM      1  O   UNL     1     -33.421  26.141   5.938  0.00  0.00    -0.277 OA
ATOM      2  N   UNL     1     -33.670  27.453   4.042  0.00  0.00    -0.298 N 
ATOM      3  C   UNL     1     -34.085  26.488   4.962  0.00  0.00    +0.206 C 
ATOM      4  H   UNL     1     -34.266  27.672   3.289  0.00  0.00    +0.150 HD
ENDROOT
BRANCH   2  10
ATOM      5 CL   UNL     1     -31.342  31.763  -0.362  0.00  0.00    -0.085 Cl
ATOM      6  S   UNL     1     -32.333  27.874   1.310  0.00  0.00    -0.113 S 
ATOM      7  O   UNL     1     -32.984  30.446   5.145  0.00  0.00    -0.273 OA
ATOM      8  N   UNL     1     -32.049  29.860   3.062  0.00  0.00    -0.241 N 
ATOM      9  C   UNL     1     -31.619  28.488   2.855  0.00  0.00    +0.155 C 
ATOM     10  CA  UNL     1     -32.392  28.154   4.150  0.00  0.00    +0.178 C 
ATOM     11  C   UNL     1     -32.539  29.695   4.308  0.00  0.00    +0.251 C 
ATOM     12  CA  UNL     1     -31.888  30.844   2.139  0.00  0.00    +0.138 C 
ATOM     13  C   UNL     1     -31.498  29.139   0.287  0.00  0.00    +0.098 C 
ATOM     14  C   UNL     1     -31.598  30.543   0.855  0.00  0.00    +0.066 C 
BRANCH  12  16
ATOM     15  OXT UNL     1     -31.192  32.993   2.879  0.00  0.00    -0.244 OA
ATOM     16  C   UNL     1     -32.091  32.229   2.591  0.00  0.00    +0.353 C 
BRANCH  16  17
ATOM     17  O   UNL     1     -33.411  32.497   2.631  0.00  0.00    -0.476 OA
ATOM     18  H   UNL     1     -34.020  31.820   2.848  0.00  0.00    +0.295 HD
ENDBRANCH  16  17
ENDBRANCH  12  16
ENDBRANCH   2  10
BRANCH   3  19
ATOM     19  CA  UNL     1     -35.444  25.888   4.620  0.00  0.00    +0.036 C 
BRANCH  19  20
ATOM     20  C   UNL     1     -35.408  24.378   4.720  0.00  0.00    -0.034 C 
ATOM     21  C   UNL     1     -35.392  23.625   3.559  0.00  0.00    -0.006 C 
ATOM     22  C   UNL     1     -35.391  23.784   5.970  0.00  0.00    -0.006 C 
ATOM     23  C   UNL     1     -35.358  22.233   3.652  0.00  0.00    -0.000 C 
ATOM     24  C   UNL     1     -35.357  22.392   6.062  0.00  0.00    -0.000 C 
ATOM     25  C   UNL     1     -35.341  21.617   4.903  0.00  0.00    -0.000 C 
ENDBRANCH  19  20
BRANCH  19  26
ATOM     26  N   UNL     1     -36.435  26.483   5.522  0.00  0.00    +0.390 N 
ATOM     27  H1  UNL     1     -37.353  26.081   5.332  0.00  0.00    -0.088 HD
ATOM     28  H2  UNL     1     -36.468  27.492   5.372  0.00  0.00    -0.088 HD
ATOM     29  H3  UNL     1     -36.174  26.292   6.489  0.00  0.00    -0.088 HD
ENDBRANCH  19  26
ENDBRANCH   3  19
TORSDOF 6
ENDMDL
MODEL 6
REMARK VINA RESULT:      -5.7      3.009      3.516
REMARK  Name = 51039
REMARK  6 active torsions:
REMARK  status: ('A' for Active; 'I' for Inactive)
REMARK    1  A    between atoms: N_2  and  CA_10
REMARK    2  A    between atoms: C_3  and  CA_19
REMARK    3  A    between atoms: CA_12  and  C_16
REMARK    4  A    between atoms: C_16  and  O_17
REMARK    5  A    between atoms: CA_19  and  C_20
REMARK    6  A    between atoms: CA_19  and  N_26
REMARK                            x       y       z     vdW  Elec       q    Type
REMARK                         _______ _______ _______ _____ _____    ______ ____
ROOT
ATOM      1  O   UNL     1     -37.141  22.320  -0.105  0.00  0.00    -0.277 OA
ATOM      2  N   UNL     1     -36.099  22.658   1.939  0.00  0.00    -0.298 N 
ATOM      3  C   UNL     1     -36.517  21.878   0.859  0.00  0.00    +0.206 C 
ATOM      4  H   UNL     1     -35.603  22.222   2.670  0.00  0.00    +0.150 HD
ENDROOT
BRANCH   2  10
ATOM      5 CL   UNL     1     -33.224  26.762   6.215  0.00  0.00    -0.085 Cl
ATOM      6  S   UNL     1     -35.968  23.688   4.829  0.00  0.00    -0.113 S 
ATOM      7  O   UNL     1     -34.485  25.195   0.673  0.00  0.00    -0.273 OA
ATOM      8  N   UNL     1     -35.024  25.337   2.963  0.00  0.00    -0.241 N 
ATOM      9  C   UNL     1     -36.284  24.772   3.416  0.00  0.00    +0.155 C 
ATOM     10  CA  UNL     1     -36.364  24.093   2.031  0.00  0.00    +0.178 C 
ATOM     11  C   UNL     1     -35.136  24.977   1.668  0.00  0.00    +0.251 C 
ATOM     12  CA  UNL     1     -34.162  25.999   3.779  0.00  0.00    +0.138 C 
ATOM     13  C   UNL     1     -35.277  25.034   5.855  0.00  0.00    +0.098 C 
ATOM     14  C   UNL     1     -34.276  25.906   5.121  0.00  0.00    +0.066 C 
BRANCH  12  16
ATOM     15  OXT UNL     1     -33.122  27.968   2.948  0.00  0.00    -0.244 OA
ATOM     16  C   UNL     1     -33.086  26.769   3.135  0.00  0.00    +0.353 C 
BRANCH  16  17
ATOM     17  O   UNL     1     -32.081  25.937   2.800  0.00  0.00    -0.476 OA
ATOM     18  H   UNL     1     -32.252  25.026   2.665  0.00  0.00    +0.295 HD
ENDBRANCH  16  17
ENDBRANCH  12  16
ENDBRANCH   2  10
BRANCH   3  19
ATOM     19  CA  UNL     1     -36.139  20.408   1.006  0.00  0.00    +0.036 C 
BRANCH  19  20
ATOM     20  C   UNL     1     -34.654  20.209   0.790  0.00  0.00    -0.034 C 
ATOM     21  C   UNL     1     -34.027  19.122   1.374  0.00  0.00    -0.006 C 
ATOM     22  C   UNL     1     -33.956  21.117   0.014  0.00  0.00    -0.006 C 
ATOM     23  C   UNL     1     -32.659  18.939   1.176  0.00  0.00    -0.000 C 
ATOM     24  C   UNL     1     -32.588  20.934  -0.185  0.00  0.00    -0.000 C 
ATOM     25  C   UNL     1     -31.939  19.844   0.396  0.00  0.00    -0.000 C 
ENDBRANCH  19  20
BRANCH  19  26
ATOM     26  N   UNL     1     -36.575  19.966   2.334  0.00  0.00    +0.390 N 
ATOM     27  H1  UNL     1     -37.576  19.772   2.316  0.00  0.00    -0.088 HD
ATOM     28  H2  UNL     1     -36.382  20.699   3.016  0.00  0.00    -0.088 HD
ATOM     29  H3  UNL     1     -36.069  19.119   2.593  0.00  0.00    -0.088 HD
ENDBRANCH  19  26
ENDBRANCH   3  19
TORSDOF 6
ENDMDL
MODEL 7
REMARK VINA RESULT:      -5.7      4.710      6.741
REMARK  Name = 51039
REMARK  6 active torsions:
REMARK  status: ('A' for Active; 'I' for Inactive)
REMARK    1  A    between atoms: N_2  and  CA_10
REMARK    2  A    between atoms: C_3  and  CA_19
REMARK    3  A    between atoms: CA_12  and  C_16
REMARK    4  A    between atoms: C_16  and  O_17
REMARK    5  A    between atoms: CA_19  and  C_20
REMARK    6  A    between atoms: CA_19  and  N_26
REMARK                            x       y       z     vdW  Elec       q    Type
REMARK                         _______ _______ _______ _____ _____    ______ ____
ROOT
ATOM      1  O   UNL     1     -36.078  26.013   1.554  0.00  0.00    -0.277 OA
ATOM      2  N   UNL     1     -34.357  26.473   3.039  0.00  0.00    -0.298 N 
ATOM      3  C   UNL     1     -35.635  26.022   2.702  0.00  0.00    +0.206 C 
ATOM      4  H   UNL     1     -34.082  26.444   3.984  0.00  0.00    +0.150 HD
ENDROOT
BRANCH   2  10
ATOM      5 CL   UNL     1     -30.213  31.499   4.017  0.00  0.00    -0.085 Cl
ATOM      6  S   UNL     1     -34.000  29.517   3.221  0.00  0.00    -0.113 S 
ATOM      7  O   UNL     1     -31.180  25.849   2.635  0.00  0.00    -0.273 OA
ATOM      8  N   UNL     1     -31.807  28.122   2.639  0.00  0.00    -0.241 N 
ATOM      9  C   UNL     1     -33.082  28.491   2.047  0.00  0.00    +0.155 C 
ATOM     10  CA  UNL     1     -33.409  26.982   2.049  0.00  0.00    +0.178 C 
ATOM     11  C   UNL     1     -31.920  26.789   2.459  0.00  0.00    +0.251 C 
ATOM     12  CA  UNL     1     -30.925  29.023   3.144  0.00  0.00    +0.138 C 
ATOM     13  C   UNL     1     -32.722  30.824   3.255  0.00  0.00    +0.098 C 
ATOM     14  C   UNL     1     -31.310  30.291   3.406  0.00  0.00    +0.066 C 
BRANCH  12  16
ATOM     15  OXT UNL     1     -28.596  28.777   2.738  0.00  0.00    -0.244 OA
ATOM     16  C   UNL     1     -29.564  28.543   3.431  0.00  0.00    +0.353 C 
BRANCH  16  17
ATOM     17  O   UNL     1     -29.579  27.817   4.567  0.00  0.00    -0.476 OA
ATOM     18  H   UNL     1     -29.283  26.928   4.558  0.00  0.00    +0.295 HD
ENDBRANCH  16  17
ENDBRANCH  12  16
ENDBRANCH   2  10
BRANCH   3  19
ATOM     19  CA  UNL     1     -36.441  25.561   3.912  0.00  0.00    +0.036 C 
BRANCH  19  20
ATOM     20  C   UNL     1     -36.001  24.184   4.360  0.00  0.00    -0.034 C 
ATOM     21  C   UNL     1     -35.584  24.001   5.667  0.00  0.00    -0.006 C 
ATOM     22  C   UNL     1     -36.025  23.139   3.454  0.00  0.00    -0.006 C 
ATOM     23  C   UNL     1     -35.178  22.732   6.080  0.00  0.00    -0.000 C 
ATOM     24  C   UNL     1     -35.619  21.870   3.866  0.00  0.00    -0.000 C 
ATOM     25  C   UNL     1     -35.197  21.667   5.180  0.00  0.00    -0.000 C 
ENDBRANCH  19  20
BRANCH  19  26
ATOM     26  N   UNL     1     -36.281  26.569   4.965  0.00  0.00    +0.390 N 
ATOM     27  H1  UNL     1     -35.289  26.753   5.112  0.00  0.00    -0.088 HD
ATOM     28  H2  UNL     1     -36.695  26.224   5.831  0.00  0.00    -0.088 HD
ATOM     29  H3  UNL     1     -36.749  27.431   4.685  0.00  0.00    -0.088 HD
ENDBRANCH  19  26
ENDBRANCH   3  19
TORSDOF 6
ENDMDL
MODEL 8
REMARK VINA RESULT:      -5.7      4.274      7.698
REMARK  Name = 51039
REMARK  6 active torsions:
REMARK  status: ('A' for Active; 'I' for Inactive)
REMARK    1  A    between atoms: N_2  and  CA_10
REMARK    2  A    between atoms: C_3  and  CA_19
REMARK    3  A    between atoms: CA_12  and  C_16
REMARK    4  A    between atoms: C_16  and  O_17
REMARK    5  A    between atoms: CA_19  and  C_20
REMARK    6  A    between atoms: CA_19  and  N_26
REMARK                            x       y       z     vdW  Elec       q    Type
REMARK                         _______ _______ _______ _____ _____    ______ ____
ROOT
ATOM      1  O   UNL     1     -32.819  27.023   5.466  0.00  0.00    -0.277 OA
ATOM      2  N   UNL     1     -34.768  26.819   4.227  0.00  0.00    -0.298 N 
ATOM      3  C   UNL     1     -33.505  27.349   4.498  0.00  0.00    +0.206 C 
ATOM      4  H   UNL     1     -35.249  27.136   3.428  0.00  0.00    +0.150 HD
ENDROOT
BRANCH   2  10
ATOM      5 CL   UNL     1     -38.312  21.720   2.028  0.00  0.00    -0.085 Cl
ATOM      6  S   UNL     1     -37.446  25.849   3.079  0.00  0.00    -0.113 S 
ATOM      7  O   UNL     1     -33.757  23.846   5.110  0.00  0.00    -0.273 OA
ATOM      8  N   UNL     1     -35.963  24.000   4.293  0.00  0.00    -0.241 N 
ATOM      9  C   UNL     1     -36.738  25.188   4.607  0.00  0.00    +0.155 C 
ATOM     10  CA  UNL     1     -35.406  25.814   5.075  0.00  0.00    +0.178 C 
ATOM     11  C   UNL     1     -34.818  24.385   4.894  0.00  0.00    +0.251 C 
ATOM     12  CA  UNL     1     -36.460  22.941   3.602  0.00  0.00    +0.138 C 
ATOM     13  C   UNL     1     -38.407  24.333   2.732  0.00  0.00    +0.098 C 
ATOM     14  C   UNL     1     -37.607  23.054   2.899  0.00  0.00    +0.066 C 
BRANCH  12  16
ATOM     15  OXT UNL     1     -35.116  21.228   2.649  0.00  0.00    -0.244 OA
ATOM     16  C   UNL     1     -35.672  21.698   3.620  0.00  0.00    +0.353 C 
BRANCH  16  17
ATOM     17  O   UNL     1     -35.675  21.186   4.866  0.00  0.00    -0.476 OA
ATOM     18  H   UNL     1     -36.434  21.273   5.407  0.00  0.00    +0.295 HD
ENDBRANCH  16  17
ENDBRANCH  12  16
ENDBRANCH   2  10
BRANCH   3  19
ATOM     19  CA  UNL     1     -33.068  28.396   3.479  0.00  0.00    +0.036 C 
BRANCH  19  20
ATOM     20  C   UNL     1     -31.980  29.281   4.048  0.00  0.00    -0.034 C 
ATOM     21  C   UNL     1     -30.656  28.975   3.787  0.00  0.00    -0.006 C 
ATOM     22  C   UNL     1     -32.333  30.376   4.816  0.00  0.00    -0.006 C 
ATOM     23  C   UNL     1     -29.653  29.791   4.311  0.00  0.00    -0.000 C 
ATOM     24  C   UNL     1     -31.331  31.192   5.340  0.00  0.00    -0.000 C 
ATOM     25  C   UNL     1     -29.991  30.900   5.087  0.00  0.00    -0.000 C 
ENDBRANCH  19  20
BRANCH  19  26
ATOM     26  N   UNL     1     -32.637  27.688   2.269  0.00  0.00    +0.390 N 
ATOM     27  H1  UNL     1     -32.624  28.338   1.483  0.00  0.00    -0.088 HD
ATOM     28  H2  UNL     1     -33.286  26.927   2.071  0.00  0.00    -0.088 HD
ATOM     29  H3  UNL     1     -31.701  27.309   2.412  0.00  0.00    -0.088 HD
ENDBRANCH  19  26
ENDBRANCH   3  19
TORSDOF 6
ENDMDL
MODEL 9
REMARK VINA RESULT:      -5.7      3.919      5.385
REMARK  Name = 51039
REMARK  6 active torsions:
REMARK  status: ('A' for Active; 'I' for Inactive)
REMARK    1  A    between atoms: N_2  and  CA_10
REMARK    2  A    between atoms: C_3  and  CA_19
REMARK    3  A    between atoms: CA_12  and  C_16
REMARK    4  A    between atoms: C_16  and  O_17
REMARK    5  A    between atoms: CA_19  and  C_20
REMARK    6  A    between atoms: CA_19  and  N_26
REMARK                            x       y       z     vdW  Elec       q    Type
REMARK                         _______ _______ _______ _____ _____    ______ ____
ROOT
ATOM      1  O   UNL     1     -35.808  24.397   1.129  0.00  0.00    -0.277 OA
ATOM      2  N   UNL     1     -35.625  25.984   2.810  0.00  0.00    -0.298 N 
ATOM      3  C   UNL     1     -36.097  24.792   2.258  0.00  0.00    +0.206 C 
ATOM      4  H   UNL     1     -35.906  26.224   3.723  0.00  0.00    +0.150 HD
ENDROOT
BRANCH   2  10
ATOM      5 CL   UNL     1     -37.178  32.091   0.891  0.00  0.00    -0.085 Cl
ATOM      6  S   UNL     1     -37.120  27.745   0.787  0.00  0.00    -0.113 S 
ATOM      7  O   UNL     1     -33.722  28.393   3.914  0.00  0.00    -0.273 OA
ATOM      8  N   UNL     1     -35.097  28.909   2.071  0.00  0.00    -0.241 N 
ATOM      9  C   UNL     1     -35.338  27.879   1.075  0.00  0.00    +0.155 C 
ATOM     10  CA  UNL     1     -34.729  26.890   2.093  0.00  0.00    +0.178 C 
ATOM     11  C   UNL     1     -34.348  28.160   2.906  0.00  0.00    +0.251 C 
ATOM     12  CA  UNL     1     -35.574  30.178   1.970  0.00  0.00    +0.138 C 
ATOM     13  C   UNL     1     -37.273  29.473   0.209  0.00  0.00    +0.098 C 
ATOM     14  C   UNL     1     -36.556  30.476   1.092  0.00  0.00    +0.066 C 
BRANCH  12  16
ATOM     15  OXT UNL     1     -34.180  32.009   2.563  0.00  0.00    -0.244 OA
ATOM     16  C   UNL     1     -35.008  31.183   2.884  0.00  0.00    +0.353 C 
BRANCH  16  17
ATOM     17  O   UNL     1     -35.555  31.031   4.106  0.00  0.00    -0.476 OA
ATOM     18  H   UNL     1     -36.187  31.647   4.417  0.00  0.00    +0.295 HD
ENDBRANCH  16  17
ENDBRANCH  12  16
ENDBRANCH   2  10
BRANCH   3  19
ATOM     19  CA  UNL     1     -37.032  24.033   3.194  0.00  0.00    +0.036 C 
BRANCH  19  20
ATOM     20  C   UNL     1     -36.249  23.133   4.126  0.00  0.00    -0.034 C 
ATOM     21  C   UNL     1     -35.983  23.564   5.414  0.00  0.00    -0.006 C 
ATOM     22  C   UNL     1     -35.817  21.901   3.670  0.00  0.00    -0.006 C 
ATOM     23  C   UNL     1     -35.262  22.735   6.273  0.00  0.00    -0.000 C 
ATOM     24  C   UNL     1     -35.096  21.071   4.529  0.00  0.00    -0.000 C 
ATOM     25  C   UNL     1     -34.819  21.489   5.831  0.00  0.00    -0.000 C 
ENDBRANCH  19  20
BRANCH  19  26
ATOM     26  N   UNL     1     -37.838  25.022   3.918  0.00  0.00    +0.390 N 
ATOM     27  H1  UNL     1     -38.825  24.779   3.838  0.00  0.00    -0.088 HD
ATOM     28  H2  UNL     1     -37.682  25.946   3.517  0.00  0.00    -0.088 HD
ATOM     29  H3  UNL     1     -37.567  25.027   4.901  0.00  0.00    -0.088 HD
ENDBRANCH  19  26
ENDBRANCH   3  19
TORSDOF 6
ENDMDL
