MODEL 1
REMARK VINA RESULT:      -5.9      0.000      0.000
REMARK  Name = 191872
REMARK  7 active torsions:
REMARK  status: ('A' for Active; 'I' for Inactive)
REMARK    1  A    between atoms: C_2  and  O_18
REMARK    2  A    between atoms: C_3  and  O_8
REMARK    3  A    between atoms: C_4  and  O_10
REMARK    4  A    between atoms: C_6  and  O_12
REMARK    5  A    between atoms: C_7  and  C_15
REMARK    6  A    between atoms: C_15  and  O_16
REMARK    7  A    between atoms: O_18  and  C_22
REMARK                            x       y       z     vdW  Elec       q    Type
REMARK                         _______ _______ _______ _____ _____    ______ ____
ROOT
ATOM      1  O   UNL     1     -31.188  27.679   4.002  0.00  0.00    -0.321 OA
ATOM      2  C   UNL     1     -31.903  28.392   5.017  0.00  0.00    +0.215 C 
ATOM      3  C   UNL     1     -31.130  28.322   6.346  0.00  0.00    +0.191 C 
ATOM      4  C   UNL     1     -29.679  28.777   6.196  0.00  0.00    +0.172 C 
ATOM      5  C   UNL     1     -32.226  29.822   4.565  0.00  0.00    +0.064 C 
ATOM      6  C   UNL     1     -29.001  28.071   5.022  0.00  0.00    +0.178 C 
ATOM      7  C   UNL     1     -29.862  28.141   3.766  0.00  0.00    +0.245 C 
ENDROOT
BRANCH   3   8
ATOM      8  O   UNL     1     -31.760  29.134   7.337  0.00  0.00    -0.378 OA
ATOM      9  H   UNL     1     -31.415  28.902   8.212  0.00  0.00    +0.211 HD
ENDBRANCH   3   8
BRANCH   4  10
ATOM     10  O   UNL     1     -28.963  28.480   7.398  0.00  0.00    -0.379 OA
ATOM     11  H   UNL     1     -28.097  28.916   7.374  0.00  0.00    +0.211 HD
ENDBRANCH   4  10
BRANCH   6  12
ATOM     12  O   UNL     1     -27.739  28.687   4.770  0.00  0.00    -0.379 OA
ATOM     13  H   UNL     1     -27.635  28.831   3.816  0.00  0.00    +0.211 HD
ENDBRANCH   6  12
BRANCH   7  15
ATOM     14  O   UNL     1     -28.324  27.320   2.096  0.00  0.00    -0.247 OA
ATOM     15  C   UNL     1     -29.360  27.186   2.730  0.00  0.00    +0.344 C 
BRANCH  15  16
ATOM     16  O   UNL     1     -30.214  26.143   2.587  0.00  0.00    -0.478 OA
ATOM     17  H   UNL     1     -31.093  26.294   2.301  0.00  0.00    +0.295 HD
ENDBRANCH  15  16
ENDBRANCH   7  15
BRANCH   2  18
ATOM     18  O   UNL     1     -33.151  27.721   5.246  0.00  0.00    -0.335 OA
BRANCH  18  22
ATOM     19  C   UNL     1     -34.674  24.909   3.401  0.00  0.00    +0.002 C 
ATOM     20  C   UNL     1     -33.795  25.428   4.568  0.00  0.00    +0.027 C 
ATOM     21  C   UNL     1     -35.706  26.045   3.626  0.00  0.00    +0.002 C 
ATOM     22  C   UNL     1     -33.511  26.894   4.155  0.00  0.00    +0.118 C 
ATOM     23  C   UNL     1     -34.853  27.336   3.540  0.00  0.00    +0.030 C 
ATOM     24  C   UNL     1     -34.776  25.443   5.766  0.00  0.00    +0.002 C 
ATOM     25  C   UNL     1     -36.097  25.882   5.113  0.00  0.00    +0.000 C 
ATOM     26  C   UNL     1     -33.995  24.922   2.019  0.00  0.00    +0.000 C 
ATOM     27  C   UNL     1     -35.229  23.485   3.596  0.00  0.00    +0.000 C 
ENDBRANCH  18  22
ENDBRANCH   2  18
TORSDOF 7
ENDMDL
MODEL 2
REMARK VINA RESULT:      -5.8      1.627      2.516
REMARK  Name = 191872
REMARK  7 active torsions:
REMARK  status: ('A' for Active; 'I' for Inactive)
REMARK    1  A    between atoms: C_2  and  O_18
REMARK    2  A    between atoms: C_3  and  O_8
REMARK    3  A    between atoms: C_4  and  O_10
REMARK    4  A    between atoms: C_6  and  O_12
REMARK    5  A    between atoms: C_7  and  C_15
REMARK    6  A    between atoms: C_15  and  O_16
REMARK    7  A    between atoms: O_18  and  C_22
REMARK                            x       y       z     vdW  Elec       q    Type
REMARK                         _______ _______ _______ _____ _____    ______ ____
ROOT
ATOM      1  O   UNL     1     -30.965  27.776   5.715  0.00  0.00    -0.321 OA
ATOM      2  C   UNL     1     -31.968  28.168   4.773  0.00  0.00    +0.215 C 
ATOM      3  C   UNL     1     -32.236  29.679   4.897  0.00  0.00    +0.191 C 
ATOM      4  C   UNL     1     -30.954  30.505   4.794  0.00  0.00    +0.172 C 
ATOM      5  C   UNL     1     -31.599  27.721   3.352  0.00  0.00    +0.064 C 
ATOM      6  C   UNL     1     -29.878  29.966   5.736  0.00  0.00    +0.178 C 
ATOM      7  C   UNL     1     -29.722  28.457   5.586  0.00  0.00    +0.245 C 
ENDROOT
BRANCH   3   8
ATOM      8  O   UNL     1     -33.138  30.114   3.879  0.00  0.00    -0.378 OA
ATOM      9  H   UNL     1     -33.927  30.499   4.290  0.00  0.00    +0.211 HD
ENDBRANCH   3   8
BRANCH   4  10
ATOM     10  O   UNL     1     -31.239  31.864   5.136  0.00  0.00    -0.379 OA
ATOM     11  H   UNL     1     -30.593  32.174   5.790  0.00  0.00    +0.211 HD
ENDBRANCH   4  10
BRANCH   6  12
ATOM     12  O   UNL     1     -28.637  30.606   5.443  0.00  0.00    -0.379 OA
ATOM     13  H   UNL     1     -28.798  31.534   5.211  0.00  0.00    +0.211 HD
ENDBRANCH   6  12
BRANCH   7  15
ATOM     14  O   UNL     1     -28.393  26.794   6.726  0.00  0.00    -0.247 OA
ATOM     15  C   UNL     1     -28.919  27.897   6.717  0.00  0.00    +0.344 C 
BRANCH  15  16
ATOM     16  O   UNL     1     -28.853  28.783   7.741  0.00  0.00    -0.478 OA
ATOM     17  H   UNL     1     -29.129  29.669   7.612  0.00  0.00    +0.295 HD
ENDBRANCH  15  16
ENDBRANCH   7  15
BRANCH   2  18
ATOM     18  O   UNL     1     -33.197  27.516   5.124  0.00  0.00    -0.335 OA
BRANCH  18  22
ATOM     19  C   UNL     1     -34.878  24.662   3.491  0.00  0.00    +0.002 C 
ATOM     20  C   UNL     1     -33.897  25.208   4.561  0.00  0.00    +0.027 C 
ATOM     21  C   UNL     1     -35.887  25.805   3.781  0.00  0.00    +0.002 C 
ATOM     22  C   UNL     1     -33.654  26.664   4.089  0.00  0.00    +0.118 C 
ATOM     23  C   UNL     1     -35.047  27.093   3.588  0.00  0.00    +0.030 C 
ATOM     24  C   UNL     1     -34.766  25.253   5.842  0.00  0.00    +0.002 C 
ATOM     25  C   UNL     1     -36.142  25.677   5.301  0.00  0.00    +0.000 C 
ATOM     26  C   UNL     1     -34.328  24.643   2.053  0.00  0.00    +0.000 C 
ATOM     27  C   UNL     1     -35.412  23.245   3.769  0.00  0.00    +0.000 C 
ENDBRANCH  18  22
ENDBRANCH   2  18
TORSDOF 7
ENDMDL
MODEL 3
REMARK VINA RESULT:      -5.7      6.667      9.108
REMARK  Name = 191872
REMARK  7 active torsions:
REMARK  status: ('A' for Active; 'I' for Inactive)
REMARK    1  A    between atoms: C_2  and  O_18
REMARK    2  A    between atoms: C_3  and  O_8
REMARK    3  A    between atoms: C_4  and  O_10
REMARK    4  A    between atoms: C_6  and  O_12
REMARK    5  A    between atoms: C_7  and  C_15
REMARK    6  A    between atoms: C_15  and  O_16
REMARK    7  A    between atoms: O_18  and  C_22
REMARK                            x       y       z     vdW  Elec       q    Type
REMARK                         _______ _______ _______ _____ _____    ______ ____
ROOT
ATOM      1  O   UNL     1     -35.227  21.385   2.874  0.00  0.00    -0.321 OA
ATOM      2  C   UNL     1     -35.276  21.524   1.450  0.00  0.00    +0.215 C 
ATOM      3  C   UNL     1     -36.728  21.768   1.000  0.00  0.00    +0.191 C 
ATOM      4  C   UNL     1     -37.376  22.934   1.744  0.00  0.00    +0.172 C 
ATOM      5  C   UNL     1     -34.292  22.595   0.963  0.00  0.00    +0.064 C 
ATOM      6  C   UNL     1     -37.188  22.795   3.254  0.00  0.00    +0.178 C 
ATOM      7  C   UNL     1     -35.734  22.499   3.602  0.00  0.00    +0.245 C 
ENDROOT
BRANCH   3   8
ATOM      8  O   UNL     1     -36.782  22.037  -0.401  0.00  0.00    -0.378 OA
ATOM      9  H   UNL     1     -37.388  22.775  -0.565  0.00  0.00    +0.211 HD
ENDBRANCH   3   8
BRANCH   4  10
ATOM     10  O   UNL     1     -38.775  22.966   1.447  0.00  0.00    -0.379 OA
ATOM     11  H   UNL     1     -38.939  22.496   0.615  0.00  0.00    +0.211 HD
ENDBRANCH   4  10
BRANCH   6  12
ATOM     12  O   UNL     1     -37.594  24.006   3.891  0.00  0.00    -0.379 OA
ATOM     13  H   UNL     1     -37.222  24.763   3.412  0.00  0.00    +0.211 HD
ENDBRANCH   6  12
BRANCH   7  15
ATOM     14  O   UNL     1     -35.915  22.713   6.000  0.00  0.00    -0.247 OA
ATOM     15  C   UNL     1     -35.615  22.045   5.023  0.00  0.00    +0.344 C 
BRANCH  15  16
ATOM     16  O   UNL     1     -35.126  20.782   5.082  0.00  0.00    -0.478 OA
ATOM     17  H   UNL     1     -34.275  20.626   5.440  0.00  0.00    +0.295 HD
ENDBRANCH  15  16
ENDBRANCH   7  15
BRANCH   2  18
ATOM     18  O   UNL     1     -34.881  20.276   0.861  0.00  0.00    -0.335 OA
BRANCH  18  22
ATOM     19  C   UNL     1     -31.446  19.325  -0.103  0.00  0.00    +0.002 C 
ATOM     20  C   UNL     1     -32.521  19.537   0.994  0.00  0.00    +0.027 C 
ATOM     21  C   UNL     1     -32.487  18.666  -1.046  0.00  0.00    +0.002 C 
ATOM     22  C   UNL     1     -33.605  20.362   0.254  0.00  0.00    +0.118 C 
ATOM     23  C   UNL     1     -33.611  19.728  -1.150  0.00  0.00    +0.030 C 
ATOM     24  C   UNL     1     -33.074  18.109   1.224  0.00  0.00    +0.002 C 
ATOM     25  C   UNL     1     -33.060  17.510  -0.193  0.00  0.00    +0.000 C 
ATOM     26  C   UNL     1     -30.812  20.617  -0.651  0.00  0.00    +0.000 C 
ATOM     27  C   UNL     1     -30.278  18.410   0.307  0.00  0.00    +0.000 C 
ENDBRANCH  18  22
ENDBRANCH   2  18
TORSDOF 7
ENDMDL
MODEL 4
REMARK VINA RESULT:      -5.7      4.890      8.387
REMARK  Name = 191872
REMARK  7 active torsions:
REMARK  status: ('A' for Active; 'I' for Inactive)
REMARK    1  A    between atoms: C_2  and  O_18
REMARK    2  A    between atoms: C_3  and  O_8
REMARK    3  A    between atoms: C_4  and  O_10
REMARK    4  A    between atoms: C_6  and  O_12
REMARK    5  A    between atoms: C_7  and  C_15
REMARK    6  A    between atoms: C_15  and  O_16
REMARK    7  A    between atoms: O_18  and  C_22
REMARK                            x       y       z     vdW  Elec       q    Type
REMARK                         _______ _______ _______ _____ _____    ______ ____
ROOT
ATOM      1  O   UNL     1     -37.497  23.871   1.783  0.00  0.00    -0.321 OA
ATOM      2  C   UNL     1     -36.254  23.393   1.259  0.00  0.00    +0.215 C 
ATOM      3  C   UNL     1     -35.922  22.022   1.875  0.00  0.00    +0.191 C 
ATOM      4  C   UNL     1     -37.069  21.024   1.717  0.00  0.00    +0.172 C 
ATOM      5  C   UNL     1     -36.261  23.394  -0.275  0.00  0.00    +0.064 C 
ATOM      6  C   UNL     1     -38.392  21.630   2.180  0.00  0.00    +0.178 C 
ATOM      7  C   UNL     1     -38.610  23.009   1.566  0.00  0.00    +0.245 C 
ENDROOT
BRANCH   3   8
ATOM      8  O   UNL     1     -34.753  21.469   1.271  0.00  0.00    -0.378 OA
ATOM      9  H   UNL     1     -34.624  21.863   0.395  0.00  0.00    +0.211 HD
ENDBRANCH   3   8
BRANCH   4  10
ATOM     10  O   UNL     1     -36.790  19.857   2.496  0.00  0.00    -0.379 OA
ATOM     11  H   UNL     1     -37.577  19.615   3.009  0.00  0.00    +0.211 HD
ENDBRANCH   4  10
BRANCH   6  12
ATOM     12  O   UNL     1     -39.462  20.766   1.802  0.00  0.00    -0.379 OA
ATOM     13  H   UNL     1     -40.071  21.243   1.216  0.00  0.00    +0.211 HD
ENDBRANCH   6  12
BRANCH   7  15
ATOM     14  O   UNL     1     -39.611  24.343   3.312  0.00  0.00    -0.247 OA
ATOM     15  C   UNL     1     -39.722  23.725   2.264  0.00  0.00    +0.344 C 
BRANCH  15  16
ATOM     16  O   UNL     1     -40.881  23.597   1.573  0.00  0.00    -0.478 OA
ATOM     17  H   UNL     1     -41.292  22.758   1.499  0.00  0.00    +0.295 HD
ENDBRANCH  15  16
ENDBRANCH   7  15
BRANCH   2  18
ATOM     18  O   UNL     1     -35.212  24.283   1.685  0.00  0.00    -0.335 OA
BRANCH  18  22
ATOM     19  C   UNL     1     -34.705  26.124   4.845  0.00  0.00    +0.002 C 
ATOM     20  C   UNL     1     -34.302  24.979   3.881  0.00  0.00    +0.027 C 
ATOM     21  C   UNL     1     -34.893  27.106   3.659  0.00  0.00    +0.002 C 
ATOM     22  C   UNL     1     -35.519  24.895   2.925  0.00  0.00    +0.118 C 
ATOM     23  C   UNL     1     -35.901  26.375   2.736  0.00  0.00    +0.030 C 
ATOM     24  C   UNL     1     -33.111  25.583   3.097  0.00  0.00    +0.002 C 
ATOM     25  C   UNL     1     -33.527  27.055   2.935  0.00  0.00    +0.000 C 
ATOM     26  C   UNL     1     -35.979  25.863   5.670  0.00  0.00    +0.000 C 
ATOM     27  C   UNL     1     -33.614  26.532   5.853  0.00  0.00    +0.000 C 
ENDBRANCH  18  22
ENDBRANCH   2  18
TORSDOF 7
ENDMDL
MODEL 5
REMARK VINA RESULT:      -5.7      5.513      7.571
REMARK  Name = 191872
REMARK  7 active torsions:
REMARK  status: ('A' for Active; 'I' for Inactive)
REMARK    1  A    between atoms: C_2  and  O_18
REMARK    2  A    between atoms: C_3  and  O_8
REMARK    3  A    between atoms: C_4  and  O_10
REMARK    4  A    between atoms: C_6  and  O_12
REMARK    5  A    between atoms: C_7  and  C_15
REMARK    6  A    between atoms: C_15  and  O_16
REMARK    7  A    between atoms: O_18  and  C_22
REMARK                            x       y       z     vdW  Elec       q    Type
REMARK                         _______ _______ _______ _____ _____    ______ ____
ROOT
ATOM      1  O   UNL     1     -35.910  23.366   3.161  0.00  0.00    -0.321 OA
ATOM      2  C   UNL     1     -36.173  23.906   1.861  0.00  0.00    +0.215 C 
ATOM      3  C   UNL     1     -37.452  24.762   1.903  0.00  0.00    +0.191 C 
ATOM      4  C   UNL     1     -37.401  25.824   3.000  0.00  0.00    +0.172 C 
ATOM      5  C   UNL     1     -34.950  24.650   1.311  0.00  0.00    +0.064 C 
ATOM      6  C   UNL     1     -36.997  25.211   4.340  0.00  0.00    +0.178 C 
ATOM      7  C   UNL     1     -35.758  24.335   4.193  0.00  0.00    +0.245 C 
ENDROOT
BRANCH   3   8
ATOM      8  O   UNL     1     -37.661  25.413   0.650  0.00  0.00    -0.378 OA
ATOM      9  H   UNL     1     -36.821  25.772   0.328  0.00  0.00    +0.211 HD
ENDBRANCH   3   8
BRANCH   4  10
ATOM     10  O   UNL     1     -38.690  26.430   3.131  0.00  0.00    -0.379 OA
ATOM     11  H   UNL     1     -39.227  26.221   2.351  0.00  0.00    +0.211 HD
ENDBRANCH   4  10
BRANCH   6  12
ATOM     12  O   UNL     1     -36.734  26.258   5.274  0.00  0.00    -0.379 OA
ATOM     13  H   UNL     1     -37.568  26.557   5.667  0.00  0.00    +0.211 HD
ENDBRANCH   6  12
BRANCH   7  15
ATOM     14  O   UNL     1     -34.920  23.819   6.398  0.00  0.00    -0.247 OA
ATOM     15  C   UNL     1     -35.563  23.491   5.412  0.00  0.00    +0.344 C 
BRANCH  15  16
ATOM     16  O   UNL     1     -36.201  22.302   5.277  0.00  0.00    -0.478 OA
ATOM     17  H   UNL     1     -35.790  21.602   4.810  0.00  0.00    +0.295 HD
ENDBRANCH  15  16
ENDBRANCH   7  15
BRANCH   2  18
ATOM     18  O   UNL     1     -36.452  22.817   0.969  0.00  0.00    -0.335 OA
BRANCH  18  22
ATOM     19  C   UNL     1     -33.941  20.130   0.652  0.00  0.00    +0.002 C 
ATOM     20  C   UNL     1     -34.841  21.026   1.541  0.00  0.00    +0.027 C 
ATOM     21  C   UNL     1     -35.085  19.940  -0.378  0.00  0.00    +0.002 C 
ATOM     22  C   UNL     1     -35.269  22.152   0.566  0.00  0.00    +0.118 C 
ATOM     23  C   UNL     1     -35.481  21.390  -0.756  0.00  0.00    +0.030 C 
ATOM     24  C   UNL     1     -36.071  20.126   1.813  0.00  0.00    +0.002 C 
ATOM     25  C   UNL     1     -36.246  19.382   0.478  0.00  0.00    +0.000 C 
ATOM     26  C   UNL     1     -32.682  20.821   0.093  0.00  0.00    +0.000 C 
ATOM     27  C   UNL     1     -33.457  18.831   1.325  0.00  0.00    +0.000 C 
ENDBRANCH  18  22
ENDBRANCH   2  18
TORSDOF 7
ENDMDL
MODEL 6
REMARK VINA RESULT:      -5.5      5.176      7.493
REMARK  Name = 191872
REMARK  7 active torsions:
REMARK  status: ('A' for Active; 'I' for Inactive)
REMARK    1  A    between atoms: C_2  and  O_18
REMARK    2  A    between atoms: C_3  and  O_8
REMARK    3  A    between atoms: C_4  and  O_10
REMARK    4  A    between atoms: C_6  and  O_12
REMARK    5  A    between atoms: C_7  and  C_15
REMARK    6  A    between atoms: C_15  and  O_16
REMARK    7  A    between atoms: O_18  and  C_22
REMARK                            x       y       z     vdW  Elec       q    Type
REMARK                         _______ _______ _______ _____ _____    ______ ____
ROOT
ATOM      1  O   UNL     1     -36.649  23.006   3.431  0.00  0.00    -0.321 OA
ATOM      2  C   UNL     1     -36.957  24.122   2.589  0.00  0.00    +0.215 C 
ATOM      3  C   UNL     1     -37.283  25.352   3.454  0.00  0.00    +0.191 C 
ATOM      4  C   UNL     1     -36.184  25.650   4.474  0.00  0.00    +0.172 C 
ATOM      5  C   UNL     1     -35.844  24.366   1.562  0.00  0.00    +0.064 C 
ATOM      6  C   UNL     1     -35.811  24.394   5.261  0.00  0.00    +0.178 C 
ATOM      7  C   UNL     1     -35.563  23.214   4.327  0.00  0.00    +0.245 C 
ENDROOT
BRANCH   3   8
ATOM      8  O   UNL     1     -37.467  26.508   2.636  0.00  0.00    -0.378 OA
ATOM      9  H   UNL     1     -37.475  27.301   3.193  0.00  0.00    +0.211 HD
ENDBRANCH   3   8
BRANCH   4  10
ATOM     10  O   UNL     1     -36.642  26.654   5.383  0.00  0.00    -0.379 OA
ATOM     11  H   UNL     1     -37.515  26.971   5.102  0.00  0.00    +0.211 HD
ENDBRANCH   4  10
BRANCH   6  12
ATOM     12  O   UNL     1     -34.634  24.653   6.026  0.00  0.00    -0.379 OA
ATOM     13  H   UNL     1     -34.706  24.212   6.887  0.00  0.00    +0.211 HD
ENDBRANCH   6  12
BRANCH   7  15
ATOM     14  O   UNL     1     -35.047  20.884   4.694  0.00  0.00    -0.247 OA
ATOM     15  C   UNL     1     -35.523  21.933   5.100  0.00  0.00    +0.344 C 
BRANCH  15  16
ATOM     16  O   UNL     1     -36.090  22.093   6.320  0.00  0.00    -0.478 OA
ATOM     17  H   UNL     1     -36.653  21.428   6.666  0.00  0.00    +0.295 HD
ENDBRANCH  15  16
ENDBRANCH   7  15
BRANCH   2  18
ATOM     18  O   UNL     1     -38.156  23.820   1.860  0.00  0.00    -0.335 OA
BRANCH  18  22
ATOM     19  C   UNL     1     -38.395  21.116  -0.643  0.00  0.00    +0.002 C 
ATOM     20  C   UNL     1     -38.229  21.568   0.831  0.00  0.00    +0.027 C 
ATOM     21  C   UNL     1     -39.484  22.193  -0.888  0.00  0.00    +0.002 C 
ATOM     22  C   UNL     1     -37.885  23.073   0.688  0.00  0.00    +0.118 C 
ATOM     23  C   UNL     1     -38.789  23.516  -0.477  0.00  0.00    +0.030 C 
ATOM     24  C   UNL     1     -39.665  21.452   1.398  0.00  0.00    +0.002 C 
ATOM     25  C   UNL     1     -40.533  21.896   0.208  0.00  0.00    +0.000 C 
ATOM     26  C   UNL     1     -37.135  21.266  -1.516  0.00  0.00    +0.000 C 
ATOM     27  C   UNL     1     -38.874  19.663  -0.821  0.00  0.00    +0.000 C 
ENDBRANCH  18  22
ENDBRANCH   2  18
TORSDOF 7
ENDMDL
MODEL 7
REMARK VINA RESULT:      -5.5      5.473      9.000
REMARK  Name = 191872
REMARK  7 active torsions:
REMARK  status: ('A' for Active; 'I' for Inactive)
REMARK    1  A    between atoms: C_2  and  O_18
REMARK    2  A    between atoms: C_3  and  O_8
REMARK    3  A    between atoms: C_4  and  O_10
REMARK    4  A    between atoms: C_6  and  O_12
REMARK    5  A    between atoms: C_7  and  C_15
REMARK    6  A    between atoms: C_15  and  O_16
REMARK    7  A    between atoms: O_18  and  C_22
REMARK                            x       y       z     vdW  Elec       q    Type
REMARK                         _______ _______ _______ _____ _____    ______ ____
ROOT
ATOM      1  O   UNL     1     -38.976  24.852   2.324  0.00  0.00    -0.321 OA
ATOM      2  C   UNL     1     -37.958  23.848   2.385  0.00  0.00    +0.215 C 
ATOM      3  C   UNL     1     -38.604  22.460   2.541  0.00  0.00    +0.191 C 
ATOM      4  C   UNL     1     -39.657  22.188   1.468  0.00  0.00    +0.172 C 
ATOM      5  C   UNL     1     -37.003  23.954   1.189  0.00  0.00    +0.064 C 
ATOM      6  C   UNL     1     -40.647  23.347   1.365  0.00  0.00    +0.178 C 
ATOM      7  C   UNL     1     -39.921  24.684   1.272  0.00  0.00    +0.245 C 
ENDROOT
BRANCH   3   8
ATOM      8  O   UNL     1     -37.613  21.434   2.475  0.00  0.00    -0.378 OA
ATOM      9  H   UNL     1     -37.281  21.246   3.366  0.00  0.00    +0.211 HD
ENDBRANCH   3   8
BRANCH   4  10
ATOM     10  O   UNL     1     -40.369  20.992   1.796  0.00  0.00    -0.379 OA
ATOM     11  H   UNL     1     -39.744  20.322   2.117  0.00  0.00    +0.211 HD
ENDBRANCH   4  10
BRANCH   6  12
ATOM     12  O   UNL     1     -41.462  23.166   0.207  0.00  0.00    -0.379 OA
ATOM     13  H   UNL     1     -42.386  23.360   0.429  0.00  0.00    +0.211 HD
ENDBRANCH   6  12
BRANCH   7  15
ATOM     14  O   UNL     1     -42.088  25.709   1.562  0.00  0.00    -0.247 OA
ATOM     15  C   UNL     1     -40.872  25.816   1.499  0.00  0.00    +0.344 C 
BRANCH  15  16
ATOM     16  O   UNL     1     -40.201  26.987   1.628  0.00  0.00    -0.478 OA
ATOM     17  H   UNL     1     -39.679  27.307   0.919  0.00  0.00    +0.295 HD
ENDBRANCH  15  16
ENDBRANCH   7  15
BRANCH   2  18
ATOM     18  O   UNL     1     -37.184  24.063   3.575  0.00  0.00    -0.335 OA
BRANCH  18  22
ATOM     19  C   UNL     1     -33.995  25.907   3.829  0.00  0.00    +0.002 C 
ATOM     20  C   UNL     1     -35.543  25.910   3.736  0.00  0.00    +0.027 C 
ATOM     21  C   UNL     1     -34.021  24.710   4.816  0.00  0.00    +0.002 C 
ATOM     22  C   UNL     1     -35.860  24.465   3.274  0.00  0.00    +0.118 C 
ATOM     23  C   UNL     1     -34.831  23.628   4.058  0.00  0.00    +0.030 C 
ATOM     24  C   UNL     1     -35.981  26.054   5.214  0.00  0.00    +0.002 C 
ATOM     25  C   UNL     1     -34.932  25.212   5.960  0.00  0.00    +0.000 C 
ATOM     26  C   UNL     1     -33.264  25.628   2.501  0.00  0.00    +0.000 C 
ATOM     27  C   UNL     1     -33.380  27.199   4.398  0.00  0.00    +0.000 C 
ENDBRANCH  18  22
ENDBRANCH   2  18
TORSDOF 7
ENDMDL
MODEL 8
REMARK VINA RESULT:      -5.5      5.519      8.599
REMARK  Name = 191872
REMARK  7 active torsions:
REMARK  status: ('A' for Active; 'I' for Inactive)
REMARK    1  A    between atoms: C_2  and  O_18
REMARK    2  A    between atoms: C_3  and  O_8
REMARK    3  A    between atoms: C_4  and  O_10
REMARK    4  A    between atoms: C_6  and  O_12
REMARK    5  A    between atoms: C_7  and  C_15
REMARK    6  A    between atoms: C_15  and  O_16
REMARK    7  A    between atoms: O_18  and  C_22
REMARK                            x       y       z     vdW  Elec       q    Type
REMARK                         _______ _______ _______ _____ _____    ______ ____
ROOT
ATOM      1  O   UNL     1     -37.138  22.365   2.299  0.00  0.00    -0.321 OA
ATOM      2  C   UNL     1     -35.892  22.828   2.828  0.00  0.00    +0.215 C 
ATOM      3  C   UNL     1     -35.849  24.366   2.790  0.00  0.00    +0.191 C 
ATOM      4  C   UNL     1     -37.065  24.995   3.469  0.00  0.00    +0.172 C 
ATOM      5  C   UNL     1     -35.626  22.237   4.218  0.00  0.00    +0.064 C 
ATOM      6  C   UNL     1     -38.363  24.378   2.952  0.00  0.00    +0.178 C 
ATOM      7  C   UNL     1     -38.294  22.855   2.971  0.00  0.00    +0.245 C 
ENDROOT
BRANCH   3   8
ATOM      8  O   UNL     1     -34.670  24.851   3.432  0.00  0.00    -0.378 OA
ATOM      9  H   UNL     1     -34.328  25.617   2.945  0.00  0.00    +0.211 HD
ENDBRANCH   3   8
BRANCH   4  10
ATOM     10  O   UNL     1     -37.078  26.401   3.207  0.00  0.00    -0.379 OA
ATOM     11  H   UNL     1     -36.298  26.639   2.682  0.00  0.00    +0.211 HD
ENDBRANCH   4  10
BRANCH   6  12
ATOM     12  O   UNL     1     -39.449  24.816   3.768  0.00  0.00    -0.379 OA
ATOM     13  H   UNL     1     -39.181  24.796   4.700  0.00  0.00    +0.211 HD
ENDBRANCH   6  12
BRANCH   7  15
ATOM     14  O   UNL     1     -40.289  22.911   1.612  0.00  0.00    -0.247 OA
ATOM     15  C   UNL     1     -39.414  22.268   2.172  0.00  0.00    +0.344 C 
BRANCH  15  16
ATOM     16  O   UNL     1     -39.329  20.915   2.152  0.00  0.00    -0.478 OA
ATOM     17  H   UNL     1     -39.930  20.416   1.636  0.00  0.00    +0.295 HD
ENDBRANCH  15  16
ENDBRANCH   7  15
BRANCH   2  18
ATOM     18  O   UNL     1     -34.839  22.379   1.962  0.00  0.00    -0.335 OA
BRANCH  18  22
ATOM     19  C   UNL     1     -34.711  19.694  -0.570  0.00  0.00    +0.002 C 
ATOM     20  C   UNL     1     -34.710  21.203  -0.214  0.00  0.00    +0.027 C 
ATOM     21  C   UNL     1     -33.768  19.376   0.620  0.00  0.00    +0.002 C 
ATOM     22  C   UNL     1     -35.204  21.208   1.255  0.00  0.00    +0.118 C 
ATOM     23  C   UNL     1     -34.514  19.963   1.845  0.00  0.00    +0.030 C 
ATOM     24  C   UNL     1     -33.204  21.564  -0.220  0.00  0.00    +0.002 C 
ATOM     25  C   UNL     1     -32.554  20.300   0.369  0.00  0.00    +0.000 C 
ATOM     26  C   UNL     1     -36.089  19.009  -0.497  0.00  0.00    +0.000 C 
ATOM     27  C   UNL     1     -34.134  19.358  -1.957  0.00  0.00    +0.000 C 
ENDBRANCH  18  22
ENDBRANCH   2  18
TORSDOF 7
ENDMDL
MODEL 9
REMARK VINA RESULT:      -5.4      5.110      8.027
REMARK  Name = 191872
REMARK  7 active torsions:
REMARK  status: ('A' for Active; 'I' for Inactive)
REMARK    1  A    between atoms: C_2  and  O_18
REMARK    2  A    between atoms: C_3  and  O_8
REMARK    3  A    between atoms: C_4  and  O_10
REMARK    4  A    between atoms: C_6  and  O_12
REMARK    5  A    between atoms: C_7  and  C_15
REMARK    6  A    between atoms: C_15  and  O_16
REMARK    7  A    between atoms: O_18  and  C_22
REMARK                            x       y       z     vdW  Elec       q    Type
REMARK                         _______ _______ _______ _____ _____    ______ ____
ROOT
ATOM      1  O   UNL     1     -34.942  23.236   2.240  0.00  0.00    -0.321 OA
ATOM      2  C   UNL     1     -35.810  22.120   2.014  0.00  0.00    +0.215 C 
ATOM      3  C   UNL     1     -35.597  21.065   3.113  0.00  0.00    +0.191 C 
ATOM      4  C   UNL     1     -35.726  21.656   4.516  0.00  0.00    +0.172 C 
ATOM      5  C   UNL     1     -37.268  22.574   1.866  0.00  0.00    +0.064 C 
ATOM      6  C   UNL     1     -34.870  22.913   4.662  0.00  0.00    +0.178 C 
ATOM      7  C   UNL     1     -35.103  23.875   3.502  0.00  0.00    +0.245 C 
ENDROOT
BRANCH   3   8
ATOM      8  O   UNL     1     -36.543  20.003   2.979  0.00  0.00    -0.378 OA
ATOM      9  H   UNL     1     -37.432  20.335   3.178  0.00  0.00    +0.211 HD
ENDBRANCH   3   8
BRANCH   4  10
ATOM     10  O   UNL     1     -35.302  20.686   5.478  0.00  0.00    -0.379 OA
ATOM     11  H   UNL     1     -35.265  19.811   5.061  0.00  0.00    +0.211 HD
ENDBRANCH   4  10
BRANCH   6  12
ATOM     12  O   UNL     1     -35.196  23.561   5.891  0.00  0.00    -0.379 OA
ATOM     13  H   UNL     1     -35.489  22.900   6.538  0.00  0.00    +0.211 HD
ENDBRANCH   6  12
BRANCH   7  15
ATOM     14  O   UNL     1     -33.325  25.228   4.416  0.00  0.00    -0.247 OA
ATOM     15  C   UNL     1     -34.044  24.931   3.475  0.00  0.00    +0.344 C 
BRANCH  15  16
ATOM     16  O   UNL     1     -33.989  25.521   2.256  0.00  0.00    -0.478 OA
ATOM     17  H   UNL     1     -34.615  26.179   2.025  0.00  0.00    +0.295 HD
ENDBRANCH  15  16
ENDBRANCH   7  15
BRANCH   2  18
ATOM     18  O   UNL     1     -35.427  21.494   0.780  0.00  0.00    -0.335 OA
BRANCH  18  22
ATOM     19  C   UNL     1     -33.261  18.572   0.147  0.00  0.00    +0.002 C 
ATOM     20  C   UNL     1     -34.678  19.184   0.295  0.00  0.00    +0.027 C 
ATOM     21  C   UNL     1     -32.772  19.806  -0.656  0.00  0.00    +0.002 C 
ATOM     22  C   UNL     1     -34.390  20.549   0.971  0.00  0.00    +0.118 C 
ATOM     23  C   UNL     1     -33.091  21.000   0.278  0.00  0.00    +0.030 C 
ATOM     24  C   UNL     1     -35.099  19.449  -1.171  0.00  0.00    +0.002 C 
ATOM     25  C   UNL     1     -33.780  19.891  -1.827  0.00  0.00    +0.000 C 
ATOM     26  C   UNL     1     -32.514  18.332   1.473  0.00  0.00    +0.000 C 
ATOM     27  C   UNL     1     -33.211  17.239  -0.624  0.00  0.00    +0.000 C 
ENDBRANCH  18  22
ENDBRANCH   2  18
TORSDOF 7
ENDMDL
