MODEL 1
REMARK VINA RESULT:      -5.3      0.000      0.000
REMARK  Name = 19646
REMARK  2 active torsions:
REMARK  status: ('A' for Active; 'I' for Inactive)
REMARK    1  A    between atoms: C_6  and  C_11
REMARK    2  A    between atoms: C_7  and  N_17
REMARK                            x       y       z     vdW  Elec       q    Type
REMARK                         _______ _______ _______ _____ _____    ______ ____
ROOT
ATOM      1  S   UNL     1     -35.657  26.197   3.622  0.00  0.00    -0.027 S 
ATOM      2  O   UNL     1     -32.293  27.080   6.639  0.00  0.00    -0.269 OA
ATOM      3  N   UNL     1     -33.611  27.392   4.744  0.00  0.00    -0.260 N 
ATOM      4  N   UNL     1     -34.514  25.429   5.809  0.00  0.00    -0.221 NA
ATOM      5  C   UNL     1     -34.498  26.316   4.865  0.00  0.00    +0.167 C 
ATOM      6  C   UNL     1     -32.551  27.747   5.610  0.00  0.00    +0.257 C 
ATOM      7  C   UNL     1     -36.276  24.802   4.403  0.00  0.00    +0.194 C 
ATOM      8  C   UNL     1     -35.545  24.548   5.544  0.00  0.00    +0.132 C 
ATOM      9  H   UNL     1     -33.741  27.973   3.959  0.00  0.00    +0.157 HD
ENDROOT
BRANCH   6  11
ATOM     10  S   UNL     1     -30.784  28.899   3.908  0.00  0.00    -0.082 S 
ATOM     11  C   UNL     1     -31.832  28.930   5.261  0.00  0.00    +0.083 C 
ATOM     12  C   UNL     1     -31.850  30.164   5.874  0.00  0.00    +0.012 C 
ATOM     13  C   UNL     1     -30.990  31.097   5.224  0.00  0.00    +0.008 C 
ATOM     14  C   UNL     1     -30.349  30.540   4.139  0.00  0.00    +0.036 C 
ENDBRANCH   6  11
BRANCH   7  17
ATOM     15  O   UNL     1     -38.492  24.683   3.779  0.00  0.00    -0.126 OA
ATOM     16  O   UNL     1     -37.220  22.923   3.457  0.00  0.00    -0.126 OA
ATOM     17  N   UNL     1     -37.367  24.113   3.861  0.00  0.00    +0.065 N 
ENDBRANCH   7  17
TORSDOF 2
ENDMDL
MODEL 2
REMARK VINA RESULT:      -5.2      3.095      7.391
REMARK  Name = 19646
REMARK  2 active torsions:
REMARK  status: ('A' for Active; 'I' for Inactive)
REMARK    1  A    between atoms: C_6  and  C_11
REMARK    2  A    between atoms: C_7  and  N_17
REMARK                            x       y       z     vdW  Elec       q    Type
REMARK                         _______ _______ _______ _____ _____    ______ ____
ROOT
ATOM      1  S   UNL     1     -33.474  26.016   3.487  0.00  0.00    -0.027 S 
ATOM      2  O   UNL     1     -36.183  22.693   5.168  0.00  0.00    -0.269 OA
ATOM      3  N   UNL     1     -34.969  23.863   3.560  0.00  0.00    -0.260 N 
ATOM      4  N   UNL     1     -34.641  25.098   5.603  0.00  0.00    -0.221 NA
ATOM      5  C   UNL     1     -34.449  24.906   4.336  0.00  0.00    +0.167 C 
ATOM      6  C   UNL     1     -35.804  22.801   3.977  0.00  0.00    +0.257 C 
ATOM      7  C   UNL     1     -33.261  26.873   4.957  0.00  0.00    +0.194 C 
ATOM      8  C   UNL     1     -33.952  26.239   5.967  0.00  0.00    +0.132 C 
ATOM      9  H   UNL     1     -34.721  23.869   2.607  0.00  0.00    +0.157 HD
ENDROOT
BRANCH   6  11
ATOM     10  S   UNL     1     -37.584  22.069   2.068  0.00  0.00    -0.082 S 
ATOM     11  C   UNL     1     -36.147  21.848   2.972  0.00  0.00    +0.083 C 
ATOM     12  C   UNL     1     -35.466  20.712   2.591  0.00  0.00    +0.012 C 
ATOM     13  C   UNL     1     -36.133  20.015   1.542  0.00  0.00    +0.008 C 
ATOM     14  C   UNL     1     -37.299  20.643   1.163  0.00  0.00    +0.036 C 
ENDBRANCH   6  11
BRANCH   7  17
ATOM     15  O   UNL     1     -32.940  29.120   4.550  0.00  0.00    -0.126 OA
ATOM     16  O   UNL     1     -31.304  27.981   5.469  0.00  0.00    -0.126 OA
ATOM     17  N   UNL     1     -32.475  28.031   4.993  0.00  0.00    +0.065 N 
ENDBRANCH   7  17
TORSDOF 2
ENDMDL
MODEL 3
REMARK VINA RESULT:      -4.9      5.910      8.019
REMARK  Name = 19646
REMARK  2 active torsions:
REMARK  status: ('A' for Active; 'I' for Inactive)
REMARK    1  A    between atoms: C_6  and  C_11
REMARK    2  A    between atoms: C_7  and  N_17
REMARK                            x       y       z     vdW  Elec       q    Type
REMARK                         _______ _______ _______ _____ _____    ______ ____
ROOT
ATOM      1  S   UNL     1     -38.980  21.027   0.592  0.00  0.00    -0.027 S 
ATOM      2  O   UNL     1     -34.968  20.136   2.667  0.00  0.00    -0.269 OA
ATOM      3  N   UNL     1     -37.000  21.214   2.300  0.00  0.00    -0.260 N 
ATOM      4  N   UNL     1     -36.868  19.538   0.575  0.00  0.00    -0.221 NA
ATOM      5  C   UNL     1     -37.467  20.512   1.182  0.00  0.00    +0.167 C 
ATOM      6  C   UNL     1     -35.791  21.019   3.006  0.00  0.00    +0.257 C 
ATOM      7  C   UNL     1     -38.856  19.825  -0.625  0.00  0.00    +0.194 C 
ATOM      8  C   UNL     1     -37.671  19.136  -0.476  0.00  0.00    +0.132 C 
ATOM      9  H   UNL     1     -37.587  21.930   2.636  0.00  0.00    +0.157 HD
ENDROOT
BRANCH   6  11
ATOM     10  S   UNL     1     -35.864  23.541   3.998  0.00  0.00    -0.082 S 
ATOM     11  C   UNL     1     -35.593  21.857   4.144  0.00  0.00    +0.083 C 
ATOM     12  C   UNL     1     -35.197  21.506   5.417  0.00  0.00    +0.012 C 
ATOM     13  C   UNL     1     -35.115  22.635   6.282  0.00  0.00    +0.008 C 
ATOM     14  C   UNL     1     -35.451  23.806   5.638  0.00  0.00    +0.036 C 
ENDBRANCH   6  11
BRANCH   7  17
ATOM     15  O   UNL     1     -40.759  18.779  -1.401  0.00  0.00    -0.126 OA
ATOM     16  O   UNL     1     -39.908  20.417  -2.590  0.00  0.00    -0.126 OA
ATOM     17  N   UNL     1     -39.876  19.668  -1.571  0.00  0.00    +0.065 N 
ENDBRANCH   7  17
TORSDOF 2
ENDMDL
MODEL 4
REMARK VINA RESULT:      -4.9      1.731      2.015
REMARK  Name = 19646
REMARK  2 active torsions:
REMARK  status: ('A' for Active; 'I' for Inactive)
REMARK    1  A    between atoms: C_6  and  C_11
REMARK    2  A    between atoms: C_7  and  N_17
REMARK                            x       y       z     vdW  Elec       q    Type
REMARK                         _______ _______ _______ _____ _____    ______ ____
ROOT
ATOM      1  S   UNL     1     -34.456  25.154   5.221  0.00  0.00    -0.027 S 
ATOM      2  O   UNL     1     -33.021  29.395   4.145  0.00  0.00    -0.269 OA
ATOM      3  N   UNL     1     -32.949  27.298   5.158  0.00  0.00    -0.260 N 
ATOM      4  N   UNL     1     -34.998  27.304   3.891  0.00  0.00    -0.221 NA
ATOM      5  C   UNL     1     -34.140  26.739   4.681  0.00  0.00    +0.167 C 
ATOM      6  C   UNL     1     -32.422  28.583   4.889  0.00  0.00    +0.257 C 
ATOM      7  C   UNL     1     -35.908  25.189   4.310  0.00  0.00    +0.194 C 
ATOM      8  C   UNL     1     -36.027  26.407   3.674  0.00  0.00    +0.132 C 
ATOM      9  H   UNL     1     -32.411  26.727   5.753  0.00  0.00    +0.157 HD
ENDROOT
BRANCH   6  11
ATOM     10  S   UNL     1     -29.729  28.568   4.584  0.00  0.00    -0.082 S 
ATOM     11  C   UNL     1     -31.156  28.872   5.480  0.00  0.00    +0.083 C 
ATOM     12  C   UNL     1     -30.882  29.387   6.728  0.00  0.00    +0.012 C 
ATOM     13  C   UNL     1     -29.482  29.534   6.951  0.00  0.00    +0.008 C 
ATOM     14  C   UNL     1     -28.739  29.125   5.865  0.00  0.00    +0.036 C 
ENDBRANCH   6  11
BRANCH   7  17
ATOM     15  O   UNL     1     -36.406  23.006   4.861  0.00  0.00    -0.126 OA
ATOM     16  O   UNL     1     -37.885  24.159   3.720  0.00  0.00    -0.126 OA
ATOM     17  N   UNL     1     -36.762  24.080   4.296  0.00  0.00    +0.065 N 
ENDBRANCH   7  17
TORSDOF 2
ENDMDL
MODEL 5
REMARK VINA RESULT:      -4.9      5.867      8.050
REMARK  Name = 19646
REMARK  2 active torsions:
REMARK  status: ('A' for Active; 'I' for Inactive)
REMARK    1  A    between atoms: C_6  and  C_11
REMARK    2  A    between atoms: C_7  and  N_17
REMARK                            x       y       z     vdW  Elec       q    Type
REMARK                         _______ _______ _______ _____ _____    ______ ____
ROOT
ATOM      1  S   UNL     1     -37.285  24.094   1.302  0.00  0.00    -0.027 S 
ATOM      2  O   UNL     1     -35.334  20.656   3.663  0.00  0.00    -0.269 OA
ATOM      3  N   UNL     1     -36.040  21.838   1.783  0.00  0.00    -0.260 N 
ATOM      4  N   UNL     1     -36.714  23.195   3.656  0.00  0.00    -0.221 NA
ATOM      5  C   UNL     1     -36.627  22.957   2.386  0.00  0.00    +0.167 C 
ATOM      6  C   UNL     1     -35.419  20.735   2.414  0.00  0.00    +0.257 C 
ATOM      7  C   UNL     1     -37.753  25.037   2.655  0.00  0.00    +0.194 C 
ATOM      8  C   UNL     1     -37.367  24.402   3.817  0.00  0.00    +0.132 C 
ATOM      9  H   UNL     1     -36.062  21.816   0.799  0.00  0.00    +0.157 HD
ENDROOT
BRANCH   6  11
ATOM     10  S   UNL     1     -35.796  19.179   0.228  0.00  0.00    -0.082 S 
ATOM     11  C   UNL     1     -34.862  19.752   1.543  0.00  0.00    +0.083 C 
ATOM     12  C   UNL     1     -33.620  19.157   1.593  0.00  0.00    +0.012 C 
ATOM     13  C   UNL     1     -33.434  18.218   0.537  0.00  0.00    +0.008 C 
ATOM     14  C   UNL     1     -34.540  18.130  -0.279  0.00  0.00    +0.036 C 
ENDBRANCH   6  11
BRANCH   7  17
ATOM     15  O   UNL     1     -37.861  27.188   1.832  0.00  0.00    -0.126 OA
ATOM     16  O   UNL     1     -39.581  26.410   2.952  0.00  0.00    -0.126 OA
ATOM     17  N   UNL     1     -38.421  26.253   2.474  0.00  0.00    +0.065 N 
ENDBRANCH   7  17
TORSDOF 2
ENDMDL
MODEL 6
REMARK VINA RESULT:      -4.8      3.366      3.474
REMARK  Name = 19646
REMARK  2 active torsions:
REMARK  status: ('A' for Active; 'I' for Inactive)
REMARK    1  A    between atoms: C_6  and  C_11
REMARK    2  A    between atoms: C_7  and  N_17
REMARK                            x       y       z     vdW  Elec       q    Type
REMARK                         _______ _______ _______ _____ _____    ______ ____
ROOT
ATOM      1  S   UNL     1     -36.358  25.894   3.651  0.00  0.00    -0.027 S 
ATOM      2  O   UNL     1     -33.305  29.314   4.077  0.00  0.00    -0.269 OA
ATOM      3  N   UNL     1     -35.218  28.230   3.309  0.00  0.00    -0.260 N 
ATOM      4  N   UNL     1     -34.155  26.642   4.776  0.00  0.00    -0.221 NA
ATOM      5  C   UNL     1     -35.104  27.001   3.970  0.00  0.00    +0.167 C 
ATOM      6  C   UNL     1     -34.341  29.337   3.372  0.00  0.00    +0.257 C 
ATOM      7  C   UNL     1     -35.577  24.786   4.700  0.00  0.00    +0.194 C 
ATOM      8  C   UNL     1     -34.426  25.356   5.202  0.00  0.00    +0.132 C 
ATOM      9  H   UNL     1     -36.008  28.336   2.729  0.00  0.00    +0.157 HD
ENDROOT
BRANCH   6  11
ATOM     10  S   UNL     1     -33.556  31.660   2.215  0.00  0.00    -0.082 S 
ATOM     11  C   UNL     1     -34.734  30.486   2.622  0.00  0.00    +0.083 C 
ATOM     12  C   UNL     1     -35.983  30.819   2.144  0.00  0.00    +0.012 C 
ATOM     13  C   UNL     1     -35.972  32.055   1.434  0.00  0.00    +0.008 C 
ATOM     14  C   UNL     1     -34.715  32.620   1.398  0.00  0.00    +0.036 C 
ENDBRANCH   6  11
BRANCH   7  17
ATOM     15  O   UNL     1     -35.857  22.901   5.999  0.00  0.00    -0.126 OA
ATOM     16  O   UNL     1     -36.895  23.003   4.068  0.00  0.00    -0.126 OA
ATOM     17  N   UNL     1     -36.128  23.520   4.931  0.00  0.00    +0.065 N 
ENDBRANCH   7  17
TORSDOF 2
ENDMDL
MODEL 7
REMARK VINA RESULT:      -4.8      6.288      8.739
REMARK  Name = 19646
REMARK  2 active torsions:
REMARK  status: ('A' for Active; 'I' for Inactive)
REMARK    1  A    between atoms: C_6  and  C_11
REMARK    2  A    between atoms: C_7  and  N_17
REMARK                            x       y       z     vdW  Elec       q    Type
REMARK                         _______ _______ _______ _____ _____    ______ ____
ROOT
ATOM      1  S   UNL     1     -33.110  18.568   1.310  0.00  0.00    -0.027 S 
ATOM      2  O   UNL     1     -36.786  21.252   2.003  0.00  0.00    -0.269 OA
ATOM      3  N   UNL     1     -34.702  20.311   2.449  0.00  0.00    -0.260 N 
ATOM      4  N   UNL     1     -35.406  19.303   0.377  0.00  0.00    -0.221 NA
ATOM      5  C   UNL     1     -34.559  19.463   1.345  0.00  0.00    +0.167 C 
ATOM      6  C   UNL     1     -35.784  21.170   2.752  0.00  0.00    +0.257 C 
ATOM      7  C   UNL     1     -33.639  17.867  -0.162  0.00  0.00    +0.194 C 
ATOM      8  C   UNL     1     -34.875  18.376  -0.500  0.00  0.00    +0.132 C 
ATOM      9  H   UNL     1     -33.958  20.311   3.094  0.00  0.00    +0.157 HD
ENDROOT
BRANCH   6  11
ATOM     10  S   UNL     1     -35.962  23.639   3.855  0.00  0.00    -0.082 S 
ATOM     11  C   UNL     1     -35.640  21.960   3.932  0.00  0.00    +0.083 C 
ATOM     12  C   UNL     1     -35.262  21.563   5.196  0.00  0.00    +0.012 C 
ATOM     13  C   UNL     1     -35.237  22.653   6.114  0.00  0.00    +0.008 C 
ATOM     14  C   UNL     1     -35.595  23.841   5.516  0.00  0.00    +0.036 C 
ENDBRANCH   6  11
BRANCH   7  17
ATOM     15  O   UNL     1     -32.477  15.876  -0.227  0.00  0.00    -0.126 OA
ATOM     16  O   UNL     1     -32.488  17.139  -2.023  0.00  0.00    -0.126 OA
ATOM     17  N   UNL     1     -32.841  16.928  -0.827  0.00  0.00    +0.065 N 
ENDBRANCH   7  17
TORSDOF 2
ENDMDL
MODEL 8
REMARK VINA RESULT:      -4.8      4.836      7.214
REMARK  Name = 19646
REMARK  2 active torsions:
REMARK  status: ('A' for Active; 'I' for Inactive)
REMARK    1  A    between atoms: C_6  and  C_11
REMARK    2  A    between atoms: C_7  and  N_17
REMARK                            x       y       z     vdW  Elec       q    Type
REMARK                         _______ _______ _______ _____ _____    ______ ____
ROOT
ATOM      1  S   UNL     1     -34.337  20.057   1.371  0.00  0.00    -0.027 S 
ATOM      2  O   UNL     1     -37.720  22.640   3.127  0.00  0.00    -0.269 OA
ATOM      3  N   UNL     1     -35.531  21.930   2.763  0.00  0.00    -0.260 N 
ATOM      4  N   UNL     1     -36.892  20.446   1.440  0.00  0.00    -0.221 NA
ATOM      5  C   UNL     1     -35.748  20.863   1.883  0.00  0.00    +0.167 C 
ATOM      6  C   UNL     1     -36.495  22.779   3.355  0.00  0.00    +0.257 C 
ATOM      7  C   UNL     1     -35.333  19.016   0.441  0.00  0.00    +0.194 C 
ATOM      8  C   UNL     1     -36.654  19.373   0.602  0.00  0.00    +0.132 C 
ATOM      9  H   UNL     1     -34.592  22.113   2.998  0.00  0.00    +0.157 HD
ENDROOT
BRANCH   6  11
ATOM     10  S   UNL     1     -36.829  25.306   4.279  0.00  0.00    -0.082 S 
ATOM     11  C   UNL     1     -35.981  23.821   4.183  0.00  0.00    +0.083 C 
ATOM     12  C   UNL     1     -34.846  23.823   4.964  0.00  0.00    +0.012 C 
ATOM     13  C   UNL     1     -34.670  25.060   5.650  0.00  0.00    +0.008 C 
ATOM     14  C   UNL     1     -35.678  25.956   5.367  0.00  0.00    +0.036 C 
ENDBRANCH   6  11
BRANCH   7  17
ATOM     15  O   UNL     1     -34.118  17.066   0.240  0.00  0.00    -0.126 OA
ATOM     16  O   UNL     1     -34.900  18.003  -1.585  0.00  0.00    -0.126 OA
ATOM     17  N   UNL     1     -34.764  17.993  -0.328  0.00  0.00    +0.065 N 
ENDBRANCH   7  17
TORSDOF 2
ENDMDL
MODEL 9
REMARK VINA RESULT:      -4.6      3.858      6.015
REMARK  Name = 19646
REMARK  2 active torsions:
REMARK  status: ('A' for Active; 'I' for Inactive)
REMARK    1  A    between atoms: C_6  and  C_11
REMARK    2  A    between atoms: C_7  and  N_17
REMARK                            x       y       z     vdW  Elec       q    Type
REMARK                         _______ _______ _______ _____ _____    ______ ____
ROOT
ATOM      1  S   UNL     1     -37.098  21.402   1.142  0.00  0.00    -0.027 S 
ATOM      2  O   UNL     1     -38.231  24.726   4.121  0.00  0.00    -0.269 OA
ATOM      3  N   UNL     1     -36.823  23.340   2.887  0.00  0.00    -0.260 N 
ATOM      4  N   UNL     1     -39.052  22.671   2.263  0.00  0.00    -0.221 NA
ATOM      5  C   UNL     1     -37.762  22.573   2.187  0.00  0.00    +0.167 C 
ATOM      6  C   UNL     1     -37.066  24.377   3.817  0.00  0.00    +0.257 C 
ATOM      7  C   UNL     1     -38.697  20.948   0.720  0.00  0.00    +0.194 C 
ATOM      8  C   UNL     1     -39.598  21.728   1.413  0.00  0.00    +0.132 C 
ATOM      9  H   UNL     1     -35.877  23.133   2.708  0.00  0.00    +0.157 HD
ENDROOT
BRANCH   6  11
ATOM     10  S   UNL     1     -34.567  25.301   3.320  0.00  0.00    -0.082 S 
ATOM     11  C   UNL     1     -35.908  25.022   4.346  0.00  0.00    +0.083 C 
ATOM     12  C   UNL     1     -35.686  25.483   5.626  0.00  0.00    +0.012 C 
ATOM     13  C   UNL     1     -34.396  26.073   5.765  0.00  0.00    +0.008 C 
ATOM     14  C   UNL     1     -33.682  26.040   4.587  0.00  0.00    +0.036 C 
ENDBRANCH   6  11
BRANCH   7  17
ATOM     15  O   UNL     1     -37.988  19.112  -0.481  0.00  0.00    -0.126 OA
ATOM     16  O   UNL     1     -40.051  19.810  -0.758  0.00  0.00    -0.126 OA
ATOM     17  N   UNL     1     -38.920  19.921  -0.205  0.00  0.00    +0.065 N 
ENDBRANCH   7  17
TORSDOF 2
ENDMDL
