MODEL 1
REMARK VINA RESULT:      -6.3      0.000      0.000
REMARK  Name = 5487077
REMARK  9 active torsions:
REMARK  status: ('A' for Active; 'I' for Inactive)
REMARK    1  A    between atoms: C_5  and  C_12
REMARK    2  A    between atoms: C_6  and  O_24
REMARK    3  A    between atoms: C_8  and  O_26
REMARK    4  A    between atoms: C_9  and  O_30
REMARK    5  A    between atoms: C_10  and  O_28
REMARK    6  A    between atoms: C_11  and  O_32
REMARK    7  A    between atoms: C_13  and  O_20
REMARK    8  A    between atoms: C_15  and  O_18
REMARK    9  A    between atoms: C_17  and  O_22
REMARK                            x       y       z     vdW  Elec       q    Type
REMARK                         _______ _______ _______ _____ _____    ______ ____
ROOT
ATOM      1  O   UNL     1     -36.243  22.672   2.143  0.00  0.00    -0.447 OA
ATOM      2  O   UNL     1     -40.303  23.001   2.239  0.00  0.00    -0.283 OA
ATOM      3  C   UNL     1     -38.412  21.843   1.435  0.00  0.00    +0.117 A 
ATOM      4  C   UNL     1     -37.021  21.785   1.444  0.00  0.00    +0.188 A 
ATOM      5  C   UNL     1     -36.871  23.676   2.863  0.00  0.00    +0.185 A 
ATOM      6  C   UNL     1     -38.203  23.838   2.944  0.00  0.00    +0.212 A 
ATOM      7  C   UNL     1     -39.085  22.900   2.207  0.00  0.00    +0.238 A 
ATOM      8  C   UNL     1     -36.359  20.790   0.723  0.00  0.00    +0.210 A 
ATOM      9  C   UNL     1     -39.153  20.911   0.705  0.00  0.00    +0.177 A 
ATOM     10  C   UNL     1     -38.490  19.917  -0.015  0.00  0.00    +0.209 A 
ATOM     11  C   UNL     1     -37.097  19.857  -0.007  0.00  0.00    +0.209 A 
ENDROOT
BRANCH   5  12
ATOM     12  C   UNL     1     -35.921  24.557   3.567  0.00  0.00    +0.075 C 
ATOM     13  C   UNL     1     -35.557  24.316   4.893  0.00  0.00    +0.140 C 
ATOM     14  C   UNL     1     -35.380  25.653   2.889  0.00  0.00    +0.046 C 
ATOM     15  C   UNL     1     -34.480  26.501   3.535  0.00  0.00    +0.173 C 
ATOM     16  C   UNL     1     -34.658  25.165   5.539  0.00  0.00    +0.077 C 
ATOM     17  C   UNL     1     -34.120  26.257   4.860  0.00  0.00    +0.175 C 
BRANCH  15  18
ATOM     18  O   UNL     1     -33.962  27.566   2.861  0.00  0.00    -0.468 OA
ATOM     19  C   UNL     1     -34.818  28.692   2.673  0.00  0.00    +0.253 C 
ENDBRANCH  15  18
BRANCH  13  20
ATOM     20  O   UNL     1     -36.069  23.255   5.582  0.00  0.00    -0.505 OA
ATOM     21  H   UNL     1     -36.984  23.061   5.530  0.00  0.00    +0.292 HD
ENDBRANCH  13  20
BRANCH  17  22
ATOM     22  O   UNL     1     -33.242  27.079   5.500  0.00  0.00    -0.468 OA
ATOM     23  C   UNL     1     -32.994  26.812   6.879  0.00  0.00    +0.253 C 
ENDBRANCH  17  22
ENDBRANCH   5  12
BRANCH   6  24
ATOM     24  O   UNL     1     -38.797  24.829   3.697  0.00  0.00    -0.465 OA
ATOM     25  C   UNL     1     -39.106  25.953   2.895  0.00  0.00    +0.253 C 
ENDBRANCH   6  24
BRANCH   8  26
ATOM     26  O   UNL     1     -34.998  20.726   0.728  0.00  0.00    -0.465 OA
ATOM     27  C   UNL     1     -34.397  19.809   1.638  0.00  0.00    +0.253 C 
ENDBRANCH   8  26
BRANCH  10  28
ATOM     28  O   UNL     1     -39.205  19.001  -0.732  0.00  0.00    -0.465 OA
ATOM     29  C   UNL     1     -39.501  19.332  -2.087  0.00  0.00    +0.253 C 
ENDBRANCH  10  28
BRANCH   9  30
ATOM     30  O   UNL     1     -40.516  20.936   0.672  0.00  0.00    -0.503 OA
ATOM     31  H   UNL     1     -40.966  20.952  -0.150  0.00  0.00    +0.292 HD
ENDBRANCH   9  30
BRANCH  11  32
ATOM     32  O   UNL     1     -36.453  18.883  -0.714  0.00  0.00    -0.501 OA
ATOM     33  H   UNL     1     -36.939  18.171  -1.079  0.00  0.00    +0.292 HD
ENDBRANCH  11  32
TORSDOF 9
ENDMDL
MODEL 2
REMARK VINA RESULT:      -6.0      1.482      1.997
REMARK  Name = 5487077
REMARK  9 active torsions:
REMARK  status: ('A' for Active; 'I' for Inactive)
REMARK    1  A    between atoms: C_5  and  C_12
REMARK    2  A    between atoms: C_6  and  O_24
REMARK    3  A    between atoms: C_8  and  O_26
REMARK    4  A    between atoms: C_9  and  O_30
REMARK    5  A    between atoms: C_10  and  O_28
REMARK    6  A    between atoms: C_11  and  O_32
REMARK    7  A    between atoms: C_13  and  O_20
REMARK    8  A    between atoms: C_15  and  O_18
REMARK    9  A    between atoms: C_17  and  O_22
REMARK                            x       y       z     vdW  Elec       q    Type
REMARK                         _______ _______ _______ _____ _____    ______ ____
ROOT
ATOM      1  O   UNL     1     -35.732  21.522   2.088  0.00  0.00    -0.447 OA
ATOM      2  O   UNL     1     -39.628  20.957   1.042  0.00  0.00    -0.283 OA
ATOM      3  C   UNL     1     -37.387  20.247   0.854  0.00  0.00    +0.117 A 
ATOM      4  C   UNL     1     -36.075  20.493   1.250  0.00  0.00    +0.188 A 
ATOM      5  C   UNL     1     -36.734  22.358   2.553  0.00  0.00    +0.185 A 
ATOM      6  C   UNL     1     -38.038  22.225   2.255  0.00  0.00    +0.212 A 
ATOM      7  C   UNL     1     -38.458  21.125   1.353  0.00  0.00    +0.238 A 
ATOM      8  C   UNL     1     -35.043  19.673   0.793  0.00  0.00    +0.210 A 
ATOM      9  C   UNL     1     -37.679  19.182  -0.002  0.00  0.00    +0.177 A 
ATOM     10  C   UNL     1     -36.645  18.363  -0.458  0.00  0.00    +0.209 A 
ATOM     11  C   UNL     1     -35.330  18.608  -0.062  0.00  0.00    +0.209 A 
ENDROOT
BRANCH   5  12
ATOM     12  C   UNL     1     -36.229  23.419   3.445  0.00  0.00    +0.075 C 
ATOM     13  C   UNL     1     -35.906  23.151   4.777  0.00  0.00    +0.140 C 
ATOM     14  C   UNL     1     -36.075  24.713   2.942  0.00  0.00    +0.046 C 
ATOM     15  C   UNL     1     -35.600  25.733   3.767  0.00  0.00    +0.173 C 
ATOM     16  C   UNL     1     -35.432  24.171   5.602  0.00  0.00    +0.077 C 
ATOM     17  C   UNL     1     -35.279  25.462   5.097  0.00  0.00    +0.175 C 
BRANCH  15  18
ATOM     18  O   UNL     1     -35.457  26.990   3.262  0.00  0.00    -0.468 OA
ATOM     19  C   UNL     1     -34.356  27.214   2.383  0.00  0.00    +0.253 C 
ENDBRANCH  15  18
BRANCH  13  20
ATOM     20  O   UNL     1     -36.046  21.897   5.297  0.00  0.00    -0.505 OA
ATOM     21  H   UNL     1     -35.796  21.150   4.790  0.00  0.00    +0.292 HD
ENDBRANCH  13  20
BRANCH  17  22
ATOM     22  O   UNL     1     -34.815  26.450   5.912  0.00  0.00    -0.468 OA
ATOM     23  C   UNL     1     -33.400  26.587   6.022  0.00  0.00    +0.253 C 
ENDBRANCH  17  22
ENDBRANCH   5  12
BRANCH   6  24
ATOM     24  O   UNL     1     -39.015  23.055   2.761  0.00  0.00    -0.465 OA
ATOM     25  C   UNL     1     -39.428  23.997   1.789  0.00  0.00    +0.253 C 
ENDBRANCH   6  24
BRANCH   8  26
ATOM     26  O   UNL     1     -33.756  19.907   1.177  0.00  0.00    -0.465 OA
ATOM     27  C   UNL     1     -32.940  20.656   0.281  0.00  0.00    +0.253 C 
ENDBRANCH   8  26
BRANCH  10  28
ATOM     28  O   UNL     1     -36.919  17.321  -1.295  0.00  0.00    -0.465 OA
ATOM     29  C   UNL     1     -37.216  16.066  -0.687  0.00  0.00    +0.253 C 
ENDBRANCH  10  28
BRANCH   9  30
ATOM     30  O   UNL     1     -38.950  18.910  -0.411  0.00  0.00    -0.503 OA
ATOM     31  H   UNL     1     -39.119  18.691  -1.307  0.00  0.00    +0.292 HD
ENDBRANCH   9  30
BRANCH  11  32
ATOM     32  O   UNL     1     -34.323  17.805  -0.511  0.00  0.00    -0.501 OA
ATOM     33  H   UNL     1     -33.531  18.185  -0.837  0.00  0.00    +0.292 HD
ENDBRANCH  11  32
TORSDOF 9
ENDMDL
MODEL 3
REMARK VINA RESULT:      -5.9      1.906      8.186
REMARK  Name = 5487077
REMARK  9 active torsions:
REMARK  status: ('A' for Active; 'I' for Inactive)
REMARK    1  A    between atoms: C_5  and  C_12
REMARK    2  A    between atoms: C_6  and  O_24
REMARK    3  A    between atoms: C_8  and  O_26
REMARK    4  A    between atoms: C_9  and  O_30
REMARK    5  A    between atoms: C_10  and  O_28
REMARK    6  A    between atoms: C_11  and  O_32
REMARK    7  A    between atoms: C_13  and  O_20
REMARK    8  A    between atoms: C_15  and  O_18
REMARK    9  A    between atoms: C_17  and  O_22
REMARK                            x       y       z     vdW  Elec       q    Type
REMARK                         _______ _______ _______ _____ _____    ______ ____
ROOT
ATOM      1  O   UNL     1     -35.729  26.208   2.797  0.00  0.00    -0.447 OA
ATOM      2  O   UNL     1     -33.898  25.563   6.378  0.00  0.00    -0.283 OA
ATOM      3  C   UNL     1     -34.005  26.826   4.389  0.00  0.00    +0.117 A 
ATOM      4  C   UNL     1     -34.674  26.995   3.180  0.00  0.00    +0.188 A 
ATOM      5  C   UNL     1     -36.141  25.195   3.647  0.00  0.00    +0.185 A 
ATOM      6  C   UNL     1     -35.588  24.932   4.844  0.00  0.00    +0.212 A 
ATOM      7  C   UNL     1     -34.444  25.758   5.302  0.00  0.00    +0.238 A 
ATOM      8  C   UNL     1     -34.278  28.002   2.298  0.00  0.00    +0.210 A 
ATOM      9  C   UNL     1     -32.935  27.659   4.728  0.00  0.00    +0.177 A 
ATOM     10  C   UNL     1     -32.541  28.665   3.845  0.00  0.00    +0.209 A 
ATOM     11  C   UNL     1     -33.211  28.836   2.633  0.00  0.00    +0.209 A 
ENDROOT
BRANCH   5  12
ATOM     12  C   UNL     1     -37.284  24.428   3.116  0.00  0.00    +0.075 C 
ATOM     13  C   UNL     1     -38.553  25.001   3.011  0.00  0.00    +0.140 C 
ATOM     14  C   UNL     1     -37.086  23.105   2.715  0.00  0.00    +0.046 C 
ATOM     15  C   UNL     1     -38.152  22.359   2.211  0.00  0.00    +0.173 C 
ATOM     16  C   UNL     1     -39.618  24.256   2.507  0.00  0.00    +0.077 C 
ATOM     17  C   UNL     1     -39.418  22.935   2.108  0.00  0.00    +0.175 C 
BRANCH  15  18
ATOM     18  O   UNL     1     -37.944  21.069   1.826  0.00  0.00    -0.468 OA
ATOM     19  C   UNL     1     -36.614  20.566   1.939  0.00  0.00    +0.253 C 
ENDBRANCH  15  18
BRANCH  13  20
ATOM     20  O   UNL     1     -38.777  26.291   3.395  0.00  0.00    -0.505 OA
ATOM     21  H   UNL     1     -38.070  26.907   3.400  0.00  0.00    +0.292 HD
ENDBRANCH  13  20
BRANCH  17  22
ATOM     22  O   UNL     1     -40.466  22.217   1.617  0.00  0.00    -0.468 OA
ATOM     23  C   UNL     1     -40.724  22.321   0.218  0.00  0.00    +0.253 C 
ENDBRANCH  17  22
ENDBRANCH   5  12
BRANCH   6  24
ATOM     24  O   UNL     1     -36.043  23.936   5.682  0.00  0.00    -0.465 OA
ATOM     25  C   UNL     1     -35.181  22.814   5.644  0.00  0.00    +0.253 C 
ENDBRANCH   6  24
BRANCH   8  26
ATOM     26  O   UNL     1     -34.929  28.174   1.113  0.00  0.00    -0.465 OA
ATOM     27  C   UNL     1     -36.045  29.061   1.110  0.00  0.00    +0.253 C 
ENDBRANCH   8  26
BRANCH  10  28
ATOM     28  O   UNL     1     -31.498  29.484   4.165  0.00  0.00    -0.465 OA
ATOM     29  C   UNL     1     -31.808  30.668   4.895  0.00  0.00    +0.253 C 
ENDBRANCH  10  28
BRANCH   9  30
ATOM     30  O   UNL     1     -32.257  27.523   5.902  0.00  0.00    -0.503 OA
ATOM     31  H   UNL     1     -31.331  27.374   5.895  0.00  0.00    +0.292 HD
ENDBRANCH   9  30
BRANCH  11  32
ATOM     32  O   UNL     1     -32.821  29.821   1.773  0.00  0.00    -0.501 OA
ATOM     33  H   UNL     1     -33.277  30.639   1.760  0.00  0.00    +0.292 HD
ENDBRANCH  11  32
TORSDOF 9
ENDMDL
MODEL 4
REMARK VINA RESULT:      -5.9      2.341      6.688
REMARK  Name = 5487077
REMARK  9 active torsions:
REMARK  status: ('A' for Active; 'I' for Inactive)
REMARK    1  A    between atoms: C_5  and  C_12
REMARK    2  A    between atoms: C_6  and  O_24
REMARK    3  A    between atoms: C_8  and  O_26
REMARK    4  A    between atoms: C_9  and  O_30
REMARK    5  A    between atoms: C_10  and  O_28
REMARK    6  A    between atoms: C_11  and  O_32
REMARK    7  A    between atoms: C_13  and  O_20
REMARK    8  A    between atoms: C_15  and  O_18
REMARK    9  A    between atoms: C_17  and  O_22
REMARK                            x       y       z     vdW  Elec       q    Type
REMARK                         _______ _______ _______ _____ _____    ______ ____
ROOT
ATOM      1  O   UNL     1     -35.267  22.343   1.963  0.00  0.00    -0.447 OA
ATOM      2  O   UNL     1     -38.844  20.790   0.785  0.00  0.00    -0.283 OA
ATOM      3  C   UNL     1     -37.691  22.453   1.996  0.00  0.00    +0.117 A 
ATOM      4  C   UNL     1     -36.437  22.935   2.363  0.00  0.00    +0.188 A 
ATOM      5  C   UNL     1     -35.336  21.211   1.167  0.00  0.00    +0.185 A 
ATOM      6  C   UNL     1     -36.480  20.651   0.736  0.00  0.00    +0.212 A 
ATOM      7  C   UNL     1     -37.772  21.258   1.142  0.00  0.00    +0.238 A 
ATOM      8  C   UNL     1     -36.334  24.069   3.170  0.00  0.00    +0.210 A 
ATOM      9  C   UNL     1     -38.851  23.099   2.432  0.00  0.00    +0.177 A 
ATOM     10  C   UNL     1     -38.745  24.232   3.239  0.00  0.00    +0.209 A 
ATOM     11  C   UNL     1     -37.490  24.716   3.607  0.00  0.00    +0.209 A 
ENDROOT
BRANCH   5  12
ATOM     12  C   UNL     1     -34.009  20.678   0.809  0.00  0.00    +0.075 C 
ATOM     13  C   UNL     1     -33.093  21.444   0.084  0.00  0.00    +0.140 C 
ATOM     14  C   UNL     1     -33.668  19.382   1.203  0.00  0.00    +0.046 C 
ATOM     15  C   UNL     1     -32.419  18.856   0.875  0.00  0.00    +0.173 C 
ATOM     16  C   UNL     1     -31.844  20.918  -0.244  0.00  0.00    +0.077 C 
ATOM     17  C   UNL     1     -31.507  19.624   0.151  0.00  0.00    +0.175 C 
BRANCH  15  18
ATOM     18  O   UNL     1     -32.102  17.590   1.265  0.00  0.00    -0.468 OA
ATOM     19  C   UNL     1     -32.440  16.532   0.369  0.00  0.00    +0.253 C 
ENDBRANCH  15  18
BRANCH  13  20
ATOM     20  O   UNL     1     -33.397  22.713  -0.315  0.00  0.00    -0.505 OA
ATOM     21  H   UNL     1     -33.989  23.234   0.192  0.00  0.00    +0.292 HD
ENDBRANCH  13  20
BRANCH  17  22
ATOM     22  O   UNL     1     -30.284  19.121  -0.176  0.00  0.00    -0.468 OA
ATOM     23  C   UNL     1     -29.336  20.031  -0.728  0.00  0.00    +0.253 C 
ENDBRANCH  17  22
ENDBRANCH   5  12
BRANCH   6  24
ATOM     24  O   UNL     1     -36.515  19.543  -0.082  0.00  0.00    -0.465 OA
ATOM     25  C   UNL     1     -36.526  19.923  -1.445  0.00  0.00    +0.253 C 
ENDBRANCH   6  24
BRANCH   8  26
ATOM     26  O   UNL     1     -35.109  24.547   3.532  0.00  0.00    -0.465 OA
ATOM     27  C   UNL     1     -34.568  24.072   4.762  0.00  0.00    +0.253 C 
ENDBRANCH   8  26
BRANCH  10  28
ATOM     28  O   UNL     1     -39.872  24.869   3.672  0.00  0.00    -0.465 OA
ATOM     29  C   UNL     1     -40.362  25.934   2.861  0.00  0.00    +0.253 C 
ENDBRANCH  10  28
BRANCH   9  30
ATOM     30  O   UNL     1     -40.095  22.656   2.094  0.00  0.00    -0.503 OA
ATOM     31  H   UNL     1     -40.744  23.263   1.793  0.00  0.00    +0.292 HD
ENDBRANCH   9  30
BRANCH  11  32
ATOM     32  O   UNL     1     -37.392  25.824   4.397  0.00  0.00    -0.501 OA
ATOM     33  H   UNL     1     -37.787  26.629   4.125  0.00  0.00    +0.292 HD
ENDBRANCH  11  32
TORSDOF 9
ENDMDL
MODEL 5
REMARK VINA RESULT:      -5.8      2.780      5.788
REMARK  Name = 5487077
REMARK  9 active torsions:
REMARK  status: ('A' for Active; 'I' for Inactive)
REMARK    1  A    between atoms: C_5  and  C_12
REMARK    2  A    between atoms: C_6  and  O_24
REMARK    3  A    between atoms: C_8  and  O_26
REMARK    4  A    between atoms: C_9  and  O_30
REMARK    5  A    between atoms: C_10  and  O_28
REMARK    6  A    between atoms: C_11  and  O_32
REMARK    7  A    between atoms: C_13  and  O_20
REMARK    8  A    between atoms: C_15  and  O_18
REMARK    9  A    between atoms: C_17  and  O_22
REMARK                            x       y       z     vdW  Elec       q    Type
REMARK                         _______ _______ _______ _____ _____    ______ ____
ROOT
ATOM      1  O   UNL     1     -37.664  22.518   1.096  0.00  0.00    -0.447 OA
ATOM      2  O   UNL     1     -37.594  24.972   4.348  0.00  0.00    -0.283 OA
ATOM      3  C   UNL     1     -38.777  24.184   2.466  0.00  0.00    +0.117 A 
ATOM      4  C   UNL     1     -38.739  23.324   1.372  0.00  0.00    +0.188 A 
ATOM      5  C   UNL     1     -36.565  22.572   1.939  0.00  0.00    +0.185 A 
ATOM      6  C   UNL     1     -36.478  23.351   3.031  0.00  0.00    +0.212 A 
ATOM      7  C   UNL     1     -37.618  24.238   3.370  0.00  0.00    +0.238 A 
ATOM      8  C   UNL     1     -39.827  23.252   0.501  0.00  0.00    +0.210 A 
ATOM      9  C   UNL     1     -39.900  24.982   2.697  0.00  0.00    +0.177 A 
ATOM     10  C   UNL     1     -40.987  24.910   1.825  0.00  0.00    +0.209 A 
ATOM     11  C   UNL     1     -40.951  24.047   0.730  0.00  0.00    +0.209 A 
ENDROOT
BRANCH   5  12
ATOM     12  C   UNL     1     -35.483  21.656   1.530  0.00  0.00    +0.075 C 
ATOM     13  C   UNL     1     -35.514  20.302   1.871  0.00  0.00    +0.140 C 
ATOM     14  C   UNL     1     -34.410  22.159   0.791  0.00  0.00    +0.046 C 
ATOM     15  C   UNL     1     -33.374  21.313   0.395  0.00  0.00    +0.173 C 
ATOM     16  C   UNL     1     -34.479  19.456   1.474  0.00  0.00    +0.077 C 
ATOM     17  C   UNL     1     -33.409  19.962   0.737  0.00  0.00    +0.175 C 
BRANCH  15  18
ATOM     18  O   UNL     1     -32.333  21.820  -0.324  0.00  0.00    -0.468 OA
ATOM     19  C   UNL     1     -32.500  23.126  -0.874  0.00  0.00    +0.253 C 
ENDBRANCH  15  18
BRANCH  13  20
ATOM     20  O   UNL     1     -36.549  19.781   2.591  0.00  0.00    -0.505 OA
ATOM     21  H   UNL     1     -36.452  19.637   3.512  0.00  0.00    +0.292 HD
ENDBRANCH  13  20
BRANCH  17  22
ATOM     22  O   UNL     1     -32.403  19.126   0.355  0.00  0.00    -0.468 OA
ATOM     23  C   UNL     1     -32.129  18.012   1.203  0.00  0.00    +0.253 C 
ENDBRANCH  17  22
ENDBRANCH   5  12
BRANCH   6  24
ATOM     24  O   UNL     1     -35.382  23.357   3.868  0.00  0.00    -0.465 OA
ATOM     25  C   UNL     1     -35.564  22.452   4.940  0.00  0.00    +0.253 C 
ENDBRANCH   6  24
BRANCH   8  26
ATOM     26  O   UNL     1     -39.796  22.411  -0.571  0.00  0.00    -0.465 OA
ATOM     27  C   UNL     1     -40.297  21.092  -0.372  0.00  0.00    +0.253 C 
ENDBRANCH   8  26
BRANCH  10  28
ATOM     28  O   UNL     1     -42.089  25.685   2.043  0.00  0.00    -0.465 OA
ATOM     29  C   UNL     1     -42.107  26.968   1.421  0.00  0.00    +0.253 C 
ENDBRANCH  10  28
BRANCH   9  30
ATOM     30  O   UNL     1     -39.974  25.837   3.757  0.00  0.00    -0.503 OA
ATOM     31  H   UNL     1     -39.225  25.972   4.304  0.00  0.00    +0.292 HD
ENDBRANCH   9  30
BRANCH  11  32
ATOM     32  O   UNL     1     -42.016  23.981  -0.121  0.00  0.00    -0.501 OA
ATOM     33  H   UNL     1     -42.446  23.162  -0.269  0.00  0.00    +0.292 HD
ENDBRANCH  11  32
TORSDOF 9
ENDMDL
MODEL 6
REMARK VINA RESULT:      -5.6      3.019      5.186
REMARK  Name = 5487077
REMARK  9 active torsions:
REMARK  status: ('A' for Active; 'I' for Inactive)
REMARK    1  A    between atoms: C_5  and  C_12
REMARK    2  A    between atoms: C_6  and  O_24
REMARK    3  A    between atoms: C_8  and  O_26
REMARK    4  A    between atoms: C_9  and  O_30
REMARK    5  A    between atoms: C_10  and  O_28
REMARK    6  A    between atoms: C_11  and  O_32
REMARK    7  A    between atoms: C_13  and  O_20
REMARK    8  A    between atoms: C_15  and  O_18
REMARK    9  A    between atoms: C_17  and  O_22
REMARK                            x       y       z     vdW  Elec       q    Type
REMARK                         _______ _______ _______ _____ _____    ______ ____
ROOT
ATOM      1  O   UNL     1     -34.264  19.506   1.295  0.00  0.00    -0.447 OA
ATOM      2  O   UNL     1     -37.568  18.041  -0.583  0.00  0.00    -0.283 OA
ATOM      3  C   UNL     1     -35.303  17.738  -0.001  0.00  0.00    +0.117 A 
ATOM      4  C   UNL     1     -34.210  18.293   0.659  0.00  0.00    +0.188 A 
ATOM      5  C   UNL     1     -35.455  20.214   1.271  0.00  0.00    +0.185 A 
ATOM      6  C   UNL     1     -36.583  19.787   0.677  0.00  0.00    +0.212 A 
ATOM      7  C   UNL     1     -36.574  18.479  -0.022  0.00  0.00    +0.238 A 
ATOM      8  C   UNL     1     -32.995  17.608   0.696  0.00  0.00    +0.210 A 
ATOM      9  C   UNL     1     -35.191  16.495  -0.632  0.00  0.00    +0.177 A 
ATOM     10  C   UNL     1     -33.975  15.812  -0.594  0.00  0.00    +0.209 A 
ATOM     11  C   UNL     1     -32.879  16.367   0.067  0.00  0.00    +0.209 A 
ENDROOT
BRANCH   5  12
ATOM     12  C   UNL     1     -35.375  21.497   1.992  0.00  0.00    +0.075 C 
ATOM     13  C   UNL     1     -34.859  22.641   1.379  0.00  0.00    +0.140 C 
ATOM     14  C   UNL     1     -35.824  21.563   3.313  0.00  0.00    +0.046 C 
ATOM     15  C   UNL     1     -35.758  22.766   4.016  0.00  0.00    +0.173 C 
ATOM     16  C   UNL     1     -34.792  23.844   2.082  0.00  0.00    +0.077 C 
ATOM     17  C   UNL     1     -35.241  23.906   3.401  0.00  0.00    +0.175 C 
BRANCH  15  18
ATOM     18  O   UNL     1     -36.198  22.814   5.305  0.00  0.00    -0.468 OA
ATOM     19  C   UNL     1     -35.388  22.176   6.291  0.00  0.00    +0.253 C 
ENDBRANCH  15  18
BRANCH  13  20
ATOM     20  O   UNL     1     -34.412  22.608   0.090  0.00  0.00    -0.505 OA
ATOM     21  H   UNL     1     -33.763  23.220  -0.197  0.00  0.00    +0.292 HD
ENDBRANCH  13  20
BRANCH  17  22
ATOM     22  O   UNL     1     -35.171  25.086   4.077  0.00  0.00    -0.468 OA
ATOM     23  C   UNL     1     -33.897  25.462   4.596  0.00  0.00    +0.253 C 
ENDBRANCH  17  22
ENDBRANCH   5  12
BRANCH   6  24
ATOM     24  O   UNL     1     -37.762  20.501   0.699  0.00  0.00    -0.465 OA
ATOM     25  C   UNL     1     -37.867  21.333  -0.440  0.00  0.00    +0.253 C 
ENDBRANCH   6  24
BRANCH   8  26
ATOM     26  O   UNL     1     -31.921  18.145   1.341  0.00  0.00    -0.465 OA
ATOM     27  C   UNL     1     -30.957  18.823   0.540  0.00  0.00    +0.253 C 
ENDBRANCH   8  26
BRANCH  10  28
ATOM     28  O   UNL     1     -33.854  14.599  -1.208  0.00  0.00    -0.465 OA
ATOM     29  C   UNL     1     -33.441  14.605  -2.572  0.00  0.00    +0.253 C 
ENDBRANCH  10  28
BRANCH   9  30
ATOM     30  O   UNL     1     -36.238  15.921  -1.288  0.00  0.00    -0.503 OA
ATOM     31  H   UNL     1     -36.238  15.876  -2.225  0.00  0.00    +0.292 HD
ENDBRANCH   9  30
BRANCH  11  32
ATOM     32  O   UNL     1     -31.692  15.696   0.100  0.00  0.00    -0.501 OA
ATOM     33  H   UNL     1     -31.234  15.517  -0.697  0.00  0.00    +0.292 HD
ENDBRANCH  11  32
TORSDOF 9
ENDMDL
MODEL 7
REMARK VINA RESULT:      -5.6      1.910      7.767
REMARK  Name = 5487077
REMARK  9 active torsions:
REMARK  status: ('A' for Active; 'I' for Inactive)
REMARK    1  A    between atoms: C_5  and  C_12
REMARK    2  A    between atoms: C_6  and  O_24
REMARK    3  A    between atoms: C_8  and  O_26
REMARK    4  A    between atoms: C_9  and  O_30
REMARK    5  A    between atoms: C_10  and  O_28
REMARK    6  A    between atoms: C_11  and  O_32
REMARK    7  A    between atoms: C_13  and  O_20
REMARK    8  A    between atoms: C_15  and  O_18
REMARK    9  A    between atoms: C_17  and  O_22
REMARK                            x       y       z     vdW  Elec       q    Type
REMARK                         _______ _______ _______ _____ _____    ______ ____
ROOT
ATOM      1  O   UNL     1     -35.600  25.419   2.384  0.00  0.00    -0.447 OA
ATOM      2  O   UNL     1     -34.311  25.615   6.244  0.00  0.00    -0.283 OA
ATOM      3  C   UNL     1     -34.153  26.443   4.041  0.00  0.00    +0.117 A 
ATOM      4  C   UNL     1     -34.637  26.327   2.741  0.00  0.00    +0.188 A 
ATOM      5  C   UNL     1     -36.107  24.576   3.359  0.00  0.00    +0.185 A 
ATOM      6  C   UNL     1     -35.734  24.592   4.651  0.00  0.00    +0.212 A 
ATOM      7  C   UNL     1     -34.695  25.558   5.084  0.00  0.00    +0.238 A 
ATOM      8  C   UNL     1     -34.141  27.157   1.734  0.00  0.00    +0.210 A 
ATOM      9  C   UNL     1     -33.170  27.388   4.347  0.00  0.00    +0.177 A 
ATOM     10  C   UNL     1     -32.675  28.217   3.339  0.00  0.00    +0.209 A 
ATOM     11  C   UNL     1     -33.159  28.102   2.036  0.00  0.00    +0.209 A 
ENDROOT
BRANCH   5  12
ATOM     12  C   UNL     1     -37.136  23.653   2.843  0.00  0.00    +0.075 C 
ATOM     13  C   UNL     1     -36.811  22.352   2.456  0.00  0.00    +0.140 C 
ATOM     14  C   UNL     1     -38.456  24.097   2.740  0.00  0.00    +0.046 C 
ATOM     15  C   UNL     1     -39.446  23.243   2.253  0.00  0.00    +0.173 C 
ATOM     16  C   UNL     1     -37.800  21.498   1.969  0.00  0.00    +0.077 C 
ATOM     17  C   UNL     1     -39.118  21.944   1.867  0.00  0.00    +0.175 C 
BRANCH  15  18
ATOM     18  O   UNL     1     -40.729  23.691   2.157  0.00  0.00    -0.468 OA
ATOM     19  C   UNL     1     -41.020  24.601   1.098  0.00  0.00    +0.253 C 
ENDBRANCH  15  18
BRANCH  13  20
ATOM     20  O   UNL     1     -35.530  21.890   2.545  0.00  0.00    -0.505 OA
ATOM     21  H   UNL     1     -35.255  21.415   3.305  0.00  0.00    +0.292 HD
ENDBRANCH  13  20
BRANCH  17  22
ATOM     22  O   UNL     1     -40.075  21.101   1.391  0.00  0.00    -0.468 OA
ATOM     23  C   UNL     1     -40.239  21.038  -0.024  0.00  0.00    +0.253 C 
ENDBRANCH  17  22
ENDBRANCH   5  12
BRANCH   6  24
ATOM     24  O   UNL     1     -36.282  23.760   5.604  0.00  0.00    -0.465 OA
ATOM     25  C   UNL     1     -35.410  22.684   5.894  0.00  0.00    +0.253 C 
ENDBRANCH   6  24
BRANCH   8  26
ATOM     26  O   UNL     1     -34.610  27.049   0.459  0.00  0.00    -0.465 OA
ATOM     27  C   UNL     1     -33.915  26.161  -0.413  0.00  0.00    +0.253 C 
ENDBRANCH   8  26
BRANCH  10  28
ATOM     28  O   UNL     1     -31.714  29.142   3.627  0.00  0.00    -0.465 OA
ATOM     29  C   UNL     1     -32.163  30.433   4.031  0.00  0.00    +0.253 C 
ENDBRANCH  10  28
BRANCH   9  30
ATOM     30  O   UNL     1     -32.672  27.531   5.608  0.00  0.00    -0.503 OA
ATOM     31  H   UNL     1     -33.206  27.899   6.285  0.00  0.00    +0.292 HD
ENDBRANCH   9  30
BRANCH  11  32
ATOM     32  O   UNL     1     -32.672  28.914   1.054  0.00  0.00    -0.501 OA
ATOM     33  H   UNL     1     -33.049  29.760   0.917  0.00  0.00    +0.292 HD
ENDBRANCH  11  32
TORSDOF 9
ENDMDL
MODEL 8
REMARK VINA RESULT:      -5.5      2.469      6.228
REMARK  Name = 5487077
REMARK  9 active torsions:
REMARK  status: ('A' for Active; 'I' for Inactive)
REMARK    1  A    between atoms: C_5  and  C_12
REMARK    2  A    between atoms: C_6  and  O_24
REMARK    3  A    between atoms: C_8  and  O_26
REMARK    4  A    between atoms: C_9  and  O_30
REMARK    5  A    between atoms: C_10  and  O_28
REMARK    6  A    between atoms: C_11  and  O_32
REMARK    7  A    between atoms: C_13  and  O_20
REMARK    8  A    between atoms: C_15  and  O_18
REMARK    9  A    between atoms: C_17  and  O_22
REMARK                            x       y       z     vdW  Elec       q    Type
REMARK                         _______ _______ _______ _____ _____    ______ ____
ROOT
ATOM      1  O   UNL     1     -35.218  22.482   1.905  0.00  0.00    -0.447 OA
ATOM      2  O   UNL     1     -38.760  20.820   0.770  0.00  0.00    -0.283 OA
ATOM      3  C   UNL     1     -37.643  22.509   1.978  0.00  0.00    +0.117 A 
ATOM      4  C   UNL     1     -36.400  23.030   2.330  0.00  0.00    +0.188 A 
ATOM      5  C   UNL     1     -35.262  21.355   1.100  0.00  0.00    +0.185 A 
ATOM      6  C   UNL     1     -36.394  20.761   0.682  0.00  0.00    +0.212 A 
ATOM      7  C   UNL     1     -37.698  21.320   1.114  0.00  0.00    +0.238 A 
ATOM      8  C   UNL     1     -36.322  24.159   3.146  0.00  0.00    +0.210 A 
ATOM      9  C   UNL     1     -38.817  23.111   2.440  0.00  0.00    +0.177 A 
ATOM     10  C   UNL     1     -38.736  24.240   3.257  0.00  0.00    +0.209 A 
ATOM     11  C   UNL     1     -37.491  24.762   3.609  0.00  0.00    +0.209 A 
ENDROOT
BRANCH   5  12
ATOM     12  C   UNL     1     -33.924  20.871   0.714  0.00  0.00    +0.075 C 
ATOM     13  C   UNL     1     -33.446  19.636   1.159  0.00  0.00    +0.140 C 
ATOM     14  C   UNL     1     -33.124  21.667  -0.108  0.00  0.00    +0.046 C 
ATOM     15  C   UNL     1     -31.854  21.231  -0.485  0.00  0.00    +0.173 C 
ATOM     16  C   UNL     1     -32.176  19.200   0.783  0.00  0.00    +0.077 C 
ATOM     17  C   UNL     1     -31.380  19.998  -0.039  0.00  0.00    +0.175 C 
BRANCH  15  18
ATOM     18  O   UNL     1     -31.085  22.020  -1.286  0.00  0.00    -0.468 OA
ATOM     19  C   UNL     1     -31.399  23.411  -1.320  0.00  0.00    +0.253 C 
ENDBRANCH  15  18
BRANCH  13  20
ATOM     20  O   UNL     1     -34.204  18.836   1.964  0.00  0.00    -0.505 OA
ATOM     21  H   UNL     1     -34.983  18.438   1.628  0.00  0.00    +0.292 HD
ENDBRANCH  13  20
BRANCH  17  22
ATOM     22  O   UNL     1     -30.141  19.561  -0.400  0.00  0.00    -0.468 OA
ATOM     23  C   UNL     1     -29.676  18.356   0.206  0.00  0.00    +0.253 C 
ENDBRANCH  17  22
ENDBRANCH   5  12
BRANCH   6  24
ATOM     24  O   UNL     1     -36.405  19.660  -0.147  0.00  0.00    -0.465 OA
ATOM     25  C   UNL     1     -36.430  20.053  -1.506  0.00  0.00    +0.253 C 
ENDBRANCH   6  24
BRANCH   8  26
ATOM     26  O   UNL     1     -35.108  24.674   3.494  0.00  0.00    -0.465 OA
ATOM     27  C   UNL     1     -34.530  24.204   4.708  0.00  0.00    +0.253 C 
ENDBRANCH   8  26
BRANCH  10  28
ATOM     28  O   UNL     1     -39.876  24.834   3.714  0.00  0.00    -0.465 OA
ATOM     29  C   UNL     1     -40.408  25.898   2.928  0.00  0.00    +0.253 C 
ENDBRANCH  10  28
BRANCH   9  30
ATOM     30  O   UNL     1     -40.051  22.630   2.118  0.00  0.00    -0.503 OA
ATOM     31  H   UNL     1     -40.224  21.710   2.167  0.00  0.00    +0.292 HD
ENDBRANCH   9  30
BRANCH  11  32
ATOM     32  O   UNL     1     -37.418  25.866   4.408  0.00  0.00    -0.501 OA
ATOM     33  H   UNL     1     -37.437  26.722   4.028  0.00  0.00    +0.292 HD
ENDBRANCH  11  32
TORSDOF 9
ENDMDL
MODEL 9
REMARK VINA RESULT:      -5.5      1.771      3.512
REMARK  Name = 5487077
REMARK  9 active torsions:
REMARK  status: ('A' for Active; 'I' for Inactive)
REMARK    1  A    between atoms: C_5  and  C_12
REMARK    2  A    between atoms: C_6  and  O_24
REMARK    3  A    between atoms: C_8  and  O_26
REMARK    4  A    between atoms: C_9  and  O_30
REMARK    5  A    between atoms: C_10  and  O_28
REMARK    6  A    between atoms: C_11  and  O_32
REMARK    7  A    between atoms: C_13  and  O_20
REMARK    8  A    between atoms: C_15  and  O_18
REMARK    9  A    between atoms: C_17  and  O_22
REMARK                            x       y       z     vdW  Elec       q    Type
REMARK                         _______ _______ _______ _____ _____    ______ ____
ROOT
ATOM      1  O   UNL     1     -37.669  24.176   2.049  0.00  0.00    -0.447 OA
ATOM      2  O   UNL     1     -36.965  20.171   1.802  0.00  0.00    -0.283 OA
ATOM      3  C   UNL     1     -38.345  21.995   1.228  0.00  0.00    +0.117 A 
ATOM      4  C   UNL     1     -38.529  23.370   1.350  0.00  0.00    +0.188 A 
ATOM      5  C   UNL     1     -36.575  23.595   2.670  0.00  0.00    +0.185 A 
ATOM      6  C   UNL     1     -36.279  22.284   2.622  0.00  0.00    +0.212 A 
ATOM      7  C   UNL     1     -37.180  21.373   1.875  0.00  0.00    +0.238 A 
ATOM      8  C   UNL     1     -39.625  23.985   0.742  0.00  0.00    +0.210 A 
ATOM      9  C   UNL     1     -39.255  21.223   0.501  0.00  0.00    +0.177 A 
ATOM     10  C   UNL     1     -40.350  21.839  -0.105  0.00  0.00    +0.209 A 
ATOM     11  C   UNL     1     -40.535  23.217   0.015  0.00  0.00    +0.209 A 
ENDROOT
BRANCH   5  12
ATOM     12  C   UNL     1     -35.733  24.572   3.384  0.00  0.00    +0.075 C 
ATOM     13  C   UNL     1     -36.229  25.299   4.468  0.00  0.00    +0.140 C 
ATOM     14  C   UNL     1     -34.416  24.772   2.962  0.00  0.00    +0.046 C 
ATOM     15  C   UNL     1     -33.601  25.692   3.621  0.00  0.00    +0.173 C 
ATOM     16  C   UNL     1     -35.414  26.219   5.127  0.00  0.00    +0.077 C 
ATOM     17  C   UNL     1     -34.100  26.416   4.703  0.00  0.00    +0.175 C 
BRANCH  15  18
ATOM     18  O   UNL     1     -32.320  25.876   3.197  0.00  0.00    -0.468 OA
ATOM     19  C   UNL     1     -32.137  26.261   1.835  0.00  0.00    +0.253 C 
ENDBRANCH  15  18
BRANCH  13  20
ATOM     20  O   UNL     1     -37.511  25.126   4.904  0.00  0.00    -0.505 OA
ATOM     21  H   UNL     1     -37.672  24.818   5.774  0.00  0.00    +0.292 HD
ENDBRANCH  13  20
BRANCH  17  22
ATOM     22  O   UNL     1     -33.314  27.317   5.355  0.00  0.00    -0.468 OA
ATOM     23  C   UNL     1     -32.937  27.000   6.694  0.00  0.00    +0.253 C 
ENDBRANCH  17  22
ENDBRANCH   5  12
BRANCH   6  24
ATOM     24  O   UNL     1     -35.163  21.741   3.224  0.00  0.00    -0.465 OA
ATOM     25  C   UNL     1     -35.407  21.481   4.593  0.00  0.00    +0.253 C 
ENDBRANCH   6  24
BRANCH   8  26
ATOM     26  O   UNL     1     -39.810  25.330   0.857  0.00  0.00    -0.465 OA
ATOM     27  C   UNL     1     -40.574  25.786   1.971  0.00  0.00    +0.253 C 
ENDBRANCH   8  26
BRANCH  10  28
ATOM     28  O   UNL     1     -41.245  21.094  -0.817  0.00  0.00    -0.465 OA
ATOM     29  C   UNL     1     -40.987  20.933  -2.210  0.00  0.00    +0.253 C 
ENDBRANCH  10  28
BRANCH   9  30
ATOM     30  O   UNL     1     -39.109  19.875   0.360  0.00  0.00    -0.503 OA
ATOM     31  H   UNL     1     -38.922  19.342   1.109  0.00  0.00    +0.292 HD
ENDBRANCH   9  30
BRANCH  11  32
ATOM     32  O   UNL     1     -41.608  23.814  -0.579  0.00  0.00    -0.501 OA
ATOM     33  H   UNL     1     -41.956  23.466  -1.376  0.00  0.00    +0.292 HD
ENDBRANCH  11  32
TORSDOF 9
ENDMDL
