MODEL 1
REMARK VINA RESULT:      -7.3      0.000      0.000
REMARK  Name = 53239476
REMARK  6 active torsions:
REMARK  status: ('A' for Active; 'I' for Inactive)
REMARK    1  A    between atoms: C_4  and  O_34
REMARK    2  A    between atoms: C_7  and  C_24
REMARK    3  A    between atoms: C_14  and  O_38
REMARK    4  A    between atoms: C_17  and  O_36
REMARK    5  A    between atoms: C_26  and  O_30
REMARK    6  A    between atoms: C_27  and  O_32
REMARK                            x       y       z     vdW  Elec       q    Type
REMARK                         _______ _______ _______ _____ _____    ______ ____
ROOT
ATOM      1  O   UNL     1     -36.165  26.247   0.838  0.00  0.00    -0.291 OA
ATOM      2  O   UNL     1     -35.583  28.265   2.322  0.00  0.00    -0.287 OA
ATOM      3  O   UNL     1     -32.761  26.351   6.311  0.00  0.00    -0.286 OA
ATOM      4  C   UNL     1     -38.823  24.408   2.629  0.00  0.00    +0.100 C 
ATOM      5  C   UNL     1     -37.780  23.538   3.340  0.00  0.00    +0.057 C 
ATOM      6  C   UNL     1     -36.613  24.371   3.802  0.00  0.00    +0.017 C 
ATOM      7  C   UNL     1     -31.077  29.455   4.049  0.00  0.00    +0.038 C 
ATOM      8  C   UNL     1     -38.190  25.161   1.460  0.00  0.00    +0.096 C 
ATOM      9  C   UNL     1     -36.186  25.502   3.081  0.00  0.00    +0.037 C 
ATOM     10  C   UNL     1     -35.143  26.309   3.588  0.00  0.00    +0.045 C 
ATOM     11  C   UNL     1     -36.802  25.707   1.739  0.00  0.00    +0.175 C 
ATOM     12  C   UNL     1     -34.459  25.898   4.742  0.00  0.00    +0.045 C 
ATOM     13  C   UNL     1     -32.774  27.781   4.454  0.00  0.00    +0.075 C 
ATOM     14  C   UNL     1     -31.560  28.384   4.802  0.00  0.00    +0.135 C 
ATOM     15  C   UNL     1     -33.499  28.251   3.361  0.00  0.00    +0.045 C 
ATOM     16  C   UNL     1     -39.992  23.551   2.136  0.00  0.00    +0.030 C 
ATOM     17  C   UNL     1     -35.930  23.996   4.966  0.00  0.00    +0.135 C 
ATOM     18  C   UNL     1     -34.794  27.637   3.017  0.00  0.00    +0.196 C 
ATOM     19  C   UNL     1     -31.803  29.927   2.956  0.00  0.00    +0.001 C 
ATOM     20  C   UNL     1     -33.296  26.658   5.252  0.00  0.00    +0.199 C 
ATOM     21  C   UNL     1     -34.849  24.742   5.424  0.00  0.00    +0.040 C 
ATOM     22  C   UNL     1     -33.016  29.330   2.612  0.00  0.00    +0.003 C 
ENDROOT
BRANCH   7  24
ATOM     23  O   UNL     1     -29.473  29.868   5.780  0.00  0.00    -0.352 OA
ATOM     24  C   UNL     1     -29.764  30.122   4.401  0.00  0.00    +0.143 C 
ATOM     25  C   UNL     1     -29.817  31.635   4.131  0.00  0.00    +0.066 C 
ATOM     26  C   UNL     1     -28.518  32.307   4.572  0.00  0.00    +0.142 C 
ATOM     27  C   UNL     1     -28.198  31.922   6.019  0.00  0.00    +0.164 C 
ATOM     28  C   UNL     1     -28.207  30.396   6.194  0.00  0.00    +0.145 C 
ATOM     29  C   UNL     1     -28.001  29.980   7.647  0.00  0.00    +0.035 C 
BRANCH  26  30
ATOM     30  O   UNL     1     -27.454  31.879   3.721  0.00  0.00    -0.382 OA
ATOM     31  H   UNL     1     -27.823  31.514   2.901  0.00  0.00    +0.210 HD
ENDBRANCH  26  30
BRANCH  27  32
ATOM     32  O   UNL     1     -26.938  32.476   6.374  0.00  0.00    -0.380 OA
ATOM     33  H   UNL     1     -26.880  32.555   7.339  0.00  0.00    +0.211 HD
ENDBRANCH  27  32
ENDBRANCH   7  24
BRANCH   4  34
ATOM     34  O   UNL     1     -39.358  25.367   3.546  0.00  0.00    -0.386 OA
ATOM     35  H   UNL     1     -40.303  25.495   3.366  0.00  0.00    +0.210 HD
ENDBRANCH   4  34
BRANCH  17  36
ATOM     36  O   UNL     1     -36.289  22.883   5.670  0.00  0.00    -0.472 OA
ATOM     37  C   UNL     1     -35.233  22.062   6.161  0.00  0.00    +0.252 C 
ENDBRANCH  17  36
BRANCH  14  38
ATOM     38  O   UNL     1     -30.813  27.950   5.857  0.00  0.00    -0.506 OA
ATOM     39  H   UNL     1     -30.310  28.561   6.358  0.00  0.00    +0.292 HD
ENDBRANCH  14  38
TORSDOF 6
ENDMDL
MODEL 2
REMARK VINA RESULT:      -7.3      1.764      9.331
REMARK  Name = 53239476
REMARK  6 active torsions:
REMARK  status: ('A' for Active; 'I' for Inactive)
REMARK    1  A    between atoms: C_4  and  O_34
REMARK    2  A    between atoms: C_7  and  C_24
REMARK    3  A    between atoms: C_14  and  O_38
REMARK    4  A    between atoms: C_17  and  O_36
REMARK    5  A    between atoms: C_26  and  O_30
REMARK    6  A    between atoms: C_27  and  O_32
REMARK                            x       y       z     vdW  Elec       q    Type
REMARK                         _______ _______ _______ _____ _____    ______ ____
ROOT
ATOM      1  O   UNL     1     -32.351  32.116   2.845  0.00  0.00    -0.291 OA
ATOM      2  O   UNL     1     -32.707  29.780   1.830  0.00  0.00    -0.287 OA
ATOM      3  O   UNL     1     -32.842  26.456   5.888  0.00  0.00    -0.286 OA
ATOM      4  C   UNL     1     -28.798  32.251   3.852  0.00  0.00    +0.100 C 
ATOM      5  C   UNL     1     -29.147  31.736   5.252  0.00  0.00    +0.057 C 
ATOM      6  C   UNL     1     -30.155  30.618   5.177  0.00  0.00    +0.017 C 
ATOM      7  C   UNL     1     -36.099  26.436   3.247  0.00  0.00    +0.038 C 
ATOM      8  C   UNL     1     -30.058  32.698   3.113  0.00  0.00    +0.096 C 
ATOM      9  C   UNL     1     -31.136  30.581   4.168  0.00  0.00    +0.037 C 
ATOM     10  C   UNL     1     -32.010  29.475   4.076  0.00  0.00    +0.045 C 
ATOM     11  C   UNL     1     -31.262  31.798   3.317  0.00  0.00    +0.175 C 
ATOM     12  C   UNL     1     -31.973  28.489   5.073  0.00  0.00    +0.045 C 
ATOM     13  C   UNL     1     -34.032  27.368   4.087  0.00  0.00    +0.075 C 
ATOM     14  C   UNL     1     -35.072  26.436   4.192  0.00  0.00    +0.135 C 
ATOM     15  C   UNL     1     -34.022  28.288   3.042  0.00  0.00    +0.045 C 
ATOM     16  C   UNL     1     -27.796  33.405   3.937  0.00  0.00    +0.030 C 
ATOM     17  C   UNL     1     -30.121  29.608   6.145  0.00  0.00    +0.135 C 
ATOM     18  C   UNL     1     -32.908  29.246   2.914  0.00  0.00    +0.196 C 
ATOM     19  C   UNL     1     -36.089  27.356   2.201  0.00  0.00    +0.001 C 
ATOM     20  C   UNL     1     -32.937  27.366   5.073  0.00  0.00    +0.199 C 
ATOM     21  C   UNL     1     -31.035  28.559   6.107  0.00  0.00    +0.040 C 
ATOM     22  C   UNL     1     -35.050  28.281   2.093  0.00  0.00    +0.003 C 
ENDROOT
BRANCH   7  24
ATOM     23  O   UNL     1     -36.814  24.200   2.767  0.00  0.00    -0.352 OA
ATOM     24  C   UNL     1     -37.238  25.443   3.340  0.00  0.00    +0.143 C 
ATOM     25  C   UNL     1     -38.494  25.966   2.625  0.00  0.00    +0.066 C 
ATOM     26  C   UNL     1     -39.606  24.918   2.651  0.00  0.00    +0.142 C 
ATOM     27  C   UNL     1     -39.075  23.583   2.124  0.00  0.00    +0.164 C 
ATOM     28  C   UNL     1     -37.800  23.166   2.873  0.00  0.00    +0.145 C 
ATOM     29  C   UNL     1     -37.182  21.895   2.299  0.00  0.00    +0.035 C 
BRANCH  26  30
ATOM     30  O   UNL     1     -40.063  24.750   3.994  0.00  0.00    -0.382 OA
ATOM     31  H   UNL     1     -39.385  25.072   4.608  0.00  0.00    +0.210 HD
ENDBRANCH  26  30
BRANCH  27  32
ATOM     32  O   UNL     1     -40.094  22.600   2.250  0.00  0.00    -0.380 OA
ATOM     33  H   UNL     1     -40.679  22.833   2.988  0.00  0.00    +0.211 HD
ENDBRANCH  27  32
ENDBRANCH   7  24
BRANCH   4  34
ATOM     34  O   UNL     1     -28.177  31.207   3.094  0.00  0.00    -0.386 OA
ATOM     35  H   UNL     1     -28.809  30.857   2.446  0.00  0.00    +0.210 HD
ENDBRANCH   4  34
BRANCH  17  36
ATOM     36  O   UNL     1     -29.211  29.631   7.162  0.00  0.00    -0.472 OA
ATOM     37  C   UNL     1     -28.243  28.585   7.187  0.00  0.00    +0.252 C 
ENDBRANCH  17  36
BRANCH  14  38
ATOM     38  O   UNL     1     -35.126  25.524   5.204  0.00  0.00    -0.506 OA
ATOM     39  H   UNL     1     -35.504  24.680   5.054  0.00  0.00    +0.292 HD
ENDBRANCH  14  38
TORSDOF 6
ENDMDL
MODEL 3
REMARK VINA RESULT:      -7.2      7.568     11.380
REMARK  Name = 53239476
REMARK  6 active torsions:
REMARK  status: ('A' for Active; 'I' for Inactive)
REMARK    1  A    between atoms: C_4  and  O_34
REMARK    2  A    between atoms: C_7  and  C_24
REMARK    3  A    between atoms: C_14  and  O_38
REMARK    4  A    between atoms: C_17  and  O_36
REMARK    5  A    between atoms: C_26  and  O_30
REMARK    6  A    between atoms: C_27  and  O_32
REMARK                            x       y       z     vdW  Elec       q    Type
REMARK                         _______ _______ _______ _____ _____    ______ ____
ROOT
ATOM      1  O   UNL     1     -32.354  16.308   0.576  0.00  0.00    -0.291 OA
ATOM      2  O   UNL     1     -33.120  18.578  -0.357  0.00  0.00    -0.287 OA
ATOM      3  O   UNL     1     -38.365  18.482  -0.249  0.00  0.00    -0.286 OA
ATOM      4  C   UNL     1     -32.967  13.851  -2.116  0.00  0.00    +0.100 C 
ATOM      5  C   UNL     1     -34.368  13.561  -1.570  0.00  0.00    +0.057 C 
ATOM      6  C   UNL     1     -35.060  14.837  -1.162  0.00  0.00    +0.017 C 
ATOM      7  C   UNL     1     -36.437  21.649   1.710  0.00  0.00    +0.038 C 
ATOM      8  C   UNL     1     -32.137  14.620  -1.089  0.00  0.00    +0.096 C 
ATOM      9  C   UNL     1     -34.338  15.933  -0.652  0.00  0.00    +0.037 C 
ATOM     10  C   UNL     1     -35.006  17.142  -0.361  0.00  0.00    +0.045 C 
ATOM     11  C   UNL     1     -32.900  15.694  -0.338  0.00  0.00    +0.175 C 
ATOM     12  C   UNL     1     -36.405  17.193  -0.461  0.00  0.00    +0.045 C 
ATOM     13  C   UNL     1     -36.427  19.522   0.560  0.00  0.00    +0.075 C 
ATOM     14  C   UNL     1     -37.133  20.590   1.126  0.00  0.00    +0.135 C 
ATOM     15  C   UNL     1     -35.034  19.517   0.580  0.00  0.00    +0.045 C 
ATOM     16  C   UNL     1     -32.259  12.548  -2.501  0.00  0.00    +0.030 C 
ATOM     17  C   UNL     1     -36.452  14.921  -1.279  0.00  0.00    +0.135 C 
ATOM     18  C   UNL     1     -34.292  18.408  -0.047  0.00  0.00    +0.196 C 
ATOM     19  C   UNL     1     -35.043  21.645   1.729  0.00  0.00    +0.001 C 
ATOM     20  C   UNL     1     -37.155  18.407  -0.070  0.00  0.00    +0.199 C 
ATOM     21  C   UNL     1     -37.124  16.083  -0.914  0.00  0.00    +0.040 C 
ATOM     22  C   UNL     1     -34.338  20.583   1.161  0.00  0.00    +0.003 C 
ENDROOT
BRANCH   7  24
ATOM     23  O   UNL     1     -38.146  23.298   1.397  0.00  0.00    -0.352 OA
ATOM     24  C   UNL     1     -37.175  22.814   2.334  0.00  0.00    +0.143 C 
ATOM     25  C   UNL     1     -36.207  23.938   2.736  0.00  0.00    +0.066 C 
ATOM     26  C   UNL     1     -36.974  25.141   3.282  0.00  0.00    +0.142 C 
ATOM     27  C   UNL     1     -38.065  25.556   2.291  0.00  0.00    +0.164 C 
ATOM     28  C   UNL     1     -38.954  24.359   1.922  0.00  0.00    +0.145 C 
ATOM     29  C   UNL     1     -39.983  24.710   0.853  0.00  0.00    +0.035 C 
BRANCH  26  30
ATOM     30  O   UNL     1     -37.575  24.790   4.529  0.00  0.00    -0.382 OA
ATOM     31  H   UNL     1     -38.530  24.677   4.407  0.00  0.00    +0.210 HD
ENDBRANCH  26  30
BRANCH  27  32
ATOM     32  O   UNL     1     -38.828  26.610   2.862  0.00  0.00    -0.380 OA
ATOM     33  H   UNL     1     -38.232  27.253   3.277  0.00  0.00    +0.211 HD
ENDBRANCH  27  32
ENDBRANCH   7  24
BRANCH   4  34
ATOM     34  O   UNL     1     -33.065  14.645  -3.302  0.00  0.00    -0.386 OA
ATOM     35  H   UNL     1     -33.201  15.575  -3.060  0.00  0.00    +0.210 HD
ENDBRANCH   4  34
BRANCH  17  36
ATOM     36  O   UNL     1     -37.191  13.865  -1.730  0.00  0.00    -0.472 OA
ATOM     37  C   UNL     1     -38.595  14.068  -1.858  0.00  0.00    +0.252 C 
ENDBRANCH  17  36
BRANCH  14  38
ATOM     38  O   UNL     1     -38.496  20.630   1.138  0.00  0.00    -0.506 OA
ATOM     39  H   UNL     1     -38.945  21.389   0.822  0.00  0.00    +0.292 HD
ENDBRANCH  14  38
TORSDOF 6
ENDMDL
MODEL 4
REMARK VINA RESULT:      -7.2      1.058      1.626
REMARK  Name = 53239476
REMARK  6 active torsions:
REMARK  status: ('A' for Active; 'I' for Inactive)
REMARK    1  A    between atoms: C_4  and  O_34
REMARK    2  A    between atoms: C_7  and  C_24
REMARK    3  A    between atoms: C_14  and  O_38
REMARK    4  A    between atoms: C_17  and  O_36
REMARK    5  A    between atoms: C_26  and  O_30
REMARK    6  A    between atoms: C_27  and  O_32
REMARK                            x       y       z     vdW  Elec       q    Type
REMARK                         _______ _______ _______ _____ _____    ______ ____
ROOT
ATOM      1  O   UNL     1     -35.831  25.503   0.826  0.00  0.00    -0.291 OA
ATOM      2  O   UNL     1     -35.659  27.716   2.122  0.00  0.00    -0.287 OA
ATOM      3  O   UNL     1     -32.996  26.611   6.507  0.00  0.00    -0.286 OA
ATOM      4  C   UNL     1     -38.383  23.494   2.590  0.00  0.00    +0.100 C 
ATOM      5  C   UNL     1     -37.307  22.852   3.471  0.00  0.00    +0.057 C 
ATOM      6  C   UNL     1     -36.306  23.880   3.932  0.00  0.00    +0.017 C 
ATOM      7  C   UNL     1     -31.527  29.685   4.061  0.00  0.00    +0.038 C 
ATOM      8  C   UNL     1     -37.747  24.211   1.400  0.00  0.00    +0.096 C 
ATOM      9  C   UNL     1     -35.965  24.984   3.128  0.00  0.00    +0.037 C 
ATOM     10  C   UNL     1     -35.088  25.973   3.625  0.00  0.00    +0.045 C 
ATOM     11  C   UNL     1     -36.475  24.969   1.727  0.00  0.00    +0.175 C 
ATOM     12  C   UNL     1     -34.467  25.775   4.867  0.00  0.00    +0.045 C 
ATOM     13  C   UNL     1     -33.022  27.838   4.510  0.00  0.00    +0.075 C 
ATOM     14  C   UNL     1     -31.934  28.635   4.886  0.00  0.00    +0.135 C 
ATOM     15  C   UNL     1     -33.696  28.094   3.319  0.00  0.00    +0.045 C 
ATOM     16  C   UNL     1     -39.380  22.439   2.102  0.00  0.00    +0.030 C 
ATOM     17  C   UNL     1     -35.693  23.719   5.180  0.00  0.00    +0.135 C 
ATOM     18  C   UNL     1     -34.863  27.275   2.942  0.00  0.00    +0.196 C 
ATOM     19  C   UNL     1     -32.202  29.942   2.870  0.00  0.00    +0.001 C 
ATOM     20  C   UNL     1     -33.466  26.736   5.382  0.00  0.00    +0.199 C 
ATOM     21  C   UNL     1     -34.765  24.648   5.638  0.00  0.00    +0.040 C 
ATOM     22  C   UNL     1     -33.290  29.151   2.497  0.00  0.00    +0.003 C 
ENDROOT
BRANCH   7  24
ATOM     23  O   UNL     1     -30.404  31.764   3.668  0.00  0.00    -0.352 OA
ATOM     24  C   UNL     1     -30.351  30.559   4.441  0.00  0.00    +0.143 C 
ATOM     25  C   UNL     1     -29.017  29.829   4.212  0.00  0.00    +0.066 C 
ATOM     26  C   UNL     1     -27.838  30.753   4.516  0.00  0.00    +0.142 C 
ATOM     27  C   UNL     1     -27.994  32.067   3.745  0.00  0.00    +0.164 C 
ATOM     28  C   UNL     1     -29.371  32.696   4.008  0.00  0.00    +0.145 C 
ATOM     29  C   UNL     1     -29.603  33.949   3.170  0.00  0.00    +0.035 C 
BRANCH  26  30
ATOM     30  O   UNL     1     -27.804  31.027   5.917  0.00  0.00    -0.382 OA
ATOM     31  H   UNL     1     -27.067  30.545   6.323  0.00  0.00    +0.210 HD
ENDBRANCH  26  30
BRANCH  27  32
ATOM     32  O   UNL     1     -26.943  32.947   4.118  0.00  0.00    -0.380 OA
ATOM     33  H   UNL     1     -26.137  32.435   4.290  0.00  0.00    +0.211 HD
ENDBRANCH  27  32
ENDBRANCH   7  24
BRANCH   4  34
ATOM     34  O   UNL     1     -39.122  24.454   3.352  0.00  0.00    -0.386 OA
ATOM     35  H   UNL     1     -38.667  24.621   4.192  0.00  0.00    +0.210 HD
ENDBRANCH   4  34
BRANCH  17  36
ATOM     36  O   UNL     1     -35.968  22.640   5.970  0.00  0.00    -0.472 OA
ATOM     37  C   UNL     1     -34.931  21.675   6.128  0.00  0.00    +0.252 C 
ENDBRANCH  17  36
BRANCH  14  38
ATOM     38  O   UNL     1     -31.239  28.413   6.038  0.00  0.00    -0.506 OA
ATOM     39  H   UNL     1     -31.144  29.101   6.667  0.00  0.00    +0.292 HD
ENDBRANCH  14  38
TORSDOF 6
ENDMDL
MODEL 5
REMARK VINA RESULT:      -7.2      3.353      9.589
REMARK  Name = 53239476
REMARK  6 active torsions:
REMARK  status: ('A' for Active; 'I' for Inactive)
REMARK    1  A    between atoms: C_4  and  O_34
REMARK    2  A    between atoms: C_7  and  C_24
REMARK    3  A    between atoms: C_14  and  O_38
REMARK    4  A    between atoms: C_17  and  O_36
REMARK    5  A    between atoms: C_26  and  O_30
REMARK    6  A    between atoms: C_27  and  O_32
REMARK                            x       y       z     vdW  Elec       q    Type
REMARK                         _______ _______ _______ _____ _____    ______ ____
ROOT
ATOM      1  O   UNL     1     -30.386  31.971   2.544  0.00  0.00    -0.291 OA
ATOM      2  O   UNL     1     -31.932  30.776   4.215  0.00  0.00    -0.287 OA
ATOM      3  O   UNL     1     -36.594  30.391   1.838  0.00  0.00    -0.286 OA
ATOM      4  C   UNL     1     -31.388  35.527   2.604  0.00  0.00    +0.100 C 
ATOM      5  C   UNL     1     -32.382  35.295   1.462  0.00  0.00    +0.057 C 
ATOM      6  C   UNL     1     -33.139  34.007   1.663  0.00  0.00    +0.017 C 
ATOM      7  C   UNL     1     -34.839  26.859   3.262  0.00  0.00    +0.038 C 
ATOM      8  C   UNL     1     -30.431  34.344   2.735  0.00  0.00    +0.096 C 
ATOM      9  C   UNL     1     -32.545  32.897   2.293  0.00  0.00    +0.037 C 
ATOM     10  C   UNL     1     -33.310  31.736   2.542  0.00  0.00    +0.045 C 
ATOM     11  C   UNL     1     -31.080  32.985   2.553  0.00  0.00    +0.175 C 
ATOM     12  C   UNL     1     -34.619  31.658   2.041  0.00  0.00    +0.045 C 
ATOM     13  C   UNL     1     -34.781  29.222   2.753  0.00  0.00    +0.075 C 
ATOM     14  C   UNL     1     -35.446  27.990   2.717  0.00  0.00    +0.135 C 
ATOM     15  C   UNL     1     -33.518  29.316   3.334  0.00  0.00    +0.045 C 
ATOM     16  C   UNL     1     -30.602  36.822   2.378  0.00  0.00    +0.030 C 
ATOM     17  C   UNL     1     -34.456  33.914   1.196  0.00  0.00    +0.135 C 
ATOM     18  C   UNL     1     -32.834  30.620   3.402  0.00  0.00    +0.196 C 
ATOM     19  C   UNL     1     -33.576  26.953   3.844  0.00  0.00    +0.001 C 
ATOM     20  C   UNL     1     -35.421  30.424   2.191  0.00  0.00    +0.199 C 
ATOM     21  C   UNL     1     -35.186  32.742   1.366  0.00  0.00    +0.040 C 
ATOM     22  C   UNL     1     -32.914  28.181   3.886  0.00  0.00    +0.003 C 
ENDROOT
BRANCH   7  24
ATOM     23  O   UNL     1     -35.192  24.792   4.421  0.00  0.00    -0.352 OA
ATOM     24  C   UNL     1     -35.534  25.514   3.232  0.00  0.00    +0.143 C 
ATOM     25  C   UNL     1     -35.141  24.711   1.981  0.00  0.00    +0.066 C 
ATOM     26  C   UNL     1     -35.780  23.323   2.008  0.00  0.00    +0.142 C 
ATOM     27  C   UNL     1     -35.470  22.634   3.339  0.00  0.00    +0.164 C 
ATOM     28  C   UNL     1     -35.862  23.529   4.524  0.00  0.00    +0.145 C 
ATOM     29  C   UNL     1     -35.466  22.920   5.865  0.00  0.00    +0.035 C 
BRANCH  26  30
ATOM     30  O   UNL     1     -37.194  23.454   1.859  0.00  0.00    -0.382 OA
ATOM     31  H   UNL     1     -37.497  24.246   2.331  0.00  0.00    +0.210 HD
ENDBRANCH  26  30
BRANCH  27  32
ATOM     32  O   UNL     1     -36.156  21.389   3.383  0.00  0.00    -0.380 OA
ATOM     33  H   UNL     1     -35.715  20.798   4.013  0.00  0.00    +0.211 HD
ENDBRANCH  27  32
ENDBRANCH   7  24
BRANCH   4  34
ATOM     34  O   UNL     1     -32.097  35.673   3.839  0.00  0.00    -0.386 OA
ATOM     35  H   UNL     1     -32.432  34.808   4.124  0.00  0.00    +0.210 HD
ENDBRANCH   4  34
BRANCH  17  36
ATOM     36  O   UNL     1     -35.052  34.956   0.545  0.00  0.00    -0.472 OA
ATOM     37  C   UNL     1     -36.321  35.380   1.034  0.00  0.00    +0.252 C 
ENDBRANCH  17  36
BRANCH  14  38
ATOM     38  O   UNL     1     -36.678  27.851   2.149  0.00  0.00    -0.506 OA
ATOM     39  H   UNL     1     -37.399  27.547   2.664  0.00  0.00    +0.292 HD
ENDBRANCH  14  38
TORSDOF 6
ENDMDL
MODEL 6
REMARK VINA RESULT:      -7.1      6.881     10.145
REMARK  Name = 53239476
REMARK  6 active torsions:
REMARK  status: ('A' for Active; 'I' for Inactive)
REMARK    1  A    between atoms: C_4  and  O_34
REMARK    2  A    between atoms: C_7  and  C_24
REMARK    3  A    between atoms: C_14  and  O_38
REMARK    4  A    between atoms: C_17  and  O_36
REMARK    5  A    between atoms: C_26  and  O_30
REMARK    6  A    between atoms: C_27  and  O_32
REMARK                            x       y       z     vdW  Elec       q    Type
REMARK                         _______ _______ _______ _____ _____    ______ ____
ROOT
ATOM      1  O   UNL     1     -29.214  21.608  -0.762  0.00  0.00    -0.291 OA
ATOM      2  O   UNL     1     -31.623  22.216  -1.428  0.00  0.00    -0.287 OA
ATOM      3  O   UNL     1     -34.739  19.338   1.661  0.00  0.00    -0.286 OA
ATOM      4  C   UNL     1     -28.579  18.268  -2.210  0.00  0.00    +0.100 C 
ATOM      5  C   UNL     1     -29.066  17.589  -0.926  0.00  0.00    +0.057 C 
ATOM      6  C   UNL     1     -30.306  18.264  -0.399  0.00  0.00    +0.017 C 
ATOM      7  C   UNL     1     -35.302  23.494   1.659  0.00  0.00    +0.038 C 
ATOM      8  C   UNL     1     -28.332  19.757  -1.971  0.00  0.00    +0.096 C 
ATOM      9  C   UNL     1     -30.517  19.646  -0.567  0.00  0.00    +0.037 C 
ATOM     10  C   UNL     1     -31.728  20.231  -0.136  0.00  0.00    +0.045 C 
ATOM     11  C   UNL     1     -29.368  20.435  -1.095  0.00  0.00    +0.175 C 
ATOM     12  C   UNL     1     -32.653  19.448   0.571  0.00  0.00    +0.045 C 
ATOM     13  C   UNL     1     -34.074  21.501   1.051  0.00  0.00    +0.075 C 
ATOM     14  C   UNL     1     -35.125  22.112   1.746  0.00  0.00    +0.135 C 
ATOM     15  C   UNL     1     -33.211  22.270   0.275  0.00  0.00    +0.045 C 
ATOM     16  C   UNL     1     -27.302  17.596  -2.724  0.00  0.00    +0.030 C 
ATOM     17  C   UNL     1     -31.256  17.499   0.287  0.00  0.00    +0.135 C 
ATOM     18  C   UNL     1     -32.126  21.621  -0.484  0.00  0.00    +0.196 C 
ATOM     19  C   UNL     1     -34.439  24.263   0.882  0.00  0.00    +0.001 C 
ATOM     20  C   UNL     1     -33.889  20.042   1.128  0.00  0.00    +0.199 C 
ATOM     21  C   UNL     1     -32.413  18.088   0.786  0.00  0.00    +0.040 C 
ATOM     22  C   UNL     1     -33.395  23.655   0.184  0.00  0.00    +0.003 C 
ENDROOT
BRANCH   7  24
ATOM     23  O   UNL     1     -37.677  23.702   1.894  0.00  0.00    -0.352 OA
ATOM     24  C   UNL     1     -36.427  24.180   2.405  0.00  0.00    +0.143 C 
ATOM     25  C   UNL     1     -36.337  25.709   2.266  0.00  0.00    +0.066 C 
ATOM     26  C   UNL     1     -37.526  26.383   2.949  0.00  0.00    +0.142 C 
ATOM     27  C   UNL     1     -38.834  25.767   2.444  0.00  0.00    +0.164 C 
ATOM     28  C   UNL     1     -38.811  24.238   2.588  0.00  0.00    +0.145 C 
ATOM     29  C   UNL     1     -40.052  23.583   1.993  0.00  0.00    +0.035 C 
BRANCH  26  30
ATOM     30  O   UNL     1     -37.427  26.194   4.361  0.00  0.00    -0.382 OA
ATOM     31  H   UNL     1     -37.999  25.458   4.629  0.00  0.00    +0.210 HD
ENDBRANCH  26  30
BRANCH  27  32
ATOM     32  O   UNL     1     -39.919  26.338   3.163  0.00  0.00    -0.380 OA
ATOM     33  H   UNL     1     -40.722  25.818   3.005  0.00  0.00    +0.211 HD
ENDBRANCH  27  32
ENDBRANCH   7  24
BRANCH   4  34
ATOM     34  O   UNL     1     -29.569  18.134  -3.234  0.00  0.00    -0.386 OA
ATOM     35  H   UNL     1     -30.390  17.788  -2.848  0.00  0.00    +0.210 HD
ENDBRANCH   4  34
BRANCH  17  36
ATOM     36  O   UNL     1     -31.067  16.164   0.504  0.00  0.00    -0.472 OA
ATOM     37  C   UNL     1     -31.906  15.268  -0.220  0.00  0.00    +0.252 C 
ENDBRANCH  17  36
BRANCH  14  38
ATOM     38  O   UNL     1     -35.987  21.399   2.526  0.00  0.00    -0.506 OA
ATOM     39  H   UNL     1     -36.038  21.572   3.446  0.00  0.00    +0.292 HD
ENDBRANCH  14  38
TORSDOF 6
ENDMDL
MODEL 7
REMARK VINA RESULT:      -7.0      5.511      8.792
REMARK  Name = 53239476
REMARK  6 active torsions:
REMARK  status: ('A' for Active; 'I' for Inactive)
REMARK    1  A    between atoms: C_4  and  O_34
REMARK    2  A    between atoms: C_7  and  C_24
REMARK    3  A    between atoms: C_14  and  O_38
REMARK    4  A    between atoms: C_17  and  O_36
REMARK    5  A    between atoms: C_26  and  O_30
REMARK    6  A    between atoms: C_27  and  O_32
REMARK                            x       y       z     vdW  Elec       q    Type
REMARK                         _______ _______ _______ _____ _____    ______ ____
ROOT
ATOM      1  O   UNL     1     -40.411  20.084  -2.177  0.00  0.00    -0.291 OA
ATOM      2  O   UNL     1     -40.359  20.703   0.318  0.00  0.00    -0.287 OA
ATOM      3  O   UNL     1     -35.386  20.048   1.859  0.00  0.00    -0.286 OA
ATOM      4  C   UNL     1     -40.221  16.396  -2.307  0.00  0.00    +0.100 C 
ATOM      5  C   UNL     1     -38.692  16.450  -2.390  0.00  0.00    +0.057 C 
ATOM      6  C   UNL     1     -38.139  17.477  -1.436  0.00  0.00    +0.017 C 
ATOM      7  C   UNL     1     -37.151  23.793   2.523  0.00  0.00    +0.038 C 
ATOM      8  C   UNL     1     -40.824  17.773  -2.575  0.00  0.00    +0.096 C 
ATOM      9  C   UNL     1     -38.852  18.651  -1.127  0.00  0.00    +0.037 C 
ATOM     10  C   UNL     1     -38.344  19.551  -0.165  0.00  0.00    +0.045 C 
ATOM     11  C   UNL     1     -40.066  18.927  -1.946  0.00  0.00    +0.175 C 
ATOM     12  C   UNL     1     -37.069  19.325   0.378  0.00  0.00    +0.045 C 
ATOM     13  C   UNL     1     -37.141  21.573   1.566  0.00  0.00    +0.075 C 
ATOM     14  C   UNL     1     -36.491  22.588   2.278  0.00  0.00    +0.135 C 
ATOM     15  C   UNL     1     -38.441  21.765   1.106  0.00  0.00    +0.045 C 
ATOM     16  C   UNL     1     -40.778  15.371  -3.300  0.00  0.00    +0.030 C 
ATOM     17  C   UNL     1     -36.881  17.261  -0.861  0.00  0.00    +0.135 C 
ATOM     18  C   UNL     1     -39.136  20.682   0.387  0.00  0.00    +0.196 C 
ATOM     19  C   UNL     1     -38.453  23.985   2.065  0.00  0.00    +0.001 C 
ATOM     20  C   UNL     1     -36.455  20.293   1.314  0.00  0.00    +0.199 C 
ATOM     21  C   UNL     1     -36.340  18.186   0.025  0.00  0.00    +0.040 C 
ATOM     22  C   UNL     1     -39.103  22.972   1.360  0.00  0.00    +0.003 C 
ENDROOT
BRANCH   7  24
ATOM     23  O   UNL     1     -35.167  25.122   2.728  0.00  0.00    -0.352 OA
ATOM     24  C   UNL     1     -36.470  24.910   3.286  0.00  0.00    +0.143 C 
ATOM     25  C   UNL     1     -36.367  24.580   4.784  0.00  0.00    +0.066 C 
ATOM     26  C   UNL     1     -35.601  25.674   5.526  0.00  0.00    +0.142 C 
ATOM     27  C   UNL     1     -34.261  25.934   4.831  0.00  0.00    +0.164 C 
ATOM     28  C   UNL     1     -34.466  26.214   3.335  0.00  0.00    +0.145 C 
ATOM     29  C   UNL     1     -33.144  26.368   2.589  0.00  0.00    +0.035 C 
BRANCH  26  30
ATOM     30  O   UNL     1     -36.375  26.874   5.526  0.00  0.00    -0.382 OA
ATOM     31  H   UNL     1     -37.315  26.651   5.614  0.00  0.00    +0.210 HD
ENDBRANCH  26  30
BRANCH  27  32
ATOM     32  O   UNL     1     -33.611  27.021   5.477  0.00  0.00    -0.380 OA
ATOM     33  H   UNL     1     -34.267  27.693   5.718  0.00  0.00    +0.211 HD
ENDBRANCH  27  32
ENDBRANCH   7  24
BRANCH   4  34
ATOM     34  O   UNL     1     -40.619  15.976  -0.998  0.00  0.00    -0.386 OA
ATOM     35  H   UNL     1     -41.588  15.951  -0.946  0.00  0.00    +0.210 HD
ENDBRANCH   4  34
BRANCH  17  36
ATOM     36  O   UNL     1     -36.143  16.154  -1.167  0.00  0.00    -0.472 OA
ATOM     37  C   UNL     1     -35.087  15.815  -0.272  0.00  0.00    +0.252 C 
ENDBRANCH  17  36
BRANCH  14  38
ATOM     38  O   UNL     1     -35.215  22.447   2.736  0.00  0.00    -0.506 OA
ATOM     39  H   UNL     1     -34.521  22.946   2.352  0.00  0.00    +0.292 HD
ENDBRANCH  14  38
TORSDOF 6
ENDMDL
MODEL 8
REMARK VINA RESULT:      -7.0      2.755      9.749
REMARK  Name = 53239476
REMARK  6 active torsions:
REMARK  status: ('A' for Active; 'I' for Inactive)
REMARK    1  A    between atoms: C_4  and  O_34
REMARK    2  A    between atoms: C_7  and  C_24
REMARK    3  A    between atoms: C_14  and  O_38
REMARK    4  A    between atoms: C_17  and  O_36
REMARK    5  A    between atoms: C_26  and  O_30
REMARK    6  A    between atoms: C_27  and  O_32
REMARK                            x       y       z     vdW  Elec       q    Type
REMARK                         _______ _______ _______ _____ _____    ______ ____
ROOT
ATOM      1  O   UNL     1     -30.765  27.750   6.365  0.00  0.00    -0.291 OA
ATOM      2  O   UNL     1     -33.220  27.505   5.639  0.00  0.00    -0.287 OA
ATOM      3  O   UNL     1     -33.090  26.079   0.591  0.00  0.00    -0.286 OA
ATOM      4  C   UNL     1     -29.581  30.917   4.875  0.00  0.00    +0.100 C 
ATOM      5  C   UNL     1     -29.099  30.179   3.622  0.00  0.00    +0.057 C 
ATOM      6  C   UNL     1     -30.108  29.148   3.185  0.00  0.00    +0.017 C 
ATOM      7  C   UNL     1     -35.216  23.631   3.250  0.00  0.00    +0.038 C 
ATOM      8  C   UNL     1     -29.878  29.929   6.001  0.00  0.00    +0.096 C 
ATOM      9  C   UNL     1     -30.910  28.464   4.118  0.00  0.00    +0.037 C 
ATOM     10  C   UNL     1     -31.904  27.568   3.668  0.00  0.00    +0.045 C 
ATOM     11  C   UNL     1     -30.566  28.652   5.556  0.00  0.00    +0.175 C 
ATOM     12  C   UNL     1     -31.991  27.273   2.299  0.00  0.00    +0.045 C 
ATOM     13  C   UNL     1     -33.722  25.468   2.763  0.00  0.00    +0.075 C 
ATOM     14  C   UNL     1     -34.477  24.373   2.328  0.00  0.00    +0.135 C 
ATOM     15  C   UNL     1     -33.710  25.815   4.112  0.00  0.00    +0.045 C 
ATOM     16  C   UNL     1     -28.539  31.942   5.331  0.00  0.00    +0.030 C 
ATOM     17  C   UNL     1     -30.231  28.856   1.821  0.00  0.00    +0.135 C 
ATOM     18  C   UNL     1     -32.940  26.990   4.564  0.00  0.00    +0.196 C 
ATOM     19  C   UNL     1     -35.205  23.979   4.600  0.00  0.00    +0.001 C 
ATOM     20  C   UNL     1     -32.950  26.265   1.794  0.00  0.00    +0.199 C 
ATOM     21  C   UNL     1     -31.153  27.912   1.381  0.00  0.00    +0.040 C 
ATOM     22  C   UNL     1     -34.456  25.073   5.034  0.00  0.00    +0.003 C 
ENDROOT
BRANCH   7  24
ATOM     23  O   UNL     1     -35.182  21.521   2.115  0.00  0.00    -0.352 OA
ATOM     24  C   UNL     1     -36.038  22.439   2.807  0.00  0.00    +0.143 C 
ATOM     25  C   UNL     1     -37.207  22.871   1.907  0.00  0.00    +0.066 C 
ATOM     26  C   UNL     1     -37.974  21.651   1.397  0.00  0.00    +0.142 C 
ATOM     27  C   UNL     1     -37.002  20.656   0.757  0.00  0.00    +0.164 C 
ATOM     28  C   UNL     1     -35.852  20.318   1.717  0.00  0.00    +0.145 C 
ATOM     29  C   UNL     1     -34.806  19.415   1.072  0.00  0.00    +0.035 C 
BRANCH  26  30
ATOM     30  O   UNL     1     -38.642  21.024   2.492  0.00  0.00    -0.382 OA
ATOM     31  H   UNL     1     -37.995  20.551   3.038  0.00  0.00    +0.210 HD
ENDBRANCH  26  30
BRANCH  27  32
ATOM     32  O   UNL     1     -37.721  19.489   0.380  0.00  0.00    -0.380 OA
ATOM     33  H   UNL     1     -37.100  18.755   0.247  0.00  0.00    +0.211 HD
ENDBRANCH  27  32
ENDBRANCH   7  24
BRANCH   4  34
ATOM     34  O   UNL     1     -30.782  31.638   4.579  0.00  0.00    -0.386 OA
ATOM     35  H   UNL     1     -30.665  32.137   3.755  0.00  0.00    +0.210 HD
ENDBRANCH   4  34
BRANCH  17  36
ATOM     36  O   UNL     1     -29.442  29.469   0.891  0.00  0.00    -0.472 OA
ATOM     37  C   UNL     1     -28.595  28.630   0.111  0.00  0.00    +0.252 C 
ENDBRANCH  17  36
BRANCH  14  38
ATOM     38  O   UNL     1     -34.510  23.992   1.019  0.00  0.00    -0.506 OA
ATOM     39  H   UNL     1     -33.858  24.306   0.424  0.00  0.00    +0.292 HD
ENDBRANCH  14  38
TORSDOF 6
ENDMDL
MODEL 9
REMARK VINA RESULT:      -7.0      3.303      8.915
REMARK  Name = 53239476
REMARK  6 active torsions:
REMARK  status: ('A' for Active; 'I' for Inactive)
REMARK    1  A    between atoms: C_4  and  O_34
REMARK    2  A    between atoms: C_7  and  C_24
REMARK    3  A    between atoms: C_14  and  O_38
REMARK    4  A    between atoms: C_17  and  O_36
REMARK    5  A    between atoms: C_26  and  O_30
REMARK    6  A    between atoms: C_27  and  O_32
REMARK                            x       y       z     vdW  Elec       q    Type
REMARK                         _______ _______ _______ _____ _____    ______ ____
ROOT
ATOM      1  O   UNL     1     -36.964  32.623   1.521  0.00  0.00    -0.291 OA
ATOM      2  O   UNL     1     -36.384  30.375   0.415  0.00  0.00    -0.287 OA
ATOM      3  O   UNL     1     -32.751  28.158   3.485  0.00  0.00    -0.286 OA
ATOM      4  C   UNL     1     -34.118  34.867   0.804  0.00  0.00    +0.100 C 
ATOM      5  C   UNL     1     -33.424  34.449   2.104  0.00  0.00    +0.057 C 
ATOM      6  C   UNL     1     -33.535  32.960   2.316  0.00  0.00    +0.017 C 
ATOM      7  C   UNL     1     -36.213  25.942   2.656  0.00  0.00    +0.038 C 
ATOM      8  C   UNL     1     -35.579  34.421   0.805  0.00  0.00    +0.096 C 
ATOM      9  C   UNL     1     -34.660  32.238   1.874  0.00  0.00    +0.037 C 
ATOM     10  C   UNL     1     -34.693  30.832   2.013  0.00  0.00    +0.045 C 
ATOM     11  C   UNL     1     -35.817  33.041   1.386  0.00  0.00    +0.175 C 
ATOM     12  C   UNL     1     -33.657  30.189   2.707  0.00  0.00    +0.045 C 
ATOM     13  C   UNL     1     -34.914  27.980   2.600  0.00  0.00    +0.075 C 
ATOM     14  C   UNL     1     -35.067  26.652   3.014  0.00  0.00    +0.135 C 
ATOM     15  C   UNL     1     -35.903  28.590   1.832  0.00  0.00    +0.045 C 
ATOM     16  C   UNL     1     -34.027  36.384   0.610  0.00  0.00    +0.030 C 
ATOM     17  C   UNL     1     -32.502  32.291   2.983  0.00  0.00    +0.135 C 
ATOM     18  C   UNL     1     -35.724  29.978   1.368  0.00  0.00    +0.196 C 
ATOM     19  C   UNL     1     -37.203  26.551   1.887  0.00  0.00    +0.001 C 
ATOM     20  C   UNL     1     -33.700  28.732   2.963  0.00  0.00    +0.199 C 
ATOM     21  C   UNL     1     -32.569  30.918   3.195  0.00  0.00    +0.040 C 
ATOM     22  C   UNL     1     -37.049  27.874   1.469  0.00  0.00    +0.003 C 
ENDROOT
BRANCH   7  24
ATOM     23  O   UNL     1     -35.719  24.307   4.336  0.00  0.00    -0.352 OA
ATOM     24  C   UNL     1     -36.406  24.506   3.095  0.00  0.00    +0.143 C 
ATOM     25  C   UNL     1     -35.892  23.524   2.030  0.00  0.00    +0.066 C 
ATOM     26  C   UNL     1     -36.013  22.082   2.524  0.00  0.00    +0.142 C 
ATOM     27  C   UNL     1     -35.352  21.946   3.898  0.00  0.00    +0.164 C 
ATOM     28  C   UNL     1     -35.903  22.993   4.877  0.00  0.00    +0.145 C 
ATOM     29  C   UNL     1     -35.187  22.958   6.224  0.00  0.00    +0.035 C 
BRANCH  26  30
ATOM     30  O   UNL     1     -37.394  21.733   2.625  0.00  0.00    -0.382 OA
ATOM     31  H   UNL     1     -37.920  22.337   2.077  0.00  0.00    +0.210 HD
ENDBRANCH  26  30
BRANCH  27  32
ATOM     32  O   UNL     1     -35.562  20.625   4.381  0.00  0.00    -0.380 OA
ATOM     33  H   UNL     1     -36.511  20.422   4.366  0.00  0.00    +0.211 HD
ENDBRANCH  27  32
ENDBRANCH   7  24
BRANCH   4  34
ATOM     34  O   UNL     1     -33.461  34.258  -0.312  0.00  0.00    -0.386 OA
ATOM     35  H   UNL     1     -33.025  34.942  -0.845  0.00  0.00    +0.210 HD
ENDBRANCH   4  34
BRANCH  17  36
ATOM     36  O   UNL     1     -31.415  32.965   3.461  0.00  0.00    -0.472 OA
ATOM     37  C   UNL     1     -30.360  32.179   4.010  0.00  0.00    +0.252 C 
ENDBRANCH  17  36
BRANCH  14  38
ATOM     38  O   UNL     1     -34.128  26.020   3.776  0.00  0.00    -0.506 OA
ATOM     39  H   UNL     1     -34.188  25.096   3.921  0.00  0.00    +0.292 HD
ENDBRANCH  14  38
TORSDOF 6
ENDMDL
