MODEL 1
REMARK VINA RESULT:      -7.1      0.000      0.000
REMARK  Name = 190821
REMARK  2 active torsions:
REMARK  status: ('A' for Active; 'I' for Inactive)
REMARK    1  A    between atoms: C_11  and  O_26
REMARK    2  A    between atoms: C_12  and  O_28
REMARK                            x       y       z     vdW  Elec       q    Type
REMARK                         _______ _______ _______ _____ _____    ______ ____
ROOT
ATOM      1  O   UNL     1     -37.465  23.543   4.008  0.00  0.00    -0.339 OA
ATOM      2  O   UNL     1     -34.795  23.986   4.211  0.00  0.00    -0.344 OA
ATOM      3  O   UNL     1     -35.657  21.786   2.477  0.00  0.00    -0.444 OA
ATOM      4  O   UNL     1     -35.863  23.506   0.707  0.00  0.00    -0.444 OA
ATOM      5  O   UNL     1     -38.282  21.719   1.349  0.00  0.00    -0.289 OA
ATOM      6  C   UNL     1     -37.568  24.811   3.331  0.00  0.00    +0.185 C 
ATOM      7  C   UNL     1     -37.300  23.506   2.579  0.00  0.00    +0.247 C 
ATOM      8  C   UNL     1     -35.870  23.171   2.114  0.00  0.00    +0.329 C 
ATOM      9  C   UNL     1     -34.779  23.986   2.774  0.00  0.00    +0.224 C 
ATOM     10  C   UNL     1     -35.063  25.231   3.550  0.00  0.00    +0.179 C 
ATOM     11  C   UNL     1     -36.449  25.759   3.704  0.00  0.00    +0.171 C 
ATOM     12  C   UNL     1     -38.977  25.368   3.334  0.00  0.00    +0.163 C 
ATOM     13  C   UNL     1     -38.445  22.790   1.924  0.00  0.00    +0.207 C 
ATOM     14  C   UNL     1     -40.015  24.547   2.634  0.00  0.00    +0.008 C 
ATOM     15  C   UNL     1     -39.790  23.397   1.995  0.00  0.00    +0.038 C 
ATOM     16  C   UNL     1     -34.821  21.091   1.653  0.00  0.00    +0.145 C 
ATOM     17  C   UNL     1     -35.030  22.754  -0.069  0.00  0.00    +0.145 C 
ATOM     18  C   UNL     1     -34.495  21.555   0.385  0.00  0.00    +0.068 C 
ATOM     19  C   UNL     1     -34.321  19.875   2.115  0.00  0.00    +0.037 C 
ATOM     20  C   UNL     1     -34.745  23.218  -1.352  0.00  0.00    +0.037 C 
ATOM     21  C   UNL     1     -33.642  20.797  -0.450  0.00  0.00    +0.006 C 
ATOM     22  C   UNL     1     -33.471  19.125   1.304  0.00  0.00    +0.003 C 
ATOM     23  C   UNL     1     -33.899  22.484  -2.181  0.00  0.00    +0.003 C 
ATOM     24  C   UNL     1     -33.131  19.582   0.030  0.00  0.00    +0.000 C 
ATOM     25  C   UNL     1     -33.347  21.282  -1.734  0.00  0.00    +0.000 C 
ENDROOT
BRANCH  11  26
ATOM     26  O   UNL     1     -36.610  26.184   5.058  0.00  0.00    -0.379 OA
ATOM     27  H   UNL     1     -37.433  25.817   5.417  0.00  0.00    +0.211 HD
ENDBRANCH  11  26
BRANCH  12  28
ATOM     28  O   UNL     1     -38.989  26.665   2.732  0.00  0.00    -0.377 OA
ATOM     29  H   UNL     1     -38.515  27.291   3.302  0.00  0.00    +0.211 HD
ENDBRANCH  12  28
TORSDOF 2
ENDMDL
MODEL 2
REMARK VINA RESULT:      -6.9      2.634      5.430
REMARK  Name = 190821
REMARK  2 active torsions:
REMARK  status: ('A' for Active; 'I' for Inactive)
REMARK    1  A    between atoms: C_11  and  O_26
REMARK    2  A    between atoms: C_12  and  O_28
REMARK                            x       y       z     vdW  Elec       q    Type
REMARK                         _______ _______ _______ _____ _____    ______ ____
ROOT
ATOM      1  O   UNL     1     -32.709  25.618   3.515  0.00  0.00    -0.339 OA
ATOM      2  O   UNL     1     -33.512  25.483   0.925  0.00  0.00    -0.344 OA
ATOM      3  O   UNL     1     -34.992  23.865   2.871  0.00  0.00    -0.444 OA
ATOM      4  O   UNL     1     -36.358  25.896   3.244  0.00  0.00    -0.444 OA
ATOM      5  O   UNL     1     -35.015  24.528   5.650  0.00  0.00    -0.289 OA
ATOM      6  C   UNL     1     -33.160  26.987   3.525  0.00  0.00    +0.185 C 
ATOM      7  C   UNL     1     -34.086  25.821   3.880  0.00  0.00    +0.247 C 
ATOM      8  C   UNL     1     -35.100  25.308   2.840  0.00  0.00    +0.329 C 
ATOM      9  C   UNL     1     -34.834  25.753   1.418  0.00  0.00    +0.224 C 
ATOM     10  C   UNL     1     -33.886  26.859   1.085  0.00  0.00    +0.179 C 
ATOM     11  C   UNL     1     -33.155  27.609   2.145  0.00  0.00    +0.171 C 
ATOM     12  C   UNL     1     -32.555  27.798   4.653  0.00  0.00    +0.163 C 
ATOM     13  C   UNL     1     -34.317  25.482   5.323  0.00  0.00    +0.207 C 
ATOM     14  C   UNL     1     -32.878  27.344   6.042  0.00  0.00    +0.008 C 
ATOM     15  C   UNL     1     -33.669  26.316   6.356  0.00  0.00    +0.038 C 
ATOM     16  C   UNL     1     -36.141  23.189   2.583  0.00  0.00    +0.145 C 
ATOM     17  C   UNL     1     -37.468  25.157   2.958  0.00  0.00    +0.145 C 
ATOM     18  C   UNL     1     -37.382  23.812   2.619  0.00  0.00    +0.068 C 
ATOM     19  C   UNL     1     -36.036  21.833   2.278  0.00  0.00    +0.037 C 
ATOM     20  C   UNL     1     -38.707  25.791   3.036  0.00  0.00    +0.037 C 
ATOM     21  C   UNL     1     -38.554  23.075   2.337  0.00  0.00    +0.006 C 
ATOM     22  C   UNL     1     -37.184  21.099   1.987  0.00  0.00    +0.003 C 
ATOM     23  C   UNL     1     -39.869  25.076   2.751  0.00  0.00    +0.003 C 
ATOM     24  C   UNL     1     -38.436  21.714   2.014  0.00  0.00    +0.000 C 
ATOM     25  C   UNL     1     -39.796  23.726   2.401  0.00  0.00    +0.000 C 
ENDROOT
BRANCH  11  26
ATOM     26  O   UNL     1     -31.808  27.792   1.706  0.00  0.00    -0.379 OA
ATOM     27  H   UNL     1     -31.806  28.057   0.773  0.00  0.00    +0.211 HD
ENDBRANCH  11  26
BRANCH  12  28
ATOM     28  O   UNL     1     -32.970  29.163   4.549  0.00  0.00    -0.377 OA
ATOM     29  H   UNL     1     -33.914  29.197   4.326  0.00  0.00    +0.211 HD
ENDBRANCH  12  28
TORSDOF 2
ENDMDL
MODEL 3
REMARK VINA RESULT:      -6.9      2.457      5.370
REMARK  Name = 190821
REMARK  2 active torsions:
REMARK  status: ('A' for Active; 'I' for Inactive)
REMARK    1  A    between atoms: C_11  and  O_26
REMARK    2  A    between atoms: C_12  and  O_28
REMARK                            x       y       z     vdW  Elec       q    Type
REMARK                         _______ _______ _______ _____ _____    ______ ____
ROOT
ATOM      1  O   UNL     1     -34.788  27.788   3.807  0.00  0.00    -0.339 OA
ATOM      2  O   UNL     1     -35.717  26.250   5.842  0.00  0.00    -0.344 OA
ATOM      3  O   UNL     1     -36.915  25.837   3.198  0.00  0.00    -0.444 OA
ATOM      4  O   UNL     1     -35.040  24.269   2.797  0.00  0.00    -0.444 OA
ATOM      5  O   UNL     1     -35.531  26.561   0.805  0.00  0.00    -0.289 OA
ATOM      6  C   UNL     1     -33.533  27.089   3.925  0.00  0.00    +0.185 C 
ATOM      7  C   UNL     1     -34.663  26.588   3.023  0.00  0.00    +0.247 C 
ATOM      8  C   UNL     1     -35.559  25.427   3.493  0.00  0.00    +0.329 C 
ATOM      9  C   UNL     1     -35.487  25.127   4.975  0.00  0.00    +0.224 C 
ATOM     10  C   UNL     1     -34.405  25.668   5.853  0.00  0.00    +0.179 C 
ATOM     11  C   UNL     1     -33.313  26.525   5.312  0.00  0.00    +0.171 C 
ATOM     12  C   UNL     1     -32.379  27.838   3.290  0.00  0.00    +0.163 C 
ATOM     13  C   UNL     1     -34.624  26.904   1.557  0.00  0.00    +0.207 C 
ATOM     14  C   UNL     1     -32.475  28.076   1.815  0.00  0.00    +0.008 C 
ATOM     15  C   UNL     1     -33.469  27.659   1.028  0.00  0.00    +0.038 C 
ATOM     16  C   UNL     1     -37.778  24.823   2.903  0.00  0.00    +0.145 C 
ATOM     17  C   UNL     1     -35.960  23.306   2.501  0.00  0.00    +0.145 C 
ATOM     18  C   UNL     1     -37.325  23.558   2.555  0.00  0.00    +0.068 C 
ATOM     19  C   UNL     1     -39.143  25.106   2.930  0.00  0.00    +0.037 C 
ATOM     20  C   UNL     1     -35.484  22.052   2.118  0.00  0.00    +0.037 C 
ATOM     21  C   UNL     1     -38.248  22.537   2.233  0.00  0.00    +0.006 C 
ATOM     22  C   UNL     1     -40.063  24.105   2.625  0.00  0.00    +0.003 C 
ATOM     23  C   UNL     1     -36.385  21.035   1.807  0.00  0.00    +0.003 C 
ATOM     24  C   UNL     1     -39.621  22.827   2.280  0.00  0.00    +0.000 C 
ATOM     25  C   UNL     1     -37.760  21.273   1.866  0.00  0.00    +0.000 C 
ENDROOT
BRANCH  11  26
ATOM     26  O   UNL     1     -33.093  27.593   6.235  0.00  0.00    -0.379 OA
ATOM     27  H   UNL     1     -33.718  28.312   6.053  0.00  0.00    +0.211 HD
ENDBRANCH  11  26
BRANCH  12  28
ATOM     28  O   UNL     1     -31.155  27.137   3.525  0.00  0.00    -0.377 OA
ATOM     29  H   UNL     1     -30.846  27.320   4.426  0.00  0.00    +0.211 HD
ENDBRANCH  12  28
TORSDOF 2
ENDMDL
MODEL 4
REMARK VINA RESULT:      -6.8      2.378      5.168
REMARK  Name = 190821
REMARK  2 active torsions:
REMARK  status: ('A' for Active; 'I' for Inactive)
REMARK    1  A    between atoms: C_11  and  O_26
REMARK    2  A    between atoms: C_12  and  O_28
REMARK                            x       y       z     vdW  Elec       q    Type
REMARK                         _______ _______ _______ _____ _____    ______ ____
ROOT
ATOM      1  O   UNL     1     -37.360  22.418   0.191  0.00  0.00    -0.339 OA
ATOM      2  O   UNL     1     -35.066  21.327   1.147  0.00  0.00    -0.344 OA
ATOM      3  O   UNL     1     -35.292  24.248   1.227  0.00  0.00    -0.444 OA
ATOM      4  O   UNL     1     -36.421  23.916   3.407  0.00  0.00    -0.444 OA
ATOM      5  O   UNL     1     -37.839  25.546   1.217  0.00  0.00    -0.289 OA
ATOM      6  C   UNL     1     -38.047  21.811   1.304  0.00  0.00    +0.185 C 
ATOM      7  C   UNL     1     -37.427  23.207   1.393  0.00  0.00    +0.247 C 
ATOM      8  C   UNL     1     -36.072  23.398   2.101  0.00  0.00    +0.329 C 
ATOM      9  C   UNL     1     -35.284  22.126   2.321  0.00  0.00    +0.224 C 
ATOM     10  C   UNL     1     -35.891  20.768   2.178  0.00  0.00    +0.179 C 
ATOM     11  C   UNL     1     -37.329  20.586   1.829  0.00  0.00    +0.171 C 
ATOM     12  C   UNL     1     -39.541  21.696   1.083  0.00  0.00    +0.163 C 
ATOM     13  C   UNL     1     -38.302  24.410   1.199  0.00  0.00    +0.207 C 
ATOM     14  C   UNL     1     -40.286  22.983   0.911  0.00  0.00    +0.008 C 
ATOM     15  C   UNL     1     -39.746  24.203   0.968  0.00  0.00    +0.038 C 
ATOM     16  C   UNL     1     -34.399  25.065   1.856  0.00  0.00    +0.145 C 
ATOM     17  C   UNL     1     -35.501  24.753   3.968  0.00  0.00    +0.145 C 
ATOM     18  C   UNL     1     -34.484  25.328   3.217  0.00  0.00    +0.068 C 
ATOM     19  C   UNL     1     -33.406  25.659   1.079  0.00  0.00    +0.037 C 
ATOM     20  C   UNL     1     -35.626  25.034   5.328  0.00  0.00    +0.037 C 
ATOM     21  C   UNL     1     -33.554  26.198   3.831  0.00  0.00    +0.006 C 
ATOM     22  C   UNL     1     -32.477  26.509   1.675  0.00  0.00    +0.003 C 
ATOM     23  C   UNL     1     -34.709  25.883   5.946  0.00  0.00    +0.003 C 
ATOM     24  C   UNL     1     -32.547  26.777   3.043  0.00  0.00    +0.000 C 
ATOM     25  C   UNL     1     -33.677  26.461   5.204  0.00  0.00    +0.000 C 
ENDROOT
BRANCH  11  26
ATOM     26  O   UNL     1     -37.419  19.529   0.872  0.00  0.00    -0.379 OA
ATOM     27  H   UNL     1     -37.434  18.676   1.333  0.00  0.00    +0.211 HD
ENDBRANCH  11  26
BRANCH  12  28
ATOM     28  O   UNL     1     -40.144  21.004   2.179  0.00  0.00    -0.377 OA
ATOM     29  H   UNL     1     -39.521  20.347   2.528  0.00  0.00    +0.211 HD
ENDBRANCH  12  28
TORSDOF 2
ENDMDL
MODEL 5
REMARK VINA RESULT:      -6.8      2.459      3.935
REMARK  Name = 190821
REMARK  2 active torsions:
REMARK  status: ('A' for Active; 'I' for Inactive)
REMARK    1  A    between atoms: C_11  and  O_26
REMARK    2  A    between atoms: C_12  and  O_28
REMARK                            x       y       z     vdW  Elec       q    Type
REMARK                         _______ _______ _______ _____ _____    ______ ____
ROOT
ATOM      1  O   UNL     1     -38.563  26.968   2.221  0.00  0.00    -0.339 OA
ATOM      2  O   UNL     1     -35.861  26.976   1.958  0.00  0.00    -0.344 OA
ATOM      3  O   UNL     1     -37.039  24.856   3.605  0.00  0.00    -0.444 OA
ATOM      4  O   UNL     1     -37.295  23.604   1.484  0.00  0.00    -0.444 OA
ATOM      5  O   UNL     1     -39.759  24.047   3.271  0.00  0.00    -0.289 OA
ATOM      6  C   UNL     1     -38.643  26.644   0.819  0.00  0.00    +0.185 C 
ATOM      7  C   UNL     1     -38.541  25.566   1.900  0.00  0.00    +0.247 C 
ATOM      8  C   UNL     1     -37.189  24.876   2.166  0.00  0.00    +0.329 C 
ATOM      9  C   UNL     1     -35.986  25.592   1.593  0.00  0.00    +0.224 C 
ATOM     10  C   UNL     1     -36.106  26.680   0.576  0.00  0.00    +0.179 C 
ATOM     11  C   UNL     1     -37.430  27.114   0.046  0.00  0.00    +0.171 C 
ATOM     12  C   UNL     1     -40.003  26.942   0.221  0.00  0.00    +0.163 C 
ATOM     13  C   UNL     1     -39.790  24.884   2.375  0.00  0.00    +0.207 C 
ATOM     14  C   UNL     1     -41.158  26.180   0.792  0.00  0.00    +0.008 C 
ATOM     15  C   UNL     1     -41.077  25.254   1.750  0.00  0.00    +0.038 C 
ATOM     16  C   UNL     1     -36.336  23.798   4.102  0.00  0.00    +0.145 C 
ATOM     17  C   UNL     1     -36.596  22.578   2.048  0.00  0.00    +0.145 C 
ATOM     18  C   UNL     1     -36.104  22.657   3.345  0.00  0.00    +0.068 C 
ATOM     19  C   UNL     1     -35.880  23.883   5.416  0.00  0.00    +0.037 C 
ATOM     20  C   UNL     1     -36.405  21.427   1.285  0.00  0.00    +0.037 C 
ATOM     21  C   UNL     1     -35.391  21.570   3.901  0.00  0.00    +0.006 C 
ATOM     22  C   UNL     1     -35.167  22.822   5.971  0.00  0.00    +0.003 C 
ATOM     23  C   UNL     1     -35.696  20.352   1.819  0.00  0.00    +0.003 C 
ATOM     24  C   UNL     1     -34.921  21.672   5.219  0.00  0.00    +0.000 C 
ATOM     25  C   UNL     1     -35.189  20.422   3.119  0.00  0.00    +0.000 C 
ENDROOT
BRANCH  11  26
ATOM     26  O   UNL     1     -37.429  28.540  -0.027  0.00  0.00    -0.379 OA
ATOM     27  H   UNL     1     -38.339  28.868   0.036  0.00  0.00    +0.211 HD
ENDBRANCH  11  26
BRANCH  12  28
ATOM     28  O   UNL     1     -39.984  26.686  -1.185  0.00  0.00    -0.377 OA
ATOM     29  H   UNL     1     -39.516  25.853  -1.356  0.00  0.00    +0.211 HD
ENDBRANCH  12  28
TORSDOF 2
ENDMDL
MODEL 6
REMARK VINA RESULT:      -6.7      3.067      4.558
REMARK  Name = 190821
REMARK  2 active torsions:
REMARK  status: ('A' for Active; 'I' for Inactive)
REMARK    1  A    between atoms: C_11  and  O_26
REMARK    2  A    between atoms: C_12  and  O_28
REMARK                            x       y       z     vdW  Elec       q    Type
REMARK                         _______ _______ _______ _____ _____    ______ ____
ROOT
ATOM      1  O   UNL     1     -34.855  27.978   2.857  0.00  0.00    -0.339 OA
ATOM      2  O   UNL     1     -32.569  26.682   3.534  0.00  0.00    -0.344 OA
ATOM      3  O   UNL     1     -35.097  25.288   4.041  0.00  0.00    -0.444 OA
ATOM      4  O   UNL     1     -34.916  24.496   1.702  0.00  0.00    -0.444 OA
ATOM      5  O   UNL     1     -37.476  25.945   2.601  0.00  0.00    -0.289 OA
ATOM      6  C   UNL     1     -34.456  27.848   1.479  0.00  0.00    +0.185 C 
ATOM      7  C   UNL     1     -35.282  26.775   2.192  0.00  0.00    +0.247 C 
ATOM      8  C   UNL     1     -34.595  25.493   2.700  0.00  0.00    +0.329 C 
ATOM      9  C   UNL     1     -33.086  25.571   2.785  0.00  0.00    +0.224 C 
ATOM     10  C   UNL     1     -32.297  26.656   2.125  0.00  0.00    +0.179 C 
ATOM     11  C   UNL     1     -32.956  27.723   1.320  0.00  0.00    +0.171 C 
ATOM     12  C   UNL     1     -35.171  28.821   0.563  0.00  0.00    +0.163 C 
ATOM     13  C   UNL     1     -36.771  26.758   2.013  0.00  0.00    +0.207 C 
ATOM     14  C   UNL     1     -36.658  28.680   0.479  0.00  0.00    +0.008 C 
ATOM     15  C   UNL     1     -37.385  27.759   1.116  0.00  0.00    +0.038 C 
ATOM     16  C   UNL     1     -35.182  23.985   4.437  0.00  0.00    +0.145 C 
ATOM     17  C   UNL     1     -35.020  23.218   2.166  0.00  0.00    +0.145 C 
ATOM     18  C   UNL     1     -35.145  22.941   3.522  0.00  0.00    +0.068 C 
ATOM     19  C   UNL     1     -35.341  23.731   5.798  0.00  0.00    +0.037 C 
ATOM     20  C   UNL     1     -35.018  22.186   1.229  0.00  0.00    +0.037 C 
ATOM     21  C   UNL     1     -35.260  21.604   3.966  0.00  0.00    +0.006 C 
ATOM     22  C   UNL     1     -35.444  22.416   6.248  0.00  0.00    +0.003 C 
ATOM     23  C   UNL     1     -35.122  20.863   1.655  0.00  0.00    +0.003 C 
ATOM     24  C   UNL     1     -35.402  21.357   5.340  0.00  0.00    +0.000 C 
ATOM     25  C   UNL     1     -35.239  20.571   3.016  0.00  0.00    +0.000 C 
ENDROOT
BRANCH  11  26
ATOM     26  O   UNL     1     -32.333  28.967   1.645  0.00  0.00    -0.379 OA
ATOM     27  H   UNL     1     -31.780  28.855   2.434  0.00  0.00    +0.211 HD
ENDBRANCH  11  26
BRANCH  12  28
ATOM     28  O   UNL     1     -34.660  28.701  -0.768  0.00  0.00    -0.377 OA
ATOM     29  H   UNL     1     -34.223  29.530  -1.022  0.00  0.00    +0.211 HD
ENDBRANCH  12  28
TORSDOF 2
ENDMDL
MODEL 7
REMARK VINA RESULT:      -6.7      2.785      5.962
REMARK  Name = 190821
REMARK  2 active torsions:
REMARK  status: ('A' for Active; 'I' for Inactive)
REMARK    1  A    between atoms: C_11  and  O_26
REMARK    2  A    between atoms: C_12  and  O_28
REMARK                            x       y       z     vdW  Elec       q    Type
REMARK                         _______ _______ _______ _____ _____    ______ ____
ROOT
ATOM      1  O   UNL     1     -35.869  20.423  -0.858  0.00  0.00    -0.339 OA
ATOM      2  O   UNL     1     -33.344  20.391   0.138  0.00  0.00    -0.344 OA
ATOM      3  O   UNL     1     -35.059  22.639   0.912  0.00  0.00    -0.444 OA
ATOM      4  O   UNL     1     -35.854  21.163   2.736  0.00  0.00    -0.444 OA
ATOM      5  O   UNL     1     -37.908  22.435   0.832  0.00  0.00    -0.289 OA
ATOM      6  C   UNL     1     -36.141  19.258  -0.054  0.00  0.00    +0.185 C 
ATOM      7  C   UNL     1     -36.339  20.679   0.478  0.00  0.00    +0.247 C 
ATOM      8  C   UNL     1     -35.284  21.299   1.413  0.00  0.00    +0.329 C 
ATOM      9  C   UNL     1     -33.949  20.589   1.426  0.00  0.00    +0.224 C 
ATOM     10  C   UNL     1     -33.760  19.220   0.855  0.00  0.00    +0.179 C 
ATOM     11  C   UNL     1     -34.891  18.460   0.252  0.00  0.00    +0.171 C 
ATOM     12  C   UNL     1     -37.357  18.486  -0.526  0.00  0.00    +0.163 C 
ATOM     13  C   UNL     1     -37.712  21.283   0.458  0.00  0.00    +0.207 C 
ATOM     14  C   UNL     1     -38.662  19.217  -0.483  0.00  0.00    +0.008 C 
ATOM     15  C   UNL     1     -38.837  20.464  -0.039  0.00  0.00    +0.038 C 
ATOM     16  C   UNL     1     -34.723  23.564   1.857  0.00  0.00    +0.145 C 
ATOM     17  C   UNL     1     -35.506  22.138   3.625  0.00  0.00    +0.145 C 
ATOM     18  C   UNL     1     -34.936  23.335   3.210  0.00  0.00    +0.068 C 
ATOM     19  C   UNL     1     -34.183  24.771   1.417  0.00  0.00    +0.037 C 
ATOM     20  C   UNL     1     -35.761  21.904   4.976  0.00  0.00    +0.037 C 
ATOM     21  C   UNL     1     -34.596  24.326   4.159  0.00  0.00    +0.006 C 
ATOM     22  C   UNL     1     -33.834  25.751   2.344  0.00  0.00    +0.003 C 
ATOM     23  C   UNL     1     -35.423  22.871   5.921  0.00  0.00    +0.003 C 
ATOM     24  C   UNL     1     -34.036  25.531   3.707  0.00  0.00    +0.000 C 
ATOM     25  C   UNL     1     -34.841  24.074   5.518  0.00  0.00    +0.000 C 
ENDROOT
BRANCH  11  26
ATOM     26  O   UNL     1     -34.416  17.835  -0.941  0.00  0.00    -0.379 OA
ATOM     27  H   UNL     1     -35.112  17.269  -1.309  0.00  0.00    +0.211 HD
ENDBRANCH  11  26
BRANCH  12  28
ATOM     28  O   UNL     1     -37.513  17.298   0.255  0.00  0.00    -0.377 OA
ATOM     29  H   UNL     1     -37.987  16.630  -0.265  0.00  0.00    +0.211 HD
ENDBRANCH  12  28
TORSDOF 2
ENDMDL
MODEL 8
REMARK VINA RESULT:      -6.5      4.319      7.098
REMARK  Name = 190821
REMARK  2 active torsions:
REMARK  status: ('A' for Active; 'I' for Inactive)
REMARK    1  A    between atoms: C_11  and  O_26
REMARK    2  A    between atoms: C_12  and  O_28
REMARK                            x       y       z     vdW  Elec       q    Type
REMARK                         _______ _______ _______ _____ _____    ______ ____
ROOT
ATOM      1  O   UNL     1     -35.905  27.182   4.496  0.00  0.00    -0.339 OA
ATOM      2  O   UNL     1     -35.484  29.110   2.632  0.00  0.00    -0.344 OA
ATOM      3  O   UNL     1     -33.333  28.624   4.564  0.00  0.00    -0.444 OA
ATOM      4  O   UNL     1     -32.572  26.866   2.994  0.00  0.00    -0.444 OA
ATOM      5  O   UNL     1     -33.097  26.127   5.934  0.00  0.00    -0.289 OA
ATOM      6  C   UNL     1     -35.872  26.218   3.425  0.00  0.00    +0.185 C 
ATOM      7  C   UNL     1     -34.608  26.652   4.169  0.00  0.00    +0.247 C 
ATOM      8  C   UNL     1     -33.652  27.672   3.521  0.00  0.00    +0.329 C 
ATOM      9  C   UNL     1     -34.238  28.447   2.362  0.00  0.00    +0.224 C 
ATOM     10  C   UNL     1     -35.504  28.038   1.679  0.00  0.00    +0.179 C 
ATOM     11  C   UNL     1     -36.257  26.820   2.091  0.00  0.00    +0.171 C 
ATOM     12  C   UNL     1     -36.514  24.897   3.800  0.00  0.00    +0.163 C 
ATOM     13  C   UNL     1     -34.081  25.794   5.281  0.00  0.00    +0.207 C 
ATOM     14  C   UNL     1     -35.875  24.147   4.926  0.00  0.00    +0.008 C 
ATOM     15  C   UNL     1     -34.784  24.532   5.592  0.00  0.00    +0.038 C 
ATOM     16  C   UNL     1     -32.093  29.185   4.480  0.00  0.00    +0.145 C 
ATOM     17  C   UNL     1     -31.350  27.472   2.968  0.00  0.00    +0.145 C 
ATOM     18  C   UNL     1     -31.093  28.629   3.692  0.00  0.00    +0.068 C 
ATOM     19  C   UNL     1     -31.845  30.326   5.241  0.00  0.00    +0.037 C 
ATOM     20  C   UNL     1     -30.349  26.878   2.200  0.00  0.00    +0.037 C 
ATOM     21  C   UNL     1     -29.812  29.224   3.647  0.00  0.00    +0.006 C 
ATOM     22  C   UNL     1     -30.589  30.928   5.196  0.00  0.00    +0.003 C 
ATOM     23  C   UNL     1     -29.084  27.461   2.141  0.00  0.00    +0.003 C 
ATOM     24  C   UNL     1     -29.578  30.384   4.403  0.00  0.00    +0.000 C 
ATOM     25  C   UNL     1     -28.816  28.629   2.858  0.00  0.00    +0.000 C 
ENDROOT
BRANCH  11  26
ATOM     26  O   UNL     1     -37.649  27.143   2.094  0.00  0.00    -0.379 OA
ATOM     27  H   UNL     1     -37.840  27.741   2.833  0.00  0.00    +0.211 HD
ENDBRANCH  11  26
BRANCH  12  28
ATOM     28  O   UNL     1     -36.530  24.024   2.668  0.00  0.00    -0.377 OA
ATOM     29  H   UNL     1     -37.342  23.494   2.680  0.00  0.00    +0.211 HD
ENDBRANCH  12  28
TORSDOF 2
ENDMDL
MODEL 9
REMARK VINA RESULT:      -6.5      3.532      5.897
REMARK  Name = 190821
REMARK  2 active torsions:
REMARK  status: ('A' for Active; 'I' for Inactive)
REMARK    1  A    between atoms: C_11  and  O_26
REMARK    2  A    between atoms: C_12  and  O_28
REMARK                            x       y       z     vdW  Elec       q    Type
REMARK                         _______ _______ _______ _____ _____    ______ ____
ROOT
ATOM      1  O   UNL     1     -34.916  24.959   2.525  0.00  0.00    -0.339 OA
ATOM      2  O   UNL     1     -35.727  26.912   0.825  0.00  0.00    -0.344 OA
ATOM      3  O   UNL     1     -37.530  24.631   1.201  0.00  0.00    -0.444 OA
ATOM      4  O   UNL     1     -38.411  25.885   3.147  0.00  0.00    -0.444 OA
ATOM      5  O   UNL     1     -37.406  23.006   3.548  0.00  0.00    -0.289 OA
ATOM      6  C   UNL     1     -35.050  25.912   3.597  0.00  0.00    +0.185 C 
ATOM      7  C   UNL     1     -36.213  25.026   3.144  0.00  0.00    +0.247 C 
ATOM      8  C   UNL     1     -37.315  25.613   2.242  0.00  0.00    +0.329 C 
ATOM      9  C   UNL     1     -36.957  26.920   1.568  0.00  0.00    +0.224 C 
ATOM     10  C   UNL     1     -35.786  27.748   1.989  0.00  0.00    +0.179 C 
ATOM     11  C   UNL     1     -34.907  27.342   3.122  0.00  0.00    +0.171 C 
ATOM     12  C   UNL     1     -34.281  25.515   4.841  0.00  0.00    +0.163 C 
ATOM     13  C   UNL     1     -36.513  23.768   3.903  0.00  0.00    +0.207 C 
ATOM     14  C   UNL     1     -34.697  24.236   5.496  0.00  0.00    +0.008 C 
ATOM     15  C   UNL     1     -35.697  23.449   5.093  0.00  0.00    +0.038 C 
ATOM     16  C   UNL     1     -38.801  24.575   0.709  0.00  0.00    +0.145 C 
ATOM     17  C   UNL     1     -39.657  25.780   2.603  0.00  0.00    +0.145 C 
ATOM     18  C   UNL     1     -39.872  25.140   1.388  0.00  0.00    +0.068 C 
ATOM     19  C   UNL     1     -39.000  23.900  -0.494  0.00  0.00    +0.037 C 
ATOM     20  C   UNL     1     -40.725  26.322   3.318  0.00  0.00    +0.037 C 
ATOM     21  C   UNL     1     -41.180  25.043   0.859  0.00  0.00    +0.006 C 
ATOM     22  C   UNL     1     -40.283  23.807  -1.031  0.00  0.00    +0.003 C 
ATOM     23  C   UNL     1     -42.017  26.239   2.802  0.00  0.00    +0.003 C 
ATOM     24  C   UNL     1     -41.367  24.375  -0.362  0.00  0.00    +0.000 C 
ATOM     25  C   UNL     1     -42.245  25.606   1.578  0.00  0.00    +0.000 C 
ENDROOT
BRANCH  11  26
ATOM     26  O   UNL     1     -33.553  27.587   2.738  0.00  0.00    -0.379 OA
ATOM     27  H   UNL     1     -33.310  28.496   2.973  0.00  0.00    +0.211 HD
ENDBRANCH  11  26
BRANCH  12  28
ATOM     28  O   UNL     1     -34.382  26.546   5.826  0.00  0.00    -0.377 OA
ATOM     29  H   UNL     1     -34.817  27.322   5.439  0.00  0.00    +0.211 HD
ENDBRANCH  12  28
TORSDOF 2
ENDMDL
