MODEL 1
REMARK VINA RESULT:      -5.7      0.000      0.000
REMARK  Name = 20098471
REMARK  8 active torsions:
REMARK  status: ('A' for Active; 'I' for Inactive)
REMARK    1  A    between atoms: C_1  and  O_7
REMARK    2  A    between atoms: C_2  and  O_14
REMARK    3  A    between atoms: O_7  and  P_8
REMARK    4  A    between atoms: P_8  and  O_10
REMARK    5  A    between atoms: P_8  and  O_12
REMARK    6  A    between atoms: O_14  and  P_15
REMARK    7  A    between atoms: P_15  and  O_17
REMARK    8  A    between atoms: P_15  and  O_19
REMARK                            x       y       z     vdW  Elec       q    Type
REMARK                         _______ _______ _______ _____ _____    ______ ____
ROOT
ATOM      1  C   UNL     1     -35.402  21.561   3.990  0.00  0.00    +0.152 C 
ATOM      2  C   UNL     1     -35.483  23.870   4.698  0.00  0.00    +0.152 C 
ATOM      3  C   UNL     1     -35.516  22.917   3.680  0.00  0.00    +0.075 C 
ATOM      4  C   UNL     1     -35.254  21.159   5.318  0.00  0.00    +0.038 C 
ATOM      5  C   UNL     1     -35.336  23.468   6.026  0.00  0.00    +0.038 C 
ATOM      6  C   UNL     1     -35.221  22.114   6.335  0.00  0.00    +0.006 C 
ENDROOT
BRANCH   1   7
ATOM      7  O   UNL     1     -35.434  20.631   2.997  0.00  0.00    -0.403 OA
BRANCH   7   8
ATOM      8  P   UNL     1     -36.500  20.602   1.779  0.00  0.00    +0.528 P 
ATOM      9  O   UNL     1     -36.187  21.517   0.631  0.00  0.00    -0.216 OA
BRANCH   8  10
ATOM     10  O   UNL     1     -36.633  19.032   1.409  0.00  0.00    -0.293 OA
ATOM     11  H   UNL     1     -36.518  18.915   0.454  0.00  0.00    +0.223 HD
ENDBRANCH   8  10
BRANCH   8  12
ATOM     12  O   UNL     1     -37.901  20.919   2.523  0.00  0.00    -0.293 OA
ATOM     13  H   UNL     1     -38.590  21.080   1.860  0.00  0.00    +0.223 HD
ENDBRANCH   8  12
ENDBRANCH   7   8
ENDBRANCH   1   7
BRANCH   2  14
ATOM     14  O   UNL     1     -35.595  25.192   4.396  0.00  0.00    -0.403 OA
BRANCH  14  15
ATOM     15  P   UNL     1     -34.374  26.257   4.397  0.00  0.00    +0.528 P 
ATOM     16  O   UNL     1     -33.137  25.814   3.673  0.00  0.00    -0.216 OA
BRANCH  15  17
ATOM     17  O   UNL     1     -35.046  27.627   3.862  0.00  0.00    -0.293 OA
ATOM     18  H   UNL     1     -34.557  28.387   4.215  0.00  0.00    +0.223 HD
ENDBRANCH  15  17
BRANCH  15  19
ATOM     19  O   UNL     1     -34.158  26.551   5.974  0.00  0.00    -0.293 OA
ATOM     20  H   UNL     1     -33.655  27.372   6.083  0.00  0.00    +0.223 HD
ENDBRANCH  15  19
ENDBRANCH  14  15
ENDBRANCH   2  14
TORSDOF 8
ENDMDL
MODEL 2
REMARK VINA RESULT:      -5.7      0.926      1.482
REMARK  Name = 20098471
REMARK  8 active torsions:
REMARK  status: ('A' for Active; 'I' for Inactive)
REMARK    1  A    between atoms: C_1  and  O_7
REMARK    2  A    between atoms: C_2  and  O_14
REMARK    3  A    between atoms: O_7  and  P_8
REMARK    4  A    between atoms: P_8  and  O_10
REMARK    5  A    between atoms: P_8  and  O_12
REMARK    6  A    between atoms: O_14  and  P_15
REMARK    7  A    between atoms: P_15  and  O_17
REMARK    8  A    between atoms: P_15  and  O_19
REMARK                            x       y       z     vdW  Elec       q    Type
REMARK                         _______ _______ _______ _____ _____    ______ ____
ROOT
ATOM      1  C   UNL     1     -35.342  21.552   3.969  0.00  0.00    +0.152 C 
ATOM      2  C   UNL     1     -35.048  23.879   4.550  0.00  0.00    +0.152 C 
ATOM      3  C   UNL     1     -35.184  22.883   3.582  0.00  0.00    +0.075 C 
ATOM      4  C   UNL     1     -35.363  21.217   5.323  0.00  0.00    +0.038 C 
ATOM      5  C   UNL     1     -35.069  23.544   5.904  0.00  0.00    +0.038 C 
ATOM      6  C   UNL     1     -35.227  22.213   6.290  0.00  0.00    +0.006 C 
ENDROOT
BRANCH   1   7
ATOM      7  O   UNL     1     -35.475  20.580   3.025  0.00  0.00    -0.403 OA
BRANCH   7   8
ATOM      8  P   UNL     1     -36.533  20.607   1.800  0.00  0.00    +0.528 P 
ATOM      9  O   UNL     1     -36.164  21.505   0.654  0.00  0.00    -0.216 OA
BRANCH   8  10
ATOM     10  O   UNL     1     -36.746  19.047   1.428  0.00  0.00    -0.293 OA
ATOM     11  H   UNL     1     -37.688  18.877   1.274  0.00  0.00    +0.223 HD
ENDBRANCH   8  10
BRANCH   8  12
ATOM     12  O   UNL     1     -37.920  20.997   2.535  0.00  0.00    -0.293 OA
ATOM     13  H   UNL     1     -37.779  21.770   3.104  0.00  0.00    +0.223 HD
ENDBRANCH   8  12
ENDBRANCH   7   8
ENDBRANCH   1   7
BRANCH   2  14
ATOM     14  O   UNL     1     -34.894  25.177   4.173  0.00  0.00    -0.403 OA
BRANCH  14  15
ATOM     15  P   UNL     1     -36.098  26.243   3.981  0.00  0.00    +0.528 P 
ATOM     16  O   UNL     1     -37.154  25.846   2.991  0.00  0.00    -0.216 OA
BRANCH  15  17
ATOM     17  O   UNL     1     -36.619  26.524   5.486  0.00  0.00    -0.293 OA
ATOM     18  H   UNL     1     -37.068  27.384   5.518  0.00  0.00    +0.223 HD
ENDBRANCH  15  17
BRANCH  15  19
ATOM     19  O   UNL     1     -35.311  27.608   3.610  0.00  0.00    -0.293 OA
ATOM     20  H   UNL     1     -35.632  27.944   2.759  0.00  0.00    +0.223 HD
ENDBRANCH  15  19
ENDBRANCH  14  15
ENDBRANCH   2  14
TORSDOF 8
ENDMDL
MODEL 3
REMARK VINA RESULT:      -5.7      0.033      5.639
REMARK  Name = 20098471
REMARK  8 active torsions:
REMARK  status: ('A' for Active; 'I' for Inactive)
REMARK    1  A    between atoms: C_1  and  O_7
REMARK    2  A    between atoms: C_2  and  O_14
REMARK    3  A    between atoms: O_7  and  P_8
REMARK    4  A    between atoms: P_8  and  O_10
REMARK    5  A    between atoms: P_8  and  O_12
REMARK    6  A    between atoms: O_14  and  P_15
REMARK    7  A    between atoms: P_15  and  O_17
REMARK    8  A    between atoms: P_15  and  O_19
REMARK                            x       y       z     vdW  Elec       q    Type
REMARK                         _______ _______ _______ _____ _____    ______ ____
ROOT
ATOM      1  C   UNL     1     -35.487  23.881   4.723  0.00  0.00    +0.152 C 
ATOM      2  C   UNL     1     -35.396  21.581   3.988  0.00  0.00    +0.152 C 
ATOM      3  C   UNL     1     -35.505  22.940   3.693  0.00  0.00    +0.075 C 
ATOM      4  C   UNL     1     -35.359  23.463   6.048  0.00  0.00    +0.038 C 
ATOM      5  C   UNL     1     -35.268  21.163   5.313  0.00  0.00    +0.038 C 
ATOM      6  C   UNL     1     -35.250  22.104   6.342  0.00  0.00    +0.006 C 
ENDROOT
BRANCH   1   7
ATOM      7  O   UNL     1     -35.594  25.207   4.435  0.00  0.00    -0.403 OA
BRANCH   7   8
ATOM      8  P   UNL     1     -34.361  26.255   4.388  0.00  0.00    +0.528 P 
ATOM      9  O   UNL     1     -33.151  25.788   3.631  0.00  0.00    -0.216 OA
BRANCH   8  10
ATOM     10  O   UNL     1     -35.031  27.629   3.859  0.00  0.00    -0.293 OA
ATOM     11  H   UNL     1     -34.381  28.126   3.340  0.00  0.00    +0.223 HD
ENDBRANCH   8  10
BRANCH   8  12
ATOM     12  O   UNL     1     -34.093  26.562   5.953  0.00  0.00    -0.293 OA
ATOM     13  H   UNL     1     -33.417  27.253   6.036  0.00  0.00    +0.223 HD
ENDBRANCH   8  12
ENDBRANCH   7   8
ENDBRANCH   1   7
BRANCH   2  14
ATOM     14  O   UNL     1     -35.413  20.663   2.984  0.00  0.00    -0.403 OA
BRANCH  14  15
ATOM     15  P   UNL     1     -36.493  20.619   1.777  0.00  0.00    +0.528 P 
ATOM     16  O   UNL     1     -36.195  21.524   0.617  0.00  0.00    -0.216 OA
BRANCH  15  17
ATOM     17  O   UNL     1     -36.625  19.047   1.423  0.00  0.00    -0.293 OA
ATOM     18  H   UNL     1     -36.548  18.924   0.464  0.00  0.00    +0.223 HD
ENDBRANCH  15  17
BRANCH  15  19
ATOM     19  O   UNL     1     -37.888  20.939   2.534  0.00  0.00    -0.293 OA
ATOM     20  H   UNL     1     -38.042  21.896   2.536  0.00  0.00    +0.223 HD
ENDBRANCH  15  19
ENDBRANCH  14  15
ENDBRANCH   2  14
TORSDOF 8
ENDMDL
MODEL 4
REMARK VINA RESULT:      -5.6      0.130      1.124
REMARK  Name = 20098471
REMARK  8 active torsions:
REMARK  status: ('A' for Active; 'I' for Inactive)
REMARK    1  A    between atoms: C_1  and  O_7
REMARK    2  A    between atoms: C_2  and  O_14
REMARK    3  A    between atoms: O_7  and  P_8
REMARK    4  A    between atoms: P_8  and  O_10
REMARK    5  A    between atoms: P_8  and  O_12
REMARK    6  A    between atoms: O_14  and  P_15
REMARK    7  A    between atoms: P_15  and  O_17
REMARK    8  A    between atoms: P_15  and  O_19
REMARK                            x       y       z     vdW  Elec       q    Type
REMARK                         _______ _______ _______ _____ _____    ______ ____
ROOT
ATOM      1  C   UNL     1     -35.383  21.638   3.900  0.00  0.00    +0.152 C 
ATOM      2  C   UNL     1     -35.468  23.916   4.701  0.00  0.00    +0.152 C 
ATOM      3  C   UNL     1     -35.479  23.007   3.643  0.00  0.00    +0.075 C 
ATOM      4  C   UNL     1     -35.275  21.180   5.213  0.00  0.00    +0.038 C 
ATOM      5  C   UNL     1     -35.360  23.458   6.014  0.00  0.00    +0.038 C 
ATOM      6  C   UNL     1     -35.264  22.091   6.270  0.00  0.00    +0.006 C 
ENDROOT
BRANCH   1   7
ATOM      7  O   UNL     1     -35.394  20.750   2.868  0.00  0.00    -0.403 OA
BRANCH   7   8
ATOM      8  P   UNL     1     -36.533  20.665   1.722  0.00  0.00    +0.528 P 
ATOM      9  O   UNL     1     -36.318  21.560   0.535  0.00  0.00    -0.216 OA
BRANCH   8  10
ATOM     10  O   UNL     1     -36.648  19.085   1.396  0.00  0.00    -0.293 OA
ATOM     11  H   UNL     1     -36.182  18.891   0.567  0.00  0.00    +0.223 HD
ENDBRANCH   8  10
BRANCH   8  12
ATOM     12  O   UNL     1     -37.892  20.964   2.546  0.00  0.00    -0.293 OA
ATOM     13  H   UNL     1     -38.635  20.501   2.126  0.00  0.00    +0.223 HD
ENDBRANCH   8  12
ENDBRANCH   7   8
ENDBRANCH   1   7
BRANCH   2  14
ATOM     14  O   UNL     1     -35.562  25.251   4.451  0.00  0.00    -0.403 OA
BRANCH  14  15
ATOM     15  P   UNL     1     -34.371  26.327   4.664  0.00  0.00    +0.528 P 
ATOM     16  O   UNL     1     -33.973  26.569   6.091  0.00  0.00    -0.216 OA
BRANCH  15  17
ATOM     17  O   UNL     1     -33.192  25.809   3.686  0.00  0.00    -0.293 OA
ATOM     18  H   UNL     1     -33.042  26.463   2.985  0.00  0.00    +0.223 HD
ENDBRANCH  15  17
BRANCH  15  19
ATOM     19  O   UNL     1     -34.931  27.636   3.895  0.00  0.00    -0.293 OA
ATOM     20  H   UNL     1     -35.894  27.574   3.811  0.00  0.00    +0.223 HD
ENDBRANCH  15  19
ENDBRANCH  14  15
ENDBRANCH   2  14
TORSDOF 8
ENDMDL
MODEL 5
REMARK VINA RESULT:      -5.1      2.147      2.882
REMARK  Name = 20098471
REMARK  8 active torsions:
REMARK  status: ('A' for Active; 'I' for Inactive)
REMARK    1  A    between atoms: C_1  and  O_7
REMARK    2  A    between atoms: C_2  and  O_14
REMARK    3  A    between atoms: O_7  and  P_8
REMARK    4  A    between atoms: P_8  and  O_10
REMARK    5  A    between atoms: P_8  and  O_12
REMARK    6  A    between atoms: O_14  and  P_15
REMARK    7  A    between atoms: P_15  and  O_17
REMARK    8  A    between atoms: P_15  and  O_19
REMARK                            x       y       z     vdW  Elec       q    Type
REMARK                         _______ _______ _______ _____ _____    ______ ____
ROOT
ATOM      1  C   UNL     1     -35.512  21.658   4.131  0.00  0.00    +0.152 C 
ATOM      2  C   UNL     1     -36.154  23.987   4.094  0.00  0.00    +0.152 C 
ATOM      3  C   UNL     1     -36.053  22.752   3.454  0.00  0.00    +0.075 C 
ATOM      4  C   UNL     1     -35.073  21.800   5.447  0.00  0.00    +0.038 C 
ATOM      5  C   UNL     1     -35.715  24.129   5.411  0.00  0.00    +0.038 C 
ATOM      6  C   UNL     1     -35.175  23.036   6.087  0.00  0.00    +0.006 C 
ENDROOT
BRANCH   1   7
ATOM      7  O   UNL     1     -35.413  20.453   3.506  0.00  0.00    -0.403 OA
BRANCH   7   8
ATOM      8  P   UNL     1     -35.202  20.240   1.915  0.00  0.00    +0.528 P 
ATOM      9  O   UNL     1     -34.953  21.495   1.128  0.00  0.00    -0.216 OA
BRANCH   8  10
ATOM     10  O   UNL     1     -34.048  19.111   1.818  0.00  0.00    -0.293 OA
ATOM     11  H   UNL     1     -33.988  18.788   0.906  0.00  0.00    +0.223 HD
ENDBRANCH   8  10
BRANCH   8  12
ATOM     12  O   UNL     1     -36.536  19.434   1.482  0.00  0.00    -0.293 OA
ATOM     13  H   UNL     1     -37.101  20.010   0.943  0.00  0.00    +0.223 HD
ENDBRANCH   8  12
ENDBRANCH   7   8
ENDBRANCH   1   7
BRANCH   2  14
ATOM     14  O   UNL     1     -36.681  25.055   3.435  0.00  0.00    -0.403 OA
BRANCH  14  15
ATOM     15  P   UNL     1     -38.200  25.152   2.878  0.00  0.00    +0.528 P 
ATOM     16  O   UNL     1     -39.234  24.457   3.715  0.00  0.00    -0.216 OA
BRANCH  15  17
ATOM     17  O   UNL     1     -38.434  26.736   2.648  0.00  0.00    -0.293 OA
ATOM     18  H   UNL     1     -37.662  27.115   2.199  0.00  0.00    +0.223 HD
ENDBRANCH  15  17
BRANCH  15  19
ATOM     19  O   UNL     1     -38.065  24.582   1.370  0.00  0.00    -0.293 OA
ATOM     20  H   UNL     1     -38.080  25.321   0.743  0.00  0.00    +0.223 HD
ENDBRANCH  15  19
ENDBRANCH  14  15
ENDBRANCH   2  14
TORSDOF 8
ENDMDL
MODEL 6
REMARK VINA RESULT:      -5.1      2.780      6.748
REMARK  Name = 20098471
REMARK  8 active torsions:
REMARK  status: ('A' for Active; 'I' for Inactive)
REMARK    1  A    between atoms: C_1  and  O_7
REMARK    2  A    between atoms: C_2  and  O_14
REMARK    3  A    between atoms: O_7  and  P_8
REMARK    4  A    between atoms: P_8  and  O_10
REMARK    5  A    between atoms: P_8  and  O_12
REMARK    6  A    between atoms: O_14  and  P_15
REMARK    7  A    between atoms: P_15  and  O_17
REMARK    8  A    between atoms: P_15  and  O_19
REMARK                            x       y       z     vdW  Elec       q    Type
REMARK                         _______ _______ _______ _____ _____    ______ ____
ROOT
ATOM      1  C   UNL     1     -34.004  26.656   4.563  0.00  0.00    +0.152 C 
ATOM      2  C   UNL     1     -34.713  24.579   3.552  0.00  0.00    +0.152 C 
ATOM      3  C   UNL     1     -34.079  25.263   4.590  0.00  0.00    +0.075 C 
ATOM      4  C   UNL     1     -34.561  27.365   3.499  0.00  0.00    +0.038 C 
ATOM      5  C   UNL     1     -35.271  25.288   2.487  0.00  0.00    +0.038 C 
ATOM      6  C   UNL     1     -35.195  26.680   2.461  0.00  0.00    +0.006 C 
ENDROOT
BRANCH   1   7
ATOM      7  O   UNL     1     -33.385  27.323   5.576  0.00  0.00    -0.403 OA
BRANCH   7   8
ATOM      8  P   UNL     1     -31.964  28.089   5.459  0.00  0.00    +0.528 P 
ATOM      9  O   UNL     1     -31.208  27.846   4.184  0.00  0.00    -0.216 OA
BRANCH   8  10
ATOM     10  O   UNL     1     -32.322  29.635   5.777  0.00  0.00    -0.293 OA
ATOM     11  H   UNL     1     -31.767  29.951   6.506  0.00  0.00    +0.223 HD
ENDBRANCH   8  10
BRANCH   8  12
ATOM     12  O   UNL     1     -31.190  27.613   6.796  0.00  0.00    -0.293 OA
ATOM     13  H   UNL     1     -31.832  27.488   7.514  0.00  0.00    +0.223 HD
ENDBRANCH   8  12
ENDBRANCH   7   8
ENDBRANCH   1   7
BRANCH   2  14
ATOM     14  O   UNL     1     -34.787  23.221   3.577  0.00  0.00    -0.403 OA
BRANCH  14  15
ATOM     15  P   UNL     1     -35.875  22.360   4.414  0.00  0.00    +0.528 P 
ATOM     16  O   UNL     1     -35.964  22.688   5.876  0.00  0.00    -0.216 OA
BRANCH  15  17
ATOM     17  O   UNL     1     -37.246  22.532   3.573  0.00  0.00    -0.293 OA
ATOM     18  H   UNL     1     -37.714  21.684   3.542  0.00  0.00    +0.223 HD
ENDBRANCH  15  17
BRANCH  15  19
ATOM     19  O   UNL     1     -35.443  20.833   4.095  0.00  0.00    -0.293 OA
ATOM     20  H   UNL     1     -36.234  20.272   4.073  0.00  0.00    +0.223 HD
ENDBRANCH  15  19
ENDBRANCH  14  15
ENDBRANCH   2  14
TORSDOF 8
ENDMDL
MODEL 7
REMARK VINA RESULT:      -5.1      2.294      6.142
REMARK  Name = 20098471
REMARK  8 active torsions:
REMARK  status: ('A' for Active; 'I' for Inactive)
REMARK    1  A    between atoms: C_1  and  O_7
REMARK    2  A    between atoms: C_2  and  O_14
REMARK    3  A    between atoms: O_7  and  P_8
REMARK    4  A    between atoms: P_8  and  O_10
REMARK    5  A    between atoms: P_8  and  O_12
REMARK    6  A    between atoms: O_14  and  P_15
REMARK    7  A    between atoms: P_15  and  O_17
REMARK    8  A    between atoms: P_15  and  O_19
REMARK                            x       y       z     vdW  Elec       q    Type
REMARK                         _______ _______ _______ _____ _____    ______ ____
ROOT
ATOM      1  C   UNL     1     -36.580  23.230   3.916  0.00  0.00    +0.152 C 
ATOM      2  C   UNL     1     -37.550  22.314   1.901  0.00  0.00    +0.152 C 
ATOM      3  C   UNL     1     -37.543  23.281   2.906  0.00  0.00    +0.075 C 
ATOM      4  C   UNL     1     -35.626  22.212   3.919  0.00  0.00    +0.038 C 
ATOM      5  C   UNL     1     -36.596  21.296   1.905  0.00  0.00    +0.038 C 
ATOM      6  C   UNL     1     -35.635  21.245   2.913  0.00  0.00    +0.006 C 
ENDROOT
BRANCH   1   7
ATOM      7  O   UNL     1     -36.573  24.174   4.896  0.00  0.00    -0.403 OA
BRANCH   7   8
ATOM      8  P   UNL     1     -35.601  25.468   4.940  0.00  0.00    +0.528 P 
ATOM      9  O   UNL     1     -34.379  25.323   5.800  0.00  0.00    -0.216 OA
BRANCH   8  10
ATOM     10  O   UNL     1     -35.325  25.807   3.383  0.00  0.00    -0.293 OA
ATOM     11  H   UNL     1     -36.140  26.139   2.975  0.00  0.00    +0.223 HD
ENDBRANCH   8  10
BRANCH   8  12
ATOM     12  O   UNL     1     -36.603  26.652   5.397  0.00  0.00    -0.293 OA
ATOM     13  H   UNL     1     -37.083  26.379   6.196  0.00  0.00    +0.223 HD
ENDBRANCH   8  12
ENDBRANCH   7   8
ENDBRANCH   1   7
BRANCH   2  14
ATOM     14  O   UNL     1     -38.489  22.363   0.917  0.00  0.00    -0.403 OA
BRANCH  14  15
ATOM     15  P   UNL     1     -39.741  21.347   0.769  0.00  0.00    +0.528 P 
ATOM     16  O   UNL     1     -39.502  20.159  -0.118  0.00  0.00    -0.216 OA
BRANCH  15  17
ATOM     17  O   UNL     1     -40.159  21.010   2.294  0.00  0.00    -0.293 OA
ATOM     18  H   UNL     1     -40.817  21.654   2.599  0.00  0.00    +0.223 HD
ENDBRANCH  15  17
BRANCH  15  19
ATOM     19  O   UNL     1     -40.935  22.321   0.273  0.00  0.00    -0.293 OA
ATOM     20  H   UNL     1     -41.393  21.914  -0.478  0.00  0.00    +0.223 HD
ENDBRANCH  15  19
ENDBRANCH  14  15
ENDBRANCH   2  14
TORSDOF 8
ENDMDL
MODEL 8
REMARK VINA RESULT:      -5.1      2.436      3.146
REMARK  Name = 20098471
REMARK  8 active torsions:
REMARK  status: ('A' for Active; 'I' for Inactive)
REMARK    1  A    between atoms: C_1  and  O_7
REMARK    2  A    between atoms: C_2  and  O_14
REMARK    3  A    between atoms: O_7  and  P_8
REMARK    4  A    between atoms: P_8  and  O_10
REMARK    5  A    between atoms: P_8  and  O_12
REMARK    6  A    between atoms: O_14  and  P_15
REMARK    7  A    between atoms: P_15  and  O_17
REMARK    8  A    between atoms: P_15  and  O_19
REMARK                            x       y       z     vdW  Elec       q    Type
REMARK                         _______ _______ _______ _____ _____    ______ ____
ROOT
ATOM      1  C   UNL     1     -37.500  22.029   1.681  0.00  0.00    +0.152 C 
ATOM      2  C   UNL     1     -36.662  23.124   3.664  0.00  0.00    +0.152 C 
ATOM      3  C   UNL     1     -37.555  23.083   2.593  0.00  0.00    +0.075 C 
ATOM      4  C   UNL     1     -36.554  21.016   1.840  0.00  0.00    +0.038 C 
ATOM      5  C   UNL     1     -35.716  22.112   3.824  0.00  0.00    +0.038 C 
ATOM      6  C   UNL     1     -35.662  21.058   2.912  0.00  0.00    +0.006 C 
ENDROOT
BRANCH   1   7
ATOM      7  O   UNL     1     -38.371  21.989   0.635  0.00  0.00    -0.403 OA
BRANCH   7   8
ATOM      8  P   UNL     1     -39.833  21.294   0.663  0.00  0.00    +0.528 P 
ATOM      9  O   UNL     1     -40.007  20.129  -0.268  0.00  0.00    -0.216 OA
BRANCH   8  10
ATOM     10  O   UNL     1     -40.092  20.984   2.230  0.00  0.00    -0.293 OA
ATOM     11  H   UNL     1     -40.165  21.819   2.716  0.00  0.00    +0.223 HD
ENDBRANCH   8  10
BRANCH   8  12
ATOM     12  O   UNL     1     -40.825  22.538   0.371  0.00  0.00    -0.293 OA
ATOM     13  H   UNL     1     -41.459  22.290  -0.322  0.00  0.00    +0.223 HD
ENDBRANCH   8  12
ENDBRANCH   7   8
ENDBRANCH   1   7
BRANCH   2  14
ATOM     14  O   UNL     1     -36.715  24.153   4.554  0.00  0.00    -0.403 OA
BRANCH  14  15
ATOM     15  P   UNL     1     -36.502  25.716   4.189  0.00  0.00    +0.528 P 
ATOM     16  O   UNL     1     -35.356  26.008   3.265  0.00  0.00    -0.216 OA
BRANCH  15  17
ATOM     17  O   UNL     1     -37.956  26.204   3.678  0.00  0.00    -0.293 OA
ATOM     18  H   UNL     1     -37.880  27.084   3.278  0.00  0.00    +0.223 HD
ENDBRANCH  15  17
BRANCH  15  19
ATOM     19  O   UNL     1     -36.379  26.410   5.646  0.00  0.00    -0.293 OA
ATOM     20  H   UNL     1     -35.826  27.203   5.581  0.00  0.00    +0.223 HD
ENDBRANCH  15  19
ENDBRANCH  14  15
ENDBRANCH   2  14
TORSDOF 8
ENDMDL
MODEL 9
REMARK VINA RESULT:      -5.0      4.211      7.199
REMARK  Name = 20098471
REMARK  8 active torsions:
REMARK  status: ('A' for Active; 'I' for Inactive)
REMARK    1  A    between atoms: C_1  and  O_7
REMARK    2  A    between atoms: C_2  and  O_14
REMARK    3  A    between atoms: O_7  and  P_8
REMARK    4  A    between atoms: P_8  and  O_10
REMARK    5  A    between atoms: P_8  and  O_12
REMARK    6  A    between atoms: O_14  and  P_15
REMARK    7  A    between atoms: P_15  and  O_17
REMARK    8  A    between atoms: P_15  and  O_19
REMARK                            x       y       z     vdW  Elec       q    Type
REMARK                         _______ _______ _______ _____ _____    ______ ____
ROOT
ATOM      1  C   UNL     1     -32.814  27.760   4.095  0.00  0.00    +0.152 C 
ATOM      2  C   UNL     1     -34.860  26.686   3.391  0.00  0.00    +0.152 C 
ATOM      3  C   UNL     1     -33.670  26.658   4.119  0.00  0.00    +0.075 C 
ATOM      4  C   UNL     1     -33.148  28.888   3.345  0.00  0.00    +0.038 C 
ATOM      5  C   UNL     1     -35.194  27.813   2.641  0.00  0.00    +0.038 C 
ATOM      6  C   UNL     1     -34.338  28.914   2.618  0.00  0.00    +0.006 C 
ENDROOT
BRANCH   1   7
ATOM      7  O   UNL     1     -31.652  27.734   4.805  0.00  0.00    -0.403 OA
BRANCH   7   8
ATOM      8  P   UNL     1     -31.453  28.339   6.293  0.00  0.00    +0.528 P 
ATOM      9  O   UNL     1     -31.588  29.830   6.402  0.00  0.00    -0.216 OA
BRANCH   8  10
ATOM     10  O   UNL     1     -32.469  27.475   7.209  0.00  0.00    -0.293 OA
ATOM     11  H   UNL     1     -32.907  26.805   6.662  0.00  0.00    +0.223 HD
ENDBRANCH   8  10
BRANCH   8  12
ATOM     12  O   UNL     1     -30.002  27.766   6.720  0.00  0.00    -0.293 OA
ATOM     13  H   UNL     1     -30.085  27.253   7.540  0.00  0.00    +0.223 HD
ENDBRANCH   8  12
ENDBRANCH   7   8
ENDBRANCH   1   7
BRANCH   2  14
ATOM     14  O   UNL     1     -35.696  25.612   3.414  0.00  0.00    -0.403 OA
BRANCH  14  15
ATOM     15  P   UNL     1     -36.568  25.134   4.692  0.00  0.00    +0.528 P 
ATOM     16  O   UNL     1     -36.067  23.899   5.384  0.00  0.00    -0.216 OA
BRANCH  15  17
ATOM     17  O   UNL     1     -36.677  26.458   5.614  0.00  0.00    -0.293 OA
ATOM     18  H   UNL     1     -36.557  27.246   5.062  0.00  0.00    +0.223 HD
ENDBRANCH  15  17
BRANCH  15  19
ATOM     19  O   UNL     1     -38.059  24.997   4.077  0.00  0.00    -0.293 OA
ATOM     20  H   UNL     1     -38.118  24.184   3.552  0.00  0.00    +0.223 HD
ENDBRANCH  15  19
ENDBRANCH  14  15
ENDBRANCH   2  14
TORSDOF 8
ENDMDL
