MODEL 1
REMARK VINA RESULT:      -6.2      0.000      0.000
REMARK  Name = 54724259
REMARK  7 active torsions:
REMARK  status: ('A' for Active; 'I' for Inactive)
REMARK    1  A    between atoms: C_8  and  O_23
REMARK    2  A    between atoms: C_15  and  O_25
REMARK    3  A    between atoms: C_19  and  C_28
REMARK    4  A    between atoms: C_20  and  C_31
REMARK    5  A    between atoms: C_28  and  O_29
REMARK    6  A    between atoms: C_31  and  C_32
REMARK    7  A    between atoms: C_32  and  O_33
REMARK                            x       y       z     vdW  Elec       q    Type
REMARK                         _______ _______ _______ _____ _____    ______ ____
ROOT
ATOM      1  O   UNL     1     -36.177  20.245   3.109  0.00  0.00    -0.295 OA
ATOM      2  N   UNL     1     -39.328  24.267  -0.614  0.00  0.00    +0.389 N 
ATOM      3  C   UNL     1     -38.855  22.604   1.094  0.00  0.00    -0.003 C 
ATOM      4  C   UNL     1     -39.931  23.553   0.521  0.00  0.00    -0.052 C 
ATOM      5  C   UNL     1     -38.163  22.172  -0.239  0.00  0.00    -0.019 C 
ATOM      6  C   UNL     1     -40.678  24.403   1.532  0.00  0.00    +0.009 C 
ATOM      7  C   UNL     1     -38.407  23.316  -1.243  0.00  0.00    -0.077 C 
ATOM      8  C   UNL     1     -39.948  25.693   1.882  0.00  0.00    +0.113 C 
ATOM      9  C   UNL     1     -37.885  23.155   2.133  0.00  0.00    -0.038 C 
ATOM     10  C   UNL     1     -39.520  26.444   0.589  0.00  0.00    +0.007 C 
ATOM     11  C   UNL     1     -38.652  25.522  -0.284  0.00  0.00    -0.075 C 
ATOM     12  C   UNL     1     -36.672  21.813  -0.203  0.00  0.00    +0.006 C 
ATOM     13  C   UNL     1     -39.605  21.400   1.736  0.00  0.00    +0.002 C 
ATOM     14  C   UNL     1     -37.886  24.446   2.869  0.00  0.00    +0.005 C 
ATOM     15  C   UNL     1     -38.731  25.498   2.782  0.00  0.00    +0.156 C 
ATOM     16  C   UNL     1     -36.835  22.454   2.629  0.00  0.00    +0.094 C 
ATOM     17  C   UNL     1     -36.349  20.700   0.777  0.00  0.00    +0.065 C 
ATOM     18  C   UNL     1     -40.697  27.008  -0.225  0.00  0.00    +0.000 C 
ATOM     19  C   UNL     1     -36.718  24.404   3.775  0.00  0.00    +0.066 C 
ATOM     20  C   UNL     1     -36.107  23.217   3.631  0.00  0.00    -0.025 C 
ATOM     21  C   UNL     1     -36.443  21.077   2.240  0.00  0.00    +0.158 C 
ATOM     22  H   UNL     1     -40.076  24.570  -1.239  0.00  0.00    -0.080 HD
ENDROOT
BRANCH   8  23
ATOM     23  O   UNL     1     -40.881  26.501   2.620  0.00  0.00    -0.384 OA
ATOM     24  H   UNL     1     -40.594  27.428   2.599  0.00  0.00    +0.210 HD
ENDBRANCH   8  23
BRANCH  15  25
ATOM     25  O   UNL     1     -38.512  26.607   3.595  0.00  0.00    -0.378 OA
ATOM     26  H   UNL     1     -38.446  26.502   4.524  0.00  0.00    +0.211 HD
ENDBRANCH  15  25
BRANCH  19  28
ATOM     27  O   UNL     1     -36.410  25.455   5.877  0.00  0.00    -0.245 OA
ATOM     28  C   UNL     1     -36.197  25.431   4.672  0.00  0.00    +0.340 C 
BRANCH  28  29
ATOM     29  O   UNL     1     -35.461  26.314   3.948  0.00  0.00    -0.441 OA
ATOM     30  C   UNL     1     -34.078  26.405   4.304  0.00  0.00    +0.256 C 
ENDBRANCH  28  29
ENDBRANCH  19  28
BRANCH  20  31
ATOM     31  C   UNL     1     -34.860  22.704   4.269  0.00  0.00    +0.055 C 
BRANCH  31  32
ATOM     32  C   UNL     1     -35.102  22.177   5.678  0.00  0.00    +0.142 C 
BRANCH  32  33
ATOM     33  O   UNL     1     -35.235  20.762   5.644  0.00  0.00    -0.382 OA
ATOM     34  H   UNL     1     -35.062  20.400   6.526  0.00  0.00    +0.210 HD
ENDBRANCH  32  33
ENDBRANCH  31  32
ENDBRANCH  20  31
TORSDOF 7
ENDMDL
MODEL 2
REMARK VINA RESULT:      -6.2      2.064      2.558
REMARK  Name = 54724259
REMARK  7 active torsions:
REMARK  status: ('A' for Active; 'I' for Inactive)
REMARK    1  A    between atoms: C_8  and  O_23
REMARK    2  A    between atoms: C_15  and  O_25
REMARK    3  A    between atoms: C_19  and  C_28
REMARK    4  A    between atoms: C_20  and  C_31
REMARK    5  A    between atoms: C_28  and  O_29
REMARK    6  A    between atoms: C_31  and  C_32
REMARK    7  A    between atoms: C_32  and  O_33
REMARK                            x       y       z     vdW  Elec       q    Type
REMARK                         _______ _______ _______ _____ _____    ______ ____
ROOT
ATOM      1  O   UNL     1     -35.610  20.533   3.300  0.00  0.00    -0.295 OA
ATOM      2  N   UNL     1     -35.557  24.999  -1.174  0.00  0.00    +0.389 N 
ATOM      3  C   UNL     1     -36.361  23.346   0.416  0.00  0.00    -0.003 C 
ATOM      4  C   UNL     1     -36.780  24.486  -0.537  0.00  0.00    -0.052 C 
ATOM      5  C   UNL     1     -35.213  22.714  -0.435  0.00  0.00    -0.019 C 
ATOM      6  C   UNL     1     -37.725  25.525   0.038  0.00  0.00    +0.009 C 
ATOM      7  C   UNL     1     -34.676  23.839  -1.341  0.00  0.00    -0.077 C 
ATOM      8  C   UNL     1     -37.005  26.631   0.797  0.00  0.00    +0.113 C 
ATOM      9  C   UNL     1     -35.939  23.708   1.835  0.00  0.00    -0.038 C 
ATOM     10  C   UNL     1     -35.844  27.212  -0.059  0.00  0.00    +0.007 C 
ATOM     11  C   UNL     1     -34.880  26.082  -0.462  0.00  0.00    -0.075 C 
ATOM     12  C   UNL     1     -34.052  22.031   0.299  0.00  0.00    +0.006 C 
ATOM     13  C   UNL     1     -37.570  22.369   0.515  0.00  0.00    +0.002 C 
ATOM     14  C   UNL     1     -36.024  24.996   2.571  0.00  0.00    +0.005 C 
ATOM     15  C   UNL     1     -36.467  26.207   2.160  0.00  0.00    +0.156 C 
ATOM     16  C   UNL     1     -35.451  22.811   2.728  0.00  0.00    +0.094 C 
ATOM     17  C   UNL     1     -34.504  20.916   1.226  0.00  0.00    +0.065 C 
ATOM     18  C   UNL     1     -36.311  27.991  -1.301  0.00  0.00    +0.000 C 
ATOM     19  C   UNL     1     -35.497  24.732   3.926  0.00  0.00    +0.066 C 
ATOM     20  C   UNL     1     -35.168  23.433   4.012  0.00  0.00    -0.025 C 
ATOM     21  C   UNL     1     -35.225  21.366   2.478  0.00  0.00    +0.158 C 
ATOM     22  H   UNL     1     -35.813  25.435  -2.060  0.00  0.00    -0.080 HD
ENDROOT
BRANCH   8  23
ATOM     23  O   UNL     1     -37.981  27.660   1.042  0.00  0.00    -0.384 OA
ATOM     24  H   UNL     1     -38.856  27.347   0.765  0.00  0.00    +0.210 HD
ENDBRANCH   8  23
BRANCH  15  25
ATOM     25  O   UNL     1     -36.444  27.272   3.057  0.00  0.00    -0.378 OA
ATOM     26  H   UNL     1     -37.242  27.579   3.441  0.00  0.00    +0.211 HD
ENDBRANCH  15  25
BRANCH  19  28
ATOM     27  O   UNL     1     -36.118  25.896   5.896  0.00  0.00    -0.245 OA
ATOM     28  C   UNL     1     -35.279  25.653   5.039  0.00  0.00    +0.340 C 
BRANCH  28  29
ATOM     29  O   UNL     1     -34.024  26.165   4.945  0.00  0.00    -0.441 OA
ATOM     30  C   UNL     1     -33.436  26.585   6.181  0.00  0.00    +0.256 C 
ENDBRANCH  28  29
ENDBRANCH  19  28
BRANCH  20  31
ATOM     31  C   UNL     1     -34.543  22.680   5.138  0.00  0.00    +0.055 C 
BRANCH  31  32
ATOM     32  C   UNL     1     -35.572  22.175   6.141  0.00  0.00    +0.142 C 
BRANCH  32  33
ATOM     33  O   UNL     1     -35.655  20.758   6.069  0.00  0.00    -0.382 OA
ATOM     34  H   UNL     1     -36.297  20.504   5.388  0.00  0.00    +0.210 HD
ENDBRANCH  32  33
ENDBRANCH  31  32
ENDBRANCH  20  31
TORSDOF 7
ENDMDL
MODEL 3
REMARK VINA RESULT:      -6.0      4.795      9.144
REMARK  Name = 54724259
REMARK  7 active torsions:
REMARK  status: ('A' for Active; 'I' for Inactive)
REMARK    1  A    between atoms: C_8  and  O_23
REMARK    2  A    between atoms: C_15  and  O_25
REMARK    3  A    between atoms: C_19  and  C_28
REMARK    4  A    between atoms: C_20  and  C_31
REMARK    5  A    between atoms: C_28  and  O_29
REMARK    6  A    between atoms: C_31  and  C_32
REMARK    7  A    between atoms: C_32  and  O_33
REMARK                            x       y       z     vdW  Elec       q    Type
REMARK                         _______ _______ _______ _____ _____    ______ ____
ROOT
ATOM      1  O   UNL     1     -34.576  29.270   0.651  0.00  0.00    -0.295 OA
ATOM      2  N   UNL     1     -29.448  30.137   4.245  0.00  0.00    +0.389 N 
ATOM      3  C   UNL     1     -31.687  30.388   3.334  0.00  0.00    -0.003 C 
ATOM      4  C   UNL     1     -30.744  30.787   4.490  0.00  0.00    -0.052 C 
ATOM      5  C   UNL     1     -30.658  30.387   2.157  0.00  0.00    -0.019 C 
ATOM      6  C   UNL     1     -31.311  30.653   5.891  0.00  0.00    +0.009 C 
ATOM      7  C   UNL     1     -29.279  30.114   2.789  0.00  0.00    -0.077 C 
ATOM      8  C   UNL     1     -31.164  29.249   6.461  0.00  0.00    +0.113 C 
ATOM      9  C   UNL     1     -32.472  29.088   3.458  0.00  0.00    -0.038 C 
ATOM     10  C   UNL     1     -29.702  28.746   6.301  0.00  0.00    +0.007 C 
ATOM     11  C   UNL     1     -29.294  28.799   4.818  0.00  0.00    -0.075 C 
ATOM     12  C   UNL     1     -30.897  29.430   0.982  0.00  0.00    +0.006 C 
ATOM     13  C   UNL     1     -32.712  31.548   3.162  0.00  0.00    +0.002 C 
ATOM     14  C   UNL     1     -32.648  28.170   4.613  0.00  0.00    +0.005 C 
ATOM     15  C   UNL     1     -32.122  28.226   5.858  0.00  0.00    +0.156 C 
ATOM     16  C   UNL     1     -33.248  28.579   2.468  0.00  0.00    +0.094 C 
ATOM     17  C   UNL     1     -32.246  29.628   0.314  0.00  0.00    +0.065 C 
ATOM     18  C   UNL     1     -28.681  29.502   7.169  0.00  0.00    +0.000 C 
ATOM     19  C   UNL     1     -33.550  27.094   4.151  0.00  0.00    +0.066 C 
ATOM     20  C   UNL     1     -33.906  27.350   2.882  0.00  0.00    -0.025 C 
ATOM     21  C   UNL     1     -33.441  29.169   1.120  0.00  0.00    +0.158 C 
ATOM     22  H   UNL     1     -28.722  30.673   4.722  0.00  0.00    -0.080 HD
ENDROOT
BRANCH   8  23
ATOM     23  O   UNL     1     -31.489  29.342   7.860  0.00  0.00    -0.384 OA
ATOM     24  H   UNL     1     -30.942  28.716   8.361  0.00  0.00    +0.210 HD
ENDBRANCH   8  23
BRANCH  15  25
ATOM     25  O   UNL     1     -32.449  27.227   6.773  0.00  0.00    -0.378 OA
ATOM     26  H   UNL     1     -32.630  26.358   6.473  0.00  0.00    +0.211 HD
ENDBRANCH  15  25
BRANCH  19  28
ATOM     27  O   UNL     1     -33.455  24.801   4.743  0.00  0.00    -0.245 OA
ATOM     28  C   UNL     1     -34.000  25.891   4.846  0.00  0.00    +0.340 C 
BRANCH  28  29
ATOM     29  O   UNL     1     -35.090  26.199   5.595  0.00  0.00    -0.441 OA
ATOM     30  C   UNL     1     -36.163  25.253   5.542  0.00  0.00    +0.256 C 
ENDBRANCH  28  29
ENDBRANCH  19  28
BRANCH  20  31
ATOM     31  C   UNL     1     -34.747  26.546   1.948  0.00  0.00    +0.055 C 
BRANCH  31  32
ATOM     32  C   UNL     1     -36.235  26.689   2.238  0.00  0.00    +0.142 C 
BRANCH  32  33
ATOM     33  O   UNL     1     -36.617  28.053   2.119  0.00  0.00    -0.382 OA
ATOM     34  H   UNL     1     -37.337  28.133   1.474  0.00  0.00    +0.210 HD
ENDBRANCH  32  33
ENDBRANCH  31  32
ENDBRANCH  20  31
TORSDOF 7
ENDMDL
MODEL 4
REMARK VINA RESULT:      -6.0      2.744      4.977
REMARK  Name = 54724259
REMARK  7 active torsions:
REMARK  status: ('A' for Active; 'I' for Inactive)
REMARK    1  A    between atoms: C_8  and  O_23
REMARK    2  A    between atoms: C_15  and  O_25
REMARK    3  A    between atoms: C_19  and  C_28
REMARK    4  A    between atoms: C_20  and  C_31
REMARK    5  A    between atoms: C_28  and  O_29
REMARK    6  A    between atoms: C_31  and  C_32
REMARK    7  A    between atoms: C_32  and  O_33
REMARK                            x       y       z     vdW  Elec       q    Type
REMARK                         _______ _______ _______ _____ _____    ______ ____
ROOT
ATOM      1  O   UNL     1     -31.715  25.542   1.177  0.00  0.00    -0.295 OA
ATOM      2  N   UNL     1     -36.407  22.058  -1.234  0.00  0.00    +0.389 N 
ATOM      3  C   UNL     1     -34.262  22.678  -0.273  0.00  0.00    -0.003 C 
ATOM      4  C   UNL     1     -35.182  21.495  -0.646  0.00  0.00    -0.052 C 
ATOM      5  C   UNL     1     -34.573  23.628  -1.475  0.00  0.00    -0.019 C 
ATOM      6  C   UNL     1     -35.375  20.435   0.424  0.00  0.00    +0.009 C 
ATOM      7  C   UNL     1     -35.986  23.257  -1.966  0.00  0.00    -0.077 C 
ATOM      8  C   UNL     1     -36.478  20.782   1.414  0.00  0.00    +0.113 C 
ATOM      9  C   UNL     1     -34.448  23.338   1.088  0.00  0.00    -0.038 C 
ATOM     10  C   UNL     1     -37.777  21.189   0.661  0.00  0.00    +0.007 C 
ATOM     11  C   UNL     1     -37.480  22.364  -0.288  0.00  0.00    -0.075 C 
ATOM     12  C   UNL     1     -34.475  25.142  -1.252  0.00  0.00    +0.006 C 
ATOM     13  C   UNL     1     -32.797  22.157  -0.353  0.00  0.00    +0.002 C 
ATOM     14  C   UNL     1     -35.269  22.928   2.257  0.00  0.00    +0.005 C 
ATOM     15  C   UNL     1     -36.104  21.876   2.410  0.00  0.00    +0.156 C 
ATOM     16  C   UNL     1     -33.776  24.447   1.485  0.00  0.00    +0.094 C 
ATOM     17  C   UNL     1     -33.111  25.586  -0.752  0.00  0.00    +0.065 C 
ATOM     18  C   UNL     1     -38.446  20.034  -0.102  0.00  0.00    +0.000 C 
ATOM     19  C   UNL     1     -35.020  23.938   3.308  0.00  0.00    +0.066 C 
ATOM     20  C   UNL     1     -34.128  24.828   2.844  0.00  0.00    -0.025 C 
ATOM     21  C   UNL     1     -32.790  25.206   0.678  0.00  0.00    +0.158 C 
ATOM     22  H   UNL     1     -36.830  21.352  -1.837  0.00  0.00    -0.080 HD
ENDROOT
BRANCH   8  23
ATOM     23  O   UNL     1     -36.723  19.591   2.183  0.00  0.00    -0.384 OA
ATOM     24  H   UNL     1     -36.636  18.813   1.612  0.00  0.00    +0.210 HD
ENDBRANCH   8  23
BRANCH  15  25
ATOM     25  O   UNL     1     -36.765  21.711   3.625  0.00  0.00    -0.378 OA
ATOM     26  H   UNL     1     -37.673  21.931   3.698  0.00  0.00    +0.211 HD
ENDBRANCH  15  25
BRANCH  19  28
ATOM     27  O   UNL     1     -36.695  24.614   4.842  0.00  0.00    -0.245 OA
ATOM     28  C   UNL     1     -35.618  24.072   4.633  0.00  0.00    +0.340 C 
BRANCH  28  29
ATOM     29  O   UNL     1     -34.789  23.506   5.549  0.00  0.00    -0.441 OA
ATOM     30  C   UNL     1     -35.367  22.467   6.346  0.00  0.00    +0.256 C 
ENDBRANCH  28  29
ENDBRANCH  19  28
BRANCH  20  31
ATOM     31  C   UNL     1     -33.592  26.063   3.486  0.00  0.00    +0.055 C 
BRANCH  31  32
ATOM     32  C   UNL     1     -34.454  27.287   3.200  0.00  0.00    +0.142 C 
BRANCH  32  33
ATOM     33  O   UNL     1     -35.469  27.399   4.189  0.00  0.00    -0.382 OA
ATOM     34  H   UNL     1     -35.526  28.318   4.492  0.00  0.00    +0.210 HD
ENDBRANCH  32  33
ENDBRANCH  31  32
ENDBRANCH  20  31
TORSDOF 7
ENDMDL
MODEL 5
REMARK VINA RESULT:      -5.9      3.183      5.759
REMARK  Name = 54724259
REMARK  7 active torsions:
REMARK  status: ('A' for Active; 'I' for Inactive)
REMARK    1  A    between atoms: C_8  and  O_23
REMARK    2  A    between atoms: C_15  and  O_25
REMARK    3  A    between atoms: C_19  and  C_28
REMARK    4  A    between atoms: C_20  and  C_31
REMARK    5  A    between atoms: C_28  and  O_29
REMARK    6  A    between atoms: C_31  and  C_32
REMARK    7  A    between atoms: C_32  and  O_33
REMARK                            x       y       z     vdW  Elec       q    Type
REMARK                         _______ _______ _______ _____ _____    ______ ____
ROOT
ATOM      1  O   UNL     1     -33.353  23.586  -2.029  0.00  0.00    -0.295 OA
ATOM      2  N   UNL     1     -34.185  26.503   3.518  0.00  0.00    +0.389 N 
ATOM      3  C   UNL     1     -34.565  25.736   1.242  0.00  0.00    -0.003 C 
ATOM      4  C   UNL     1     -35.202  26.447   2.456  0.00  0.00    -0.052 C 
ATOM      5  C   UNL     1     -33.112  26.303   1.351  0.00  0.00    -0.019 C 
ATOM      6  C   UNL     1     -36.580  25.962   2.867  0.00  0.00    +0.009 C 
ATOM      7  C   UNL     1     -32.899  26.667   2.834  0.00  0.00    -0.077 C 
ATOM      8  C   UNL     1     -36.534  24.755   3.794  0.00  0.00    +0.113 C 
ATOM      9  C   UNL     1     -34.621  24.214   1.185  0.00  0.00    -0.038 C 
ATOM     10  C   UNL     1     -35.556  25.012   4.975  0.00  0.00    +0.007 C 
ATOM     11  C   UNL     1     -34.160  25.357   4.428  0.00  0.00    -0.075 C 
ATOM     12  C   UNL     1     -31.951  25.434   0.850  0.00  0.00    +0.006 C 
ATOM     13  C   UNL     1     -35.273  26.286  -0.031  0.00  0.00    +0.002 C 
ATOM     14  C   UNL     1     -35.364  23.241   2.028  0.00  0.00    +0.005 C 
ATOM     15  C   UNL     1     -36.161  23.448   3.101  0.00  0.00    +0.156 C 
ATOM     16  C   UNL     1     -34.008  23.473   0.229  0.00  0.00    +0.094 C 
ATOM     17  C   UNL     1     -32.097  25.022  -0.604  0.00  0.00    +0.065 C 
ATOM     18  C   UNL     1     -36.033  26.094   5.959  0.00  0.00    +0.000 C 
ATOM     19  C   UNL     1     -35.064  21.904   1.475  0.00  0.00    +0.066 C 
ATOM     20  C   UNL     1     -34.266  22.052   0.404  0.00  0.00    -0.025 C 
ATOM     21  C   UNL     1     -33.176  23.998  -0.882  0.00  0.00    +0.158 C 
ATOM     22  H   UNL     1     -34.409  27.281   4.138  0.00  0.00    -0.080 HD
ENDROOT
BRANCH   8  23
ATOM     23  O   UNL     1     -37.868  24.584   4.305  0.00  0.00    -0.384 OA
ATOM     24  H   UNL     1     -38.446  24.255   3.598  0.00  0.00    +0.210 HD
ENDBRANCH   8  23
BRANCH  15  25
ATOM     25  O   UNL     1     -36.750  22.350   3.724  0.00  0.00    -0.378 OA
ATOM     26  H   UNL     1     -36.244  21.809   4.297  0.00  0.00    +0.211 HD
ENDBRANCH  15  25
BRANCH  19  28
ATOM     27  O   UNL     1     -34.786  19.898   2.706  0.00  0.00    -0.245 OA
ATOM     28  C   UNL     1     -35.465  20.584   1.954  0.00  0.00    +0.340 C 
BRANCH  28  29
ATOM     29  O   UNL     1     -36.680  20.277   1.430  0.00  0.00    -0.441 OA
ATOM     30  C   UNL     1     -36.692  19.196   0.491  0.00  0.00    +0.256 C 
ENDBRANCH  28  29
ENDBRANCH  19  28
BRANCH  20  31
ATOM     31  C   UNL     1     -33.635  21.017  -0.465  0.00  0.00    +0.055 C 
BRANCH  31  32
ATOM     32  C   UNL     1     -32.257  20.602   0.033  0.00  0.00    +0.142 C 
BRANCH  32  33
ATOM     33  O   UNL     1     -32.375  19.465   0.878  0.00  0.00    -0.382 OA
ATOM     34  H   UNL     1     -33.309  19.218   0.960  0.00  0.00    +0.210 HD
ENDBRANCH  32  33
ENDBRANCH  31  32
ENDBRANCH  20  31
TORSDOF 7
ENDMDL
MODEL 6
REMARK VINA RESULT:      -5.8      3.231      6.009
REMARK  Name = 54724259
REMARK  7 active torsions:
REMARK  status: ('A' for Active; 'I' for Inactive)
REMARK    1  A    between atoms: C_8  and  O_23
REMARK    2  A    between atoms: C_15  and  O_25
REMARK    3  A    between atoms: C_19  and  C_28
REMARK    4  A    between atoms: C_20  and  C_31
REMARK    5  A    between atoms: C_28  and  O_29
REMARK    6  A    between atoms: C_31  and  C_32
REMARK    7  A    between atoms: C_32  and  O_33
REMARK                            x       y       z     vdW  Elec       q    Type
REMARK                         _______ _______ _______ _____ _____    ______ ____
ROOT
ATOM      1  O   UNL     1     -34.431  28.013   4.090  0.00  0.00    -0.295 OA
ATOM      2  N   UNL     1     -36.184  21.947   3.766  0.00  0.00    +0.389 N 
ATOM      3  C   UNL     1     -36.245  24.371   3.595  0.00  0.00    -0.003 C 
ATOM      4  C   UNL     1     -36.971  23.062   3.217  0.00  0.00    -0.052 C 
ATOM      5  C   UNL     1     -35.736  23.975   5.020  0.00  0.00    -0.019 C 
ATOM      6  C   UNL     1     -37.402  22.932   1.768  0.00  0.00    +0.009 C 
ATOM      7  C   UNL     1     -35.616  22.439   5.025  0.00  0.00    -0.077 C 
ATOM      8  C   UNL     1     -36.299  22.400   0.863  0.00  0.00    +0.113 C 
ATOM      9  C   UNL     1     -35.141  24.878   2.674  0.00  0.00    -0.038 C 
ATOM     10  C   UNL     1     -35.668  21.116   1.471  0.00  0.00    +0.007 C 
ATOM     11  C   UNL     1     -35.143  21.415   2.886  0.00  0.00    -0.075 C 
ATOM     12  C   UNL     1     -34.435  24.607   5.531  0.00  0.00    +0.006 C 
ATOM     13  C   UNL     1     -37.331  25.483   3.691  0.00  0.00    +0.002 C 
ATOM     14  C   UNL     1     -34.728  24.425   1.321  0.00  0.00    +0.005 C 
ATOM     15  C   UNL     1     -35.198  23.412   0.559  0.00  0.00    +0.156 C 
ATOM     16  C   UNL     1     -34.362  25.952   2.952  0.00  0.00    +0.094 C 
ATOM     17  C   UNL     1     -34.471  26.125   5.542  0.00  0.00    +0.065 C 
ATOM     18  C   UNL     1     -36.613  19.903   1.491  0.00  0.00    +0.000 C 
ATOM     19  C   UNL     1     -33.625  25.319   0.907  0.00  0.00    +0.066 C 
ATOM     20  C   UNL     1     -33.421  26.225   1.877  0.00  0.00    -0.025 C 
ATOM     21  C   UNL     1     -34.428  26.784   4.180  0.00  0.00    +0.158 C 
ATOM     22  H   UNL     1     -36.803  21.147   3.894  0.00  0.00    -0.080 HD
ENDROOT
BRANCH   8  23
ATOM     23  O   UNL     1     -36.922  22.080  -0.394  0.00  0.00    -0.384 OA
ATOM     24  H   UNL     1     -37.650  21.456  -0.244  0.00  0.00    +0.210 HD
ENDBRANCH   8  23
BRANCH  15  25
ATOM     25  O   UNL     1     -34.632  23.193  -0.695  0.00  0.00    -0.378 OA
ATOM     26  H   UNL     1     -33.781  23.532  -0.891  0.00  0.00    +0.211 HD
ENDBRANCH  15  25
BRANCH  19  28
ATOM     27  O   UNL     1     -33.051  25.912  -1.315  0.00  0.00    -0.245 OA
ATOM     28  C   UNL     1     -32.797  25.285  -0.295  0.00  0.00    +0.340 C 
BRANCH  28  29
ATOM     29  O   UNL     1     -31.738  24.463  -0.076  0.00  0.00    -0.441 OA
ATOM     30  C   UNL     1     -31.158  23.879  -1.248  0.00  0.00    +0.256 C 
ENDBRANCH  28  29
ENDBRANCH  19  28
BRANCH  20  31
ATOM     31  C   UNL     1     -32.395  27.303   1.975  0.00  0.00    +0.055 C 
BRANCH  31  32
ATOM     32  C   UNL     1     -31.229  26.914   2.875  0.00  0.00    +0.142 C 
BRANCH  32  33
ATOM     33  O   UNL     1     -30.441  25.919   2.235  0.00  0.00    -0.382 OA
ATOM     34  H   UNL     1     -29.702  26.341   1.770  0.00  0.00    +0.210 HD
ENDBRANCH  32  33
ENDBRANCH  31  32
ENDBRANCH  20  31
TORSDOF 7
ENDMDL
MODEL 7
REMARK VINA RESULT:      -5.6      2.604      6.489
REMARK  Name = 54724259
REMARK  7 active torsions:
REMARK  status: ('A' for Active; 'I' for Inactive)
REMARK    1  A    between atoms: C_8  and  O_23
REMARK    2  A    between atoms: C_15  and  O_25
REMARK    3  A    between atoms: C_19  and  C_28
REMARK    4  A    between atoms: C_20  and  C_31
REMARK    5  A    between atoms: C_28  and  O_29
REMARK    6  A    between atoms: C_31  and  C_32
REMARK    7  A    between atoms: C_32  and  O_33
REMARK                            x       y       z     vdW  Elec       q    Type
REMARK                         _______ _______ _______ _____ _____    ______ ____
ROOT
ATOM      1  O   UNL     1     -39.601  26.763   2.101  0.00  0.00    -0.295 OA
ATOM      2  N   UNL     1     -34.529  23.012   1.688  0.00  0.00    +0.389 N 
ATOM      3  C   UNL     1     -36.485  24.145   2.582  0.00  0.00    -0.003 C 
ATOM      4  C   UNL     1     -35.451  23.026   2.834  0.00  0.00    -0.052 C 
ATOM      5  C   UNL     1     -35.553  25.201   1.902  0.00  0.00    -0.019 C 
ATOM      6  C   UNL     1     -36.012  21.683   3.263  0.00  0.00    +0.009 C 
ATOM      7  C   UNL     1     -34.395  24.409   1.264  0.00  0.00    -0.077 C 
ATOM      8  C   UNL     1     -36.439  20.813   2.089  0.00  0.00    +0.113 C 
ATOM      9  C   UNL     1     -37.726  23.812   1.763  0.00  0.00    -0.038 C 
ATOM     10  C   UNL     1     -35.305  20.734   1.028  0.00  0.00    +0.007 C 
ATOM     11  C   UNL     1     -34.922  22.153   0.571  0.00  0.00    -0.075 C 
ATOM     12  C   UNL     1     -36.166  26.158   0.873  0.00  0.00    +0.006 C 
ATOM     13  C   UNL     1     -36.957  24.651   3.977  0.00  0.00    +0.002 C 
ATOM     14  C   UNL     1     -38.247  22.506   1.284  0.00  0.00    +0.005 C 
ATOM     15  C   UNL     1     -37.733  21.262   1.416  0.00  0.00    +0.156 C 
ATOM     16  C   UNL     1     -38.649  24.732   1.386  0.00  0.00    +0.094 C 
ATOM     17  C   UNL     1     -37.326  26.967   1.425  0.00  0.00    +0.065 C 
ATOM     18  C   UNL     1     -34.059  19.965   1.500  0.00  0.00    +0.000 C 
ATOM     19  C   UNL     1     -39.510  22.801   0.574  0.00  0.00    +0.066 C 
ATOM     20  C   UNL     1     -39.743  24.122   0.647  0.00  0.00    -0.025 C 
ATOM     21  C   UNL     1     -38.599  26.187   1.674  0.00  0.00    +0.158 C 
ATOM     22  H   UNL     1     -33.645  22.601   1.990  0.00  0.00    -0.080 HD
ENDROOT
BRANCH   8  23
ATOM     23  O   UNL     1     -36.687  19.500   2.623  0.00  0.00    -0.384 OA
ATOM     24  H   UNL     1     -37.643  19.365   2.718  0.00  0.00    +0.210 HD
ENDBRANCH   8  23
BRANCH  15  25
ATOM     25  O   UNL     1     -38.427  20.185   0.869  0.00  0.00    -0.378 OA
ATOM     26  H   UNL     1     -39.277  19.960   1.194  0.00  0.00    +0.211 HD
ENDBRANCH  15  25
BRANCH  19  28
ATOM     27  O   UNL     1     -41.257  21.212   0.375  0.00  0.00    -0.245 OA
ATOM     28  C   UNL     1     -40.400  21.905  -0.157  0.00  0.00    +0.340 C 
BRANCH  28  29
ATOM     29  O   UNL     1     -40.111  21.984  -1.482  0.00  0.00    -0.441 OA
ATOM     30  C   UNL     1     -40.405  20.811  -2.249  0.00  0.00    +0.256 C 
ENDBRANCH  28  29
ENDBRANCH  19  28
BRANCH  20  31
ATOM     31  C   UNL     1     -40.844  24.929   0.047  0.00  0.00    +0.055 C 
BRANCH  31  32
ATOM     32  C   UNL     1     -42.114  24.895   0.887  0.00  0.00    +0.142 C 
BRANCH  32  33
ATOM     33  O   UNL     1     -43.000  23.908   0.375  0.00  0.00    -0.382 OA
ATOM     34  H   UNL     1     -42.488  23.167   0.016  0.00  0.00    +0.210 HD
ENDBRANCH  32  33
ENDBRANCH  31  32
ENDBRANCH  20  31
TORSDOF 7
ENDMDL
MODEL 8
REMARK VINA RESULT:      -5.5      2.387      5.165
REMARK  Name = 54724259
REMARK  7 active torsions:
REMARK  status: ('A' for Active; 'I' for Inactive)
REMARK    1  A    between atoms: C_8  and  O_23
REMARK    2  A    between atoms: C_15  and  O_25
REMARK    3  A    between atoms: C_19  and  C_28
REMARK    4  A    between atoms: C_20  and  C_31
REMARK    5  A    between atoms: C_28  and  O_29
REMARK    6  A    between atoms: C_31  and  C_32
REMARK    7  A    between atoms: C_32  and  O_33
REMARK                            x       y       z     vdW  Elec       q    Type
REMARK                         _______ _______ _______ _____ _____    ______ ____
ROOT
ATOM      1  O   UNL     1     -37.075  21.206  -1.335  0.00  0.00    -0.295 OA
ATOM      2  N   UNL     1     -35.173  23.340   4.303  0.00  0.00    +0.389 N 
ATOM      3  C   UNL     1     -35.312  22.999   1.901  0.00  0.00    -0.003 C 
ATOM      4  C   UNL     1     -34.673  23.851   3.018  0.00  0.00    -0.052 C 
ATOM      5  C   UNL     1     -35.306  21.606   2.611  0.00  0.00    -0.019 C 
ATOM      6  C   UNL     1     -34.728  25.356   2.825  0.00  0.00    +0.009 C 
ATOM      7  C   UNL     1     -35.329  21.893   4.126  0.00  0.00    -0.077 C 
ATOM      8  C   UNL     1     -36.032  25.972   3.313  0.00  0.00    +0.113 C 
ATOM      9  C   UNL     1     -36.682  23.407   1.373  0.00  0.00    -0.038 C 
ATOM     10  C   UNL     1     -36.356  25.489   4.755  0.00  0.00    +0.007 C 
ATOM     11  C   UNL     1     -36.410  23.952   4.789  0.00  0.00    -0.075 C 
ATOM     12  C   UNL     1     -36.406  20.599   2.250  0.00  0.00    +0.006 C 
ATOM     13  C   UNL     1     -34.320  23.004   0.700  0.00  0.00    +0.002 C 
ATOM     14  C   UNL     1     -37.485  24.633   1.616  0.00  0.00    +0.005 C 
ATOM     15  C   UNL     1     -37.229  25.701   2.406  0.00  0.00    +0.156 C 
ATOM     16  C   UNL     1     -37.390  22.681   0.473  0.00  0.00    +0.094 C 
ATOM     17  C   UNL     1     -36.456  20.276   0.768  0.00  0.00    +0.065 C 
ATOM     18  C   UNL     1     -35.387  26.019   5.824  0.00  0.00    +0.000 C 
ATOM     19  C   UNL     1     -38.713  24.489   0.804  0.00  0.00    +0.066 C 
ATOM     20  C   UNL     1     -38.643  23.333   0.124  0.00  0.00    -0.025 C 
ATOM     21  C   UNL     1     -36.978  21.385  -0.120  0.00  0.00    +0.158 C 
ATOM     22  H   UNL     1     -34.500  23.582   5.031  0.00  0.00    -0.080 HD
ENDROOT
BRANCH   8  23
ATOM     23  O   UNL     1     -35.833  27.397   3.317  0.00  0.00    -0.384 OA
ATOM     24  H   UNL     1     -35.236  27.642   2.593  0.00  0.00    +0.210 HD
ENDBRANCH   8  23
BRANCH  15  25
ATOM     25  O   UNL     1     -38.158  26.738   2.459  0.00  0.00    -0.378 OA
ATOM     26  H   UNL     1     -38.286  27.292   1.713  0.00  0.00    +0.211 HD
ENDBRANCH  15  25
BRANCH  19  28
ATOM     27  O   UNL     1     -40.001  26.261  -0.099  0.00  0.00    -0.245 OA
ATOM     28  C   UNL     1     -39.882  25.359   0.718  0.00  0.00    +0.340 C 
BRANCH  28  29
ATOM     29  O   UNL     1     -40.773  24.992   1.676  0.00  0.00    -0.441 OA
ATOM     30  C   UNL     1     -41.601  26.044   2.184  0.00  0.00    +0.256 C 
ENDBRANCH  28  29
ENDBRANCH  19  28
BRANCH  20  31
ATOM     31  C   UNL     1     -39.643  22.698  -0.781  0.00  0.00    +0.055 C 
BRANCH  31  32
ATOM     32  C   UNL     1     -40.501  21.664  -0.064  0.00  0.00    +0.142 C 
BRANCH  32  33
ATOM     33  O   UNL     1     -40.511  21.934   1.332  0.00  0.00    -0.382 OA
ATOM     34  H   UNL     1     -40.554  21.099   1.823  0.00  0.00    +0.210 HD
ENDBRANCH  32  33
ENDBRANCH  31  32
ENDBRANCH  20  31
TORSDOF 7
ENDMDL
MODEL 9
REMARK VINA RESULT:      -5.5      3.376      5.420
REMARK  Name = 54724259
REMARK  7 active torsions:
REMARK  status: ('A' for Active; 'I' for Inactive)
REMARK    1  A    between atoms: C_8  and  O_23
REMARK    2  A    between atoms: C_15  and  O_25
REMARK    3  A    between atoms: C_19  and  C_28
REMARK    4  A    between atoms: C_20  and  C_31
REMARK    5  A    between atoms: C_28  and  O_29
REMARK    6  A    between atoms: C_31  and  C_32
REMARK    7  A    between atoms: C_32  and  O_33
REMARK                            x       y       z     vdW  Elec       q    Type
REMARK                         _______ _______ _______ _____ _____    ______ ____
ROOT
ATOM      1  O   UNL     1     -35.188  22.456  -0.617  0.00  0.00    -0.295 OA
ATOM      2  N   UNL     1     -32.081  27.694   1.080  0.00  0.00    +0.389 N 
ATOM      3  C   UNL     1     -33.777  26.229   0.138  0.00  0.00    -0.003 C 
ATOM      4  C   UNL     1     -33.432  27.690   0.498  0.00  0.00    -0.052 C 
ATOM      5  C   UNL     1     -32.368  25.748  -0.341  0.00  0.00    -0.019 C 
ATOM      6  C   UNL     1     -34.496  28.459   1.261  0.00  0.00    +0.009 C 
ATOM      7  C   UNL     1     -31.339  26.644   0.376  0.00  0.00    -0.077 C 
ATOM      8  C   UNL     1     -34.429  28.234   2.765  0.00  0.00    +0.113 C 
ATOM      9  C   UNL     1     -34.388  25.343   1.217  0.00  0.00    -0.038 C 
ATOM     10  C   UNL     1     -32.979  28.444   3.284  0.00  0.00    +0.007 C 
ATOM     11  C   UNL     1     -32.017  27.509   2.530  0.00  0.00    -0.075 C 
ATOM     12  C   UNL     1     -32.000  24.271  -0.153  0.00  0.00    +0.006 C 
ATOM     13  C   UNL     1     -34.773  26.277  -1.058  0.00  0.00    +0.002 C 
ATOM     14  C   UNL     1     -34.907  25.682   2.567  0.00  0.00    +0.005 C 
ATOM     15  C   UNL     1     -34.937  26.868   3.217  0.00  0.00    +0.156 C 
ATOM     16  C   UNL     1     -34.634  24.019   1.054  0.00  0.00    +0.094 C 
ATOM     17  C   UNL     1     -32.979  23.322  -0.821  0.00  0.00    +0.065 C 
ATOM     18  C   UNL     1     -32.490  29.900   3.203  0.00  0.00    +0.000 C 
ATOM     19  C   UNL     1     -35.414  24.418   3.143  0.00  0.00    +0.066 C 
ATOM     20  C   UNL     1     -35.255  23.440   2.235  0.00  0.00    -0.025 C 
ATOM     21  C   UNL     1     -34.335  23.218  -0.159  0.00  0.00    +0.158 C 
ATOM     22  H   UNL     1     -31.678  28.622   0.952  0.00  0.00    -0.080 HD
ENDROOT
BRANCH   8  23
ATOM     23  O   UNL     1     -35.299  29.214   3.362  0.00  0.00    -0.384 OA
ATOM     24  H   UNL     1     -35.939  28.769   3.939  0.00  0.00    +0.210 HD
ENDBRANCH   8  23
BRANCH  15  25
ATOM     25  O   UNL     1     -35.487  26.921   4.496  0.00  0.00    -0.378 OA
ATOM     26  H   UNL     1     -36.417  26.921   4.607  0.00  0.00    +0.211 HD
ENDBRANCH  15  25
BRANCH  19  28
ATOM     27  O   UNL     1     -37.149  24.255   4.749  0.00  0.00    -0.245 OA
ATOM     28  C   UNL     1     -35.963  24.150   4.469  0.00  0.00    +0.340 C 
BRANCH  28  29
ATOM     29  O   UNL     1     -34.950  23.780   5.296  0.00  0.00    -0.441 OA
ATOM     30  C   UNL     1     -35.169  22.575   6.038  0.00  0.00    +0.256 C 
ENDBRANCH  28  29
ENDBRANCH  19  28
BRANCH  20  31
ATOM     31  C   UNL     1     -35.549  21.982   2.344  0.00  0.00    +0.055 C 
BRANCH  31  32
ATOM     32  C   UNL     1     -37.035  21.677   2.201  0.00  0.00    +0.142 C 
BRANCH  32  33
ATOM     33  O   UNL     1     -37.251  20.278   2.335  0.00  0.00    -0.382 OA
ATOM     34  H   UNL     1     -36.568  19.796   1.843  0.00  0.00    +0.210 HD
ENDBRANCH  32  33
ENDBRANCH  31  32
ENDBRANCH  20  31
TORSDOF 7
ENDMDL
