MODEL 1
REMARK VINA RESULT:      -6.4      0.000      0.000
REMARK  Name = 54682134
REMARK  7 active torsions:
REMARK  status: ('A' for Active; 'I' for Inactive)
REMARK    1  A    between atoms: C_1  and  C_4
REMARK    2  A    between atoms: C_1  and  C_15
REMARK    3  A    between atoms: C_1  and  C_24
REMARK    4  A    between atoms: C_5  and  O_13
REMARK    5  A    between atoms: C_20  and  N_23
REMARK    6  A    between atoms: C_24  and  C_26
REMARK    7  A    between atoms: C_26  and  C_27
REMARK                            x       y       z     vdW  Elec       q    Type
REMARK                         _______ _______ _______ _____ _____    ______ ____
ROOT
ATOM      1  C   UNL     1     -36.284  22.789   1.978  0.00  0.00    +0.061 C 
ENDROOT
BRANCH   1   4
ATOM      2  O   UNL     1     -33.091  22.074   0.073  0.00  0.00    -0.421 OA
ATOM      3  O   UNL     1     -34.387  23.930   0.304  0.00  0.00    -0.245 OA
ATOM      4  C   UNL     1     -35.111  21.989   1.478  0.00  0.00    +0.092 A 
ATOM      5  C   UNL     1     -34.862  20.698   1.770  0.00  0.00    +0.139 A 
ATOM      6  C   UNL     1     -33.692  20.014   1.215  0.00  0.00    +0.068 A 
ATOM      7  C   UNL     1     -34.191  22.751   0.584  0.00  0.00    +0.345 A 
ATOM      8  C   UNL     1     -32.838  20.726   0.379  0.00  0.00    +0.152 A 
ATOM      9  C   UNL     1     -33.381  18.674   1.479  0.00  0.00    +0.006 C 
ATOM     10  C   UNL     1     -31.702  20.149  -0.192  0.00  0.00    +0.038 C 
ATOM     11  C   UNL     1     -32.247  18.079   0.915  0.00  0.00    +0.000 C 
ATOM     12  C   UNL     1     -31.409  18.817   0.080  0.00  0.00    +0.003 C 
BRANCH   5  13
ATOM     13  O   UNL     1     -35.646  19.915   2.588  0.00  0.00    -0.506 OA
ATOM     14  H   UNL     1     -35.671  20.080   3.511  0.00  0.00    +0.292 HD
ENDBRANCH   5  13
ENDBRANCH   1   4
BRANCH   1  15
ATOM     15  C   UNL     1     -37.576  22.310   1.338  0.00  0.00    -0.018 C 
ATOM     16  C   UNL     1     -37.707  22.307  -0.050  0.00  0.00    -0.002 C 
ATOM     17  C   UNL     1     -38.631  21.874   2.139  0.00  0.00    -0.002 C 
ATOM     18  C   UNL     1     -38.893  21.868  -0.638  0.00  0.00    +0.024 C 
ATOM     19  C   UNL     1     -39.817  21.434   1.552  0.00  0.00    +0.024 C 
ATOM     20  C   UNL     1     -39.947  21.431   0.163  0.00  0.00    +0.143 C 
BRANCH  20  23
ATOM     21  O   UNL     1     -41.213  19.813  -0.886  0.00  0.00    -0.126 OA
ATOM     22  O   UNL     1     -42.132  21.768  -0.496  0.00  0.00    -0.126 OA
ATOM     23  N   UNL     1     -41.155  20.982  -0.435  0.00  0.00    +0.058 N 
ENDBRANCH  20  23
ENDBRANCH   1  15
BRANCH   1  24
ATOM     24  C   UNL     1     -36.326  22.774   3.518  0.00  0.00    +0.074 C 
BRANCH  24  26
ATOM     25  O   UNL     1     -34.845  24.685   3.587  0.00  0.00    -0.296 OA
ATOM     26  C   UNL     1     -35.306  23.703   4.169  0.00  0.00    +0.151 C 
BRANCH  26  27
ATOM     27  C   UNL     1     -34.864  23.311   5.569  0.00  0.00    +0.065 C 
ATOM     28  C   UNL     1     -35.223  21.877   5.916  0.00  0.00    +0.008 C 
ENDBRANCH  26  27
ENDBRANCH  24  26
ENDBRANCH   1  24
TORSDOF 7
ENDMDL
MODEL 2
REMARK VINA RESULT:      -6.4      3.195      7.007
REMARK  Name = 54682134
REMARK  7 active torsions:
REMARK  status: ('A' for Active; 'I' for Inactive)
REMARK    1  A    between atoms: C_1  and  C_4
REMARK    2  A    between atoms: C_1  and  C_15
REMARK    3  A    between atoms: C_1  and  C_24
REMARK    4  A    between atoms: C_5  and  O_13
REMARK    5  A    between atoms: C_20  and  N_23
REMARK    6  A    between atoms: C_24  and  C_26
REMARK    7  A    between atoms: C_26  and  C_27
REMARK                            x       y       z     vdW  Elec       q    Type
REMARK                         _______ _______ _______ _____ _____    ______ ____
ROOT
ATOM      1  C   UNL     1     -35.191  20.724   0.745  0.00  0.00    +0.061 C 
ENDROOT
BRANCH   1   4
ATOM      2  O   UNL     1     -34.973  24.322   1.901  0.00  0.00    -0.421 OA
ATOM      3  O   UNL     1     -34.907  23.336  -0.148  0.00  0.00    -0.245 OA
ATOM      4  C   UNL     1     -35.175  21.876   1.713  0.00  0.00    +0.092 A 
ATOM      5  C   UNL     1     -35.291  21.776   3.051  0.00  0.00    +0.139 A 
ATOM      6  C   UNL     1     -35.250  22.969   3.900  0.00  0.00    +0.068 A 
ATOM      7  C   UNL     1     -35.009  23.211   1.068  0.00  0.00    +0.345 A 
ATOM      8  C   UNL     1     -35.091  24.211   3.297  0.00  0.00    +0.152 A 
ATOM      9  C   UNL     1     -35.363  22.930   5.296  0.00  0.00    +0.006 C 
ATOM     10  C   UNL     1     -35.041  25.397   4.033  0.00  0.00    +0.038 C 
ATOM     11  C   UNL     1     -35.314  24.107   6.051  0.00  0.00    +0.000 C 
ATOM     12  C   UNL     1     -35.154  25.339   5.418  0.00  0.00    +0.003 C 
BRANCH   5  13
ATOM     13  O   UNL     1     -35.455  20.592   3.736  0.00  0.00    -0.506 OA
ATOM     14  H   UNL     1     -35.291  19.776   3.307  0.00  0.00    +0.292 HD
ENDBRANCH   5  13
ENDBRANCH   1   4
BRANCH   1  15
ATOM     15  C   UNL     1     -33.845  20.019   0.723  0.00  0.00    -0.018 C 
ATOM     16  C   UNL     1     -33.684  18.805   1.389  0.00  0.00    -0.002 C 
ATOM     17  C   UNL     1     -32.771  20.587   0.038  0.00  0.00    -0.002 C 
ATOM     18  C   UNL     1     -32.448  18.157   1.370  0.00  0.00    +0.024 C 
ATOM     19  C   UNL     1     -31.536  19.940   0.018  0.00  0.00    +0.024 C 
ATOM     20  C   UNL     1     -31.375  18.725   0.684  0.00  0.00    +0.143 C 
BRANCH  20  23
ATOM     21  O   UNL     1     -30.064  16.846   0.952  0.00  0.00    -0.126 OA
ATOM     22  O   UNL     1     -29.092  18.722   0.355  0.00  0.00    -0.126 OA
ATOM     23  N   UNL     1     -30.117  18.066   0.663  0.00  0.00    +0.058 N 
ENDBRANCH  20  23
ENDBRANCH   1  15
BRANCH   1  24
ATOM     24  C   UNL     1     -36.368  19.779   1.054  0.00  0.00    +0.074 C 
BRANCH  24  26
ATOM     25  O   UNL     1     -37.702  19.876  -0.962  0.00  0.00    -0.296 OA
ATOM     26  C   UNL     1     -37.028  19.194  -0.191  0.00  0.00    +0.151 C 
BRANCH  26  27
ATOM     27  C   UNL     1     -36.833  17.700  -0.393  0.00  0.00    +0.065 C 
ATOM     28  C   UNL     1     -35.700  17.381  -1.352  0.00  0.00    +0.008 C 
ENDBRANCH  26  27
ENDBRANCH  24  26
ENDBRANCH   1  24
TORSDOF 7
ENDMDL
MODEL 3
REMARK VINA RESULT:      -6.4      2.895      6.617
REMARK  Name = 54682134
REMARK  7 active torsions:
REMARK  status: ('A' for Active; 'I' for Inactive)
REMARK    1  A    between atoms: C_1  and  C_4
REMARK    2  A    between atoms: C_1  and  C_15
REMARK    3  A    between atoms: C_1  and  C_24
REMARK    4  A    between atoms: C_5  and  O_13
REMARK    5  A    between atoms: C_20  and  N_23
REMARK    6  A    between atoms: C_24  and  C_26
REMARK    7  A    between atoms: C_26  and  C_27
REMARK                            x       y       z     vdW  Elec       q    Type
REMARK                         _______ _______ _______ _____ _____    ______ ____
ROOT
ATOM      1  C   UNL     1     -35.376  21.165   0.739  0.00  0.00    +0.061 C 
ENDROOT
BRANCH   1   4
ATOM      2  O   UNL     1     -34.951  24.720   1.967  0.00  0.00    -0.421 OA
ATOM      3  O   UNL     1     -34.979  23.779  -0.103  0.00  0.00    -0.245 OA
ATOM      4  C   UNL     1     -35.281  22.292   1.731  0.00  0.00    +0.092 A 
ATOM      5  C   UNL     1     -35.373  22.168   3.069  0.00  0.00    +0.139 A 
ATOM      6  C   UNL     1     -35.254  23.337   3.943  0.00  0.00    +0.068 A 
ATOM      7  C   UNL     1     -35.061  23.632   1.112  0.00  0.00    +0.345 A 
ATOM      8  C   UNL     1     -35.045  24.584   3.363  0.00  0.00    +0.152 A 
ATOM      9  C   UNL     1     -35.338  23.272   5.340  0.00  0.00    +0.006 C 
ATOM     10  C   UNL     1     -34.919  25.748   4.124  0.00  0.00    +0.038 C 
ATOM     11  C   UNL     1     -35.214  24.428   6.118  0.00  0.00    +0.000 C 
ATOM     12  C   UNL     1     -35.004  25.665   5.509  0.00  0.00    +0.003 C 
BRANCH   5  13
ATOM     13  O   UNL     1     -35.582  20.978   3.732  0.00  0.00    -0.506 OA
ATOM     14  H   UNL     1     -36.425  20.568   3.704  0.00  0.00    +0.292 HD
ENDBRANCH   5  13
ENDBRANCH   1   4
BRANCH   1  15
ATOM     15  C   UNL     1     -34.095  20.349   0.725  0.00  0.00    -0.018 C 
ATOM     16  C   UNL     1     -34.052  19.107   1.358  0.00  0.00    -0.002 C 
ATOM     17  C   UNL     1     -32.960  20.842   0.080  0.00  0.00    -0.002 C 
ATOM     18  C   UNL     1     -32.876  18.358   1.346  0.00  0.00    +0.024 C 
ATOM     19  C   UNL     1     -31.784  20.093   0.067  0.00  0.00    +0.024 C 
ATOM     20  C   UNL     1     -31.742  18.851   0.701  0.00  0.00    +0.143 C 
BRANCH  20  23
ATOM     21  O   UNL     1     -29.459  18.663   0.429  0.00  0.00    -0.126 OA
ATOM     22  O   UNL     1     -30.603  16.859   0.934  0.00  0.00    -0.126 OA
ATOM     23  N   UNL     1     -30.545  18.088   0.687  0.00  0.00    +0.058 N 
ENDBRANCH  20  23
ENDBRANCH   1  15
BRANCH   1  24
ATOM     24  C   UNL     1     -36.634  20.317   1.008  0.00  0.00    +0.074 C 
BRANCH  24  26
ATOM     25  O   UNL     1     -38.230  21.317  -0.510  0.00  0.00    -0.296 OA
ATOM     26  C   UNL     1     -37.938  21.023   0.649  0.00  0.00    +0.151 C 
BRANCH  26  27
ATOM     27  C   UNL     1     -38.834  21.379   1.823  0.00  0.00    +0.065 C 
ATOM     28  C   UNL     1     -38.927  22.876   2.057  0.00  0.00    +0.008 C 
ENDBRANCH  26  27
ENDBRANCH  24  26
ENDBRANCH   1  24
TORSDOF 7
ENDMDL
MODEL 4
REMARK VINA RESULT:      -6.4      4.359      7.819
REMARK  Name = 54682134
REMARK  7 active torsions:
REMARK  status: ('A' for Active; 'I' for Inactive)
REMARK    1  A    between atoms: C_1  and  C_4
REMARK    2  A    between atoms: C_1  and  C_15
REMARK    3  A    between atoms: C_1  and  C_24
REMARK    4  A    between atoms: C_5  and  O_13
REMARK    5  A    between atoms: C_20  and  N_23
REMARK    6  A    between atoms: C_24  and  C_26
REMARK    7  A    between atoms: C_26  and  C_27
REMARK                            x       y       z     vdW  Elec       q    Type
REMARK                         _______ _______ _______ _____ _____    ______ ____
ROOT
ATOM      1  C   UNL     1     -35.824  23.779   3.017  0.00  0.00    +0.061 C 
ENDROOT
BRANCH   1   4
ATOM      2  O   UNL     1     -37.772  25.003   0.010  0.00  0.00    -0.421 OA
ATOM      3  O   UNL     1     -35.773  23.942   0.247  0.00  0.00    -0.245 OA
ATOM      4  C   UNL     1     -36.958  24.413   2.258  0.00  0.00    +0.092 A 
ATOM      5  C   UNL     1     -38.068  24.944   2.806  0.00  0.00    +0.139 A 
ATOM      6  C   UNL     1     -39.106  25.547   1.967  0.00  0.00    +0.068 A 
ATOM      7  C   UNL     1     -36.770  24.423   0.778  0.00  0.00    +0.345 A 
ATOM      8  C   UNL     1     -38.926  25.558   0.589  0.00  0.00    +0.152 A 
ATOM      9  C   UNL     1     -40.280  26.117   2.478  0.00  0.00    +0.006 C 
ATOM     10  C   UNL     1     -39.866  26.114  -0.281  0.00  0.00    +0.038 C 
ATOM     11  C   UNL     1     -41.233  26.679   1.621  0.00  0.00    +0.000 C 
ATOM     12  C   UNL     1     -41.025  26.677   0.242  0.00  0.00    +0.003 C 
BRANCH   5  13
ATOM     13  O   UNL     1     -38.335  24.975   4.157  0.00  0.00    -0.506 OA
ATOM     14  H   UNL     1     -38.241  25.776   4.635  0.00  0.00    +0.292 HD
ENDBRANCH   5  13
ENDBRANCH   1   4
BRANCH   1  15
ATOM     15  C   UNL     1     -34.956  24.840   3.674  0.00  0.00    -0.018 C 
ATOM     16  C   UNL     1     -35.078  25.092   5.040  0.00  0.00    -0.002 C 
ATOM     17  C   UNL     1     -34.038  25.561   2.911  0.00  0.00    -0.002 C 
ATOM     18  C   UNL     1     -34.283  26.066   5.643  0.00  0.00    +0.024 C 
ATOM     19  C   UNL     1     -33.242  26.534   3.514  0.00  0.00    +0.024 C 
ATOM     20  C   UNL     1     -33.364  26.786   4.881  0.00  0.00    +0.143 C 
BRANCH  20  23
ATOM     21  O   UNL     1     -31.740  27.431   6.386  0.00  0.00    -0.126 OA
ATOM     22  O   UNL     1     -32.670  28.972   5.128  0.00  0.00    -0.126 OA
ATOM     23  N   UNL     1     -32.553  27.776   5.494  0.00  0.00    +0.058 N 
ENDBRANCH  20  23
ENDBRANCH   1  15
BRANCH   1  24
ATOM     24  C   UNL     1     -36.361  22.732   4.011  0.00  0.00    +0.074 C 
BRANCH  24  26
ATOM     25  O   UNL     1     -35.327  20.681   3.252  0.00  0.00    -0.296 OA
ATOM     26  C   UNL     1     -35.464  21.506   4.155  0.00  0.00    +0.151 C 
BRANCH  26  27
ATOM     27  C   UNL     1     -34.784  21.350   5.505  0.00  0.00    +0.065 C 
ATOM     28  C   UNL     1     -35.524  22.066   6.620  0.00  0.00    +0.008 C 
ENDBRANCH  26  27
ENDBRANCH  24  26
ENDBRANCH   1  24
TORSDOF 7
ENDMDL
MODEL 5
REMARK VINA RESULT:      -6.4      3.792      6.968
REMARK  Name = 54682134
REMARK  7 active torsions:
REMARK  status: ('A' for Active; 'I' for Inactive)
REMARK    1  A    between atoms: C_1  and  C_4
REMARK    2  A    between atoms: C_1  and  C_15
REMARK    3  A    between atoms: C_1  and  C_24
REMARK    4  A    between atoms: C_5  and  O_13
REMARK    5  A    between atoms: C_20  and  N_23
REMARK    6  A    between atoms: C_24  and  C_26
REMARK    7  A    between atoms: C_26  and  C_27
REMARK                            x       y       z     vdW  Elec       q    Type
REMARK                         _______ _______ _______ _____ _____    ______ ____
ROOT
ATOM      1  C   UNL     1     -36.349  24.995   3.938  0.00  0.00    +0.061 C 
ENDROOT
BRANCH   1   4
ATOM      2  O   UNL     1     -35.461  21.321   3.747  0.00  0.00    -0.421 OA
ATOM      3  O   UNL     1     -36.331  22.630   5.390  0.00  0.00    -0.245 OA
ATOM      4  C   UNL     1     -35.857  23.713   3.323  0.00  0.00    +0.092 A 
ATOM      5  C   UNL     1     -35.395  23.573   2.066  0.00  0.00    +0.139 A 
ATOM      6  C   UNL     1     -34.929  22.275   1.576  0.00  0.00    +0.068 A 
ATOM      7  C   UNL     1     -35.909  22.538   4.241  0.00  0.00    +0.345 A 
ATOM      8  C   UNL     1     -34.976  21.182   2.435  0.00  0.00    +0.152 A 
ATOM      9  C   UNL     1     -34.435  22.067   0.281  0.00  0.00    +0.006 C 
ATOM     10  C   UNL     1     -34.550  19.910   2.047  0.00  0.00    +0.038 C 
ATOM     11  C   UNL     1     -34.004  20.799  -0.125  0.00  0.00    +0.000 C 
ATOM     12  C   UNL     1     -34.062  19.722   0.759  0.00  0.00    +0.003 C 
BRANCH   5  13
ATOM     13  O   UNL     1     -35.314  24.594   1.144  0.00  0.00    -0.506 OA
ATOM     14  H   UNL     1     -34.867  25.389   1.362  0.00  0.00    +0.292 HD
ENDBRANCH   5  13
ENDBRANCH   1   4
BRANCH   1  15
ATOM     15  C   UNL     1     -35.183  25.861   4.385  0.00  0.00    -0.018 C 
ATOM     16  C   UNL     1     -34.652  25.707   5.665  0.00  0.00    -0.002 C 
ATOM     17  C   UNL     1     -34.644  26.809   3.515  0.00  0.00    -0.002 C 
ATOM     18  C   UNL     1     -33.582  26.502   6.076  0.00  0.00    +0.024 C 
ATOM     19  C   UNL     1     -33.574  27.603   3.926  0.00  0.00    +0.024 C 
ATOM     20  C   UNL     1     -33.042  27.449   5.207  0.00  0.00    +0.143 C 
BRANCH  20  23
ATOM     21  O   UNL     1     -32.184  29.397   6.095  0.00  0.00    -0.126 OA
ATOM     22  O   UNL     1     -30.785  27.809   5.510  0.00  0.00    -0.126 OA
ATOM     23  N   UNL     1     -31.952  28.257   5.624  0.00  0.00    +0.058 N 
ENDBRANCH  20  23
ENDBRANCH   1  15
BRANCH   1  24
ATOM     24  C   UNL     1     -37.309  25.719   2.974  0.00  0.00    +0.074 C 
BRANCH  24  26
ATOM     25  O   UNL     1     -39.288  24.551   3.729  0.00  0.00    -0.296 OA
ATOM     26  C   UNL     1     -38.642  25.003   2.784  0.00  0.00    +0.151 C 
BRANCH  26  27
ATOM     27  C   UNL     1     -39.100  24.846   1.343  0.00  0.00    +0.065 C 
ATOM     28  C   UNL     1     -38.891  23.439   0.812  0.00  0.00    +0.008 C 
ENDBRANCH  26  27
ENDBRANCH  24  26
ENDBRANCH   1  24
TORSDOF 7
ENDMDL
MODEL 6
REMARK VINA RESULT:      -6.2      2.763      5.612
REMARK  Name = 54682134
REMARK  7 active torsions:
REMARK  status: ('A' for Active; 'I' for Inactive)
REMARK    1  A    between atoms: C_1  and  C_4
REMARK    2  A    between atoms: C_1  and  C_15
REMARK    3  A    between atoms: C_1  and  C_24
REMARK    4  A    between atoms: C_5  and  O_13
REMARK    5  A    between atoms: C_20  and  N_23
REMARK    6  A    between atoms: C_24  and  C_26
REMARK    7  A    between atoms: C_26  and  C_27
REMARK                            x       y       z     vdW  Elec       q    Type
REMARK                         _______ _______ _______ _____ _____    ______ ____
ROOT
ATOM      1  C   UNL     1     -36.428  22.876   3.103  0.00  0.00    +0.061 C 
ENDROOT
BRANCH   1   4
ATOM      2  O   UNL     1     -34.759  24.715   5.960  0.00  0.00    -0.421 OA
ATOM      3  O   UNL     1     -36.084  22.869   5.857  0.00  0.00    -0.245 OA
ATOM      4  C   UNL     1     -35.586  23.923   3.781  0.00  0.00    +0.092 A 
ATOM      5  C   UNL     1     -34.937  24.928   3.162  0.00  0.00    +0.139 A 
ATOM      6  C   UNL     1     -34.153  25.900   3.926  0.00  0.00    +0.068 A 
ATOM      7  C   UNL     1     -35.510  23.777   5.264  0.00  0.00    +0.345 A 
ATOM      8  C   UNL     1     -34.088  25.764   5.309  0.00  0.00    +0.152 A 
ATOM      9  C   UNL     1     -33.460  26.968   3.341  0.00  0.00    +0.006 C 
ATOM     10  C   UNL     1     -33.364  26.648   6.111  0.00  0.00    +0.038 C 
ATOM     11  C   UNL     1     -32.729  27.863   4.130  0.00  0.00    +0.000 C 
ATOM     12  C   UNL     1     -32.682  27.702   5.514  0.00  0.00    +0.003 C 
BRANCH   5  13
ATOM     13  O   UNL     1     -34.941  25.141   1.801  0.00  0.00    -0.506 OA
ATOM     14  H   UNL     1     -34.136  25.115   1.320  0.00  0.00    +0.292 HD
ENDBRANCH   5  13
ENDBRANCH   1   4
BRANCH   1  15
ATOM     15  C   UNL     1     -37.752  23.463   2.643  0.00  0.00    -0.018 C 
ATOM     16  C   UNL     1     -38.348  23.004   1.469  0.00  0.00    -0.002 C 
ATOM     17  C   UNL     1     -38.370  24.462   3.395  0.00  0.00    -0.002 C 
ATOM     18  C   UNL     1     -39.563  23.543   1.047  0.00  0.00    +0.024 C 
ATOM     19  C   UNL     1     -39.585  25.001   2.973  0.00  0.00    +0.024 C 
ATOM     20  C   UNL     1     -40.181  24.541   1.799  0.00  0.00    +0.143 C 
BRANCH  20  23
ATOM     21  O   UNL     1     -41.548  26.338   1.322  0.00  0.00    -0.126 OA
ATOM     22  O   UNL     1     -42.351  24.312   1.050  0.00  0.00    -0.126 OA
ATOM     23  N   UNL     1     -41.419  25.090   1.370  0.00  0.00    +0.058 N 
ENDBRANCH  20  23
ENDBRANCH   1  15
BRANCH   1  24
ATOM     24  C   UNL     1     -35.635  22.201   1.967  0.00  0.00    +0.074 C 
BRANCH  24  26
ATOM     25  O   UNL     1     -35.174  20.341   3.444  0.00  0.00    -0.296 OA
ATOM     26  C   UNL     1     -35.183  20.781   2.295  0.00  0.00    +0.151 C 
BRANCH  26  27
ATOM     27  C   UNL     1     -34.703  19.959   1.110  0.00  0.00    +0.065 C 
ATOM     28  C   UNL     1     -33.533  19.056   1.460  0.00  0.00    +0.008 C 
ENDBRANCH  26  27
ENDBRANCH  24  26
ENDBRANCH   1  24
TORSDOF 7
ENDMDL
MODEL 7
REMARK VINA RESULT:      -6.0      2.821      5.671
REMARK  Name = 54682134
REMARK  7 active torsions:
REMARK  status: ('A' for Active; 'I' for Inactive)
REMARK    1  A    between atoms: C_1  and  C_4
REMARK    2  A    between atoms: C_1  and  C_15
REMARK    3  A    between atoms: C_1  and  C_24
REMARK    4  A    between atoms: C_5  and  O_13
REMARK    5  A    between atoms: C_20  and  N_23
REMARK    6  A    between atoms: C_24  and  C_26
REMARK    7  A    between atoms: C_26  and  C_27
REMARK                            x       y       z     vdW  Elec       q    Type
REMARK                         _______ _______ _______ _____ _____    ______ ____
ROOT
ATOM      1  C   UNL     1     -35.999  22.842   1.987  0.00  0.00    +0.061 C 
ENDROOT
BRANCH   1   4
ATOM      2  O   UNL     1     -34.255  19.484   1.853  0.00  0.00    -0.421 OA
ATOM      3  O   UNL     1     -36.083  20.248   2.971  0.00  0.00    -0.245 OA
ATOM      4  C   UNL     1     -34.980  21.819   1.563  0.00  0.00    +0.092 A 
ATOM      5  C   UNL     1     -33.965  22.034   0.703  0.00  0.00    +0.139 A 
ATOM      6  C   UNL     1     -33.023  20.963   0.370  0.00  0.00    +0.068 A 
ATOM      7  C   UNL     1     -35.165  20.478   2.189  0.00  0.00    +0.345 A 
ATOM      8  C   UNL     1     -33.197  19.716   0.958  0.00  0.00    +0.152 A 
ATOM      9  C   UNL     1     -31.948  21.126  -0.514  0.00  0.00    +0.006 C 
ATOM     10  C   UNL     1     -32.343  18.642   0.696  0.00  0.00    +0.038 C 
ATOM     11  C   UNL     1     -31.082  20.062  -0.789  0.00  0.00    +0.000 C 
ATOM     12  C   UNL     1     -31.280  18.821  -0.183  0.00  0.00    +0.003 C 
BRANCH   5  13
ATOM     13  O   UNL     1     -33.717  23.232   0.070  0.00  0.00    -0.506 OA
ATOM     14  H   UNL     1     -34.379  23.895   0.044  0.00  0.00    +0.292 HD
ENDBRANCH   5  13
ENDBRANCH   1   4
BRANCH   1  15
ATOM     15  C   UNL     1     -35.358  23.915   2.850  0.00  0.00    -0.018 C 
ATOM     16  C   UNL     1     -35.173  25.200   2.342  0.00  0.00    -0.002 C 
ATOM     17  C   UNL     1     -34.954  23.615   4.152  0.00  0.00    -0.002 C 
ATOM     18  C   UNL     1     -34.584  26.186   3.134  0.00  0.00    +0.024 C 
ATOM     19  C   UNL     1     -34.366  24.600   4.944  0.00  0.00    +0.024 C 
ATOM     20  C   UNL     1     -34.181  25.886   4.435  0.00  0.00    +0.143 C 
BRANCH  20  23
ATOM     21  O   UNL     1     -33.480  26.695   6.478  0.00  0.00    -0.126 OA
ATOM     22  O   UNL     1     -33.173  27.944   4.698  0.00  0.00    -0.126 OA
ATOM     23  N   UNL     1     -33.583  26.889   5.242  0.00  0.00    +0.058 N 
ENDBRANCH  20  23
ENDBRANCH   1  15
BRANCH   1  24
ATOM     24  C   UNL     1     -36.735  23.409   0.758  0.00  0.00    +0.074 C 
BRANCH  24  26
ATOM     25  O   UNL     1     -38.939  24.231   0.197  0.00  0.00    -0.296 OA
ATOM     26  C   UNL     1     -38.237  23.574   0.965  0.00  0.00    +0.151 C 
BRANCH  26  27
ATOM     27  C   UNL     1     -38.802  22.909   2.209  0.00  0.00    +0.065 C 
ATOM     28  C   UNL     1     -39.434  21.559   1.916  0.00  0.00    +0.008 C 
ENDBRANCH  26  27
ENDBRANCH  24  26
ENDBRANCH   1  24
TORSDOF 7
ENDMDL
MODEL 8
REMARK VINA RESULT:      -5.9      3.811      7.880
REMARK  Name = 54682134
REMARK  7 active torsions:
REMARK  status: ('A' for Active; 'I' for Inactive)
REMARK    1  A    between atoms: C_1  and  C_4
REMARK    2  A    between atoms: C_1  and  C_15
REMARK    3  A    between atoms: C_1  and  C_24
REMARK    4  A    between atoms: C_5  and  O_13
REMARK    5  A    between atoms: C_20  and  N_23
REMARK    6  A    between atoms: C_24  and  C_26
REMARK    7  A    between atoms: C_26  and  C_27
REMARK                            x       y       z     vdW  Elec       q    Type
REMARK                         _______ _______ _______ _____ _____    ______ ____
ROOT
ATOM      1  C   UNL     1     -35.928  23.600   2.492  0.00  0.00    +0.061 C 
ENDROOT
BRANCH   1   4
ATOM      2  O   UNL     1     -38.600  24.738   0.064  0.00  0.00    -0.421 OA
ATOM      3  O   UNL     1     -36.558  23.772  -0.205  0.00  0.00    -0.245 OA
ATOM      4  C   UNL     1     -37.240  24.182   2.039  0.00  0.00    +0.092 A 
ATOM      5  C   UNL     1     -38.207  24.659   2.847  0.00  0.00    +0.139 A 
ATOM      6  C   UNL     1     -39.443  25.214   2.293  0.00  0.00    +0.068 A 
ATOM      7  C   UNL     1     -37.417  24.205   0.557  0.00  0.00    +0.345 A 
ATOM      8  C   UNL     1     -39.603  25.238   0.911  0.00  0.00    +0.152 A 
ATOM      9  C   UNL     1     -40.483  25.728   3.080  0.00  0.00    +0.006 C 
ATOM     10  C   UNL     1     -40.750  25.751   0.303  0.00  0.00    +0.038 C 
ATOM     11  C   UNL     1     -41.639  26.246   2.487  0.00  0.00    +0.000 C 
ATOM     12  C   UNL     1     -41.772  26.257   1.099  0.00  0.00    +0.003 C 
BRANCH   5  13
ATOM     13  O   UNL     1     -38.140  24.674   4.223  0.00  0.00    -0.506 OA
ATOM     14  H   UNL     1     -37.736  25.396   4.664  0.00  0.00    +0.292 HD
ENDBRANCH   5  13
ENDBRANCH   1   4
BRANCH   1  15
ATOM     15  C   UNL     1     -35.172  24.591   3.362  0.00  0.00    -0.018 C 
ATOM     16  C   UNL     1     -34.811  24.242   4.662  0.00  0.00    -0.002 C 
ATOM     17  C   UNL     1     -34.839  25.849   2.859  0.00  0.00    -0.002 C 
ATOM     18  C   UNL     1     -34.117  25.150   5.461  0.00  0.00    +0.024 C 
ATOM     19  C   UNL     1     -34.145  26.757   3.657  0.00  0.00    +0.024 C 
ATOM     20  C   UNL     1     -33.784  26.408   4.959  0.00  0.00    +0.143 C 
BRANCH  20  23
ATOM     21  O   UNL     1     -32.562  28.344   5.235  0.00  0.00    -0.126 OA
ATOM     22  O   UNL     1     -32.984  27.114   7.004  0.00  0.00    -0.126 OA
ATOM     23  N   UNL     1     -33.076  27.333   5.771  0.00  0.00    +0.058 N 
ENDBRANCH  20  23
ENDBRANCH   1  15
BRANCH   1  24
ATOM     24  C   UNL     1     -36.152  22.238   3.175  0.00  0.00    +0.074 C 
BRANCH  24  26
ATOM     25  O   UNL     1     -36.708  20.112   2.164  0.00  0.00    -0.296 OA
ATOM     26  C   UNL     1     -35.910  21.044   2.257  0.00  0.00    +0.151 C 
BRANCH  26  27
ATOM     27  C   UNL     1     -34.595  21.062   1.495  0.00  0.00    +0.065 C 
ATOM     28  C   UNL     1     -33.997  19.677   1.326  0.00  0.00    +0.008 C 
ENDBRANCH  26  27
ENDBRANCH  24  26
ENDBRANCH   1  24
TORSDOF 7
ENDMDL
MODEL 9
REMARK VINA RESULT:      -5.8      3.053      7.005
REMARK  Name = 54682134
REMARK  7 active torsions:
REMARK  status: ('A' for Active; 'I' for Inactive)
REMARK    1  A    between atoms: C_1  and  C_4
REMARK    2  A    between atoms: C_1  and  C_15
REMARK    3  A    between atoms: C_1  and  C_24
REMARK    4  A    between atoms: C_5  and  O_13
REMARK    5  A    between atoms: C_20  and  N_23
REMARK    6  A    between atoms: C_24  and  C_26
REMARK    7  A    between atoms: C_26  and  C_27
REMARK                            x       y       z     vdW  Elec       q    Type
REMARK                         _______ _______ _______ _____ _____    ______ ____
ROOT
ATOM      1  C   UNL     1     -35.136  21.189   0.855  0.00  0.00    +0.061 C 
ENDROOT
BRANCH   1   4
ATOM      2  O   UNL     1     -35.468  22.368   4.436  0.00  0.00    -0.421 OA
ATOM      3  O   UNL     1     -35.816  20.365   3.416  0.00  0.00    -0.245 OA
ATOM      4  C   UNL     1     -35.081  22.145   2.016  0.00  0.00    +0.092 A 
ATOM      5  C   UNL     1     -34.715  23.440   1.948  0.00  0.00    +0.139 A 
ATOM      6  C   UNL     1     -34.710  24.283   3.145  0.00  0.00    +0.068 A 
ATOM      7  C   UNL     1     -35.483  21.543   3.320  0.00  0.00    +0.345 A 
ATOM      8  C   UNL     1     -35.088  23.719   4.359  0.00  0.00    +0.152 A 
ATOM      9  C   UNL     1     -34.342  25.635   3.138  0.00  0.00    +0.006 C 
ATOM     10  C   UNL     1     -35.112  24.454   5.546  0.00  0.00    +0.038 C 
ATOM     11  C   UNL     1     -34.360  26.386   4.319  0.00  0.00    +0.000 C 
ATOM     12  C   UNL     1     -34.745  25.795   5.521  0.00  0.00    +0.003 C 
BRANCH   5  13
ATOM     13  O   UNL     1     -34.322  24.082   0.795  0.00  0.00    -0.506 OA
ATOM     14  H   UNL     1     -33.606  23.746   0.291  0.00  0.00    +0.292 HD
ENDBRANCH   5  13
ENDBRANCH   1   4
BRANCH   1  15
ATOM     15  C   UNL     1     -33.872  20.349   0.788  0.00  0.00    -0.018 C 
ATOM     16  C   UNL     1     -33.848  19.079   1.364  0.00  0.00    -0.002 C 
ATOM     17  C   UNL     1     -32.735  20.847   0.152  0.00  0.00    -0.002 C 
ATOM     18  C   UNL     1     -32.688  18.307   1.304  0.00  0.00    +0.024 C 
ATOM     19  C   UNL     1     -31.575  20.076   0.091  0.00  0.00    +0.024 C 
ATOM     20  C   UNL     1     -31.552  18.805   0.667  0.00  0.00    +0.143 C 
BRANCH  20  23
ATOM     21  O   UNL     1     -29.275  18.585   0.368  0.00  0.00    -0.126 OA
ATOM     22  O   UNL     1     -30.454  16.781   0.786  0.00  0.00    -0.126 OA
ATOM     23  N   UNL     1     -30.371  18.020   0.604  0.00  0.00    +0.058 N 
ENDBRANCH  20  23
ENDBRANCH   1  15
BRANCH   1  24
ATOM     24  C   UNL     1     -36.424  20.346   0.914  0.00  0.00    +0.074 C 
BRANCH  24  26
ATOM     25  O   UNL     1     -37.257  21.078  -1.236  0.00  0.00    -0.296 OA
ATOM     26  C   UNL     1     -37.503  20.806  -0.061  0.00  0.00    +0.151 C 
BRANCH  26  27
ATOM     27  C   UNL     1     -38.898  20.949   0.526  0.00  0.00    +0.065 C 
ATOM     28  C   UNL     1     -38.895  21.630   1.884  0.00  0.00    +0.008 C 
ENDBRANCH  26  27
ENDBRANCH  24  26
ENDBRANCH   1  24
TORSDOF 7
ENDMDL
