MODEL 1
REMARK VINA RESULT:      -7.2      0.000      0.000
REMARK  Name = 5317207
REMARK  5 active torsions:
REMARK  status: ('A' for Active; 'I' for Inactive)
REMARK    1  A    between atoms: C_3  and  C_19
REMARK    2  A    between atoms: C_8  and  O_13
REMARK    3  A    between atoms: C_10  and  O_15
REMARK    4  A    between atoms: C_11  and  C_18
REMARK    5  A    between atoms: C_19  and  C_22
REMARK                            x       y       z     vdW  Elec       q    Type
REMARK                         _______ _______ _______ _____ _____    ______ ____
ROOT
ATOM      1  O   UNL     1     -35.059  22.169   3.572  0.00  0.00    -0.451 OA
ATOM      2  O   UNL     1     -38.209  24.739   3.939  0.00  0.00    -0.287 OA
ATOM      3  C   UNL     1     -36.013  24.158   4.582  0.00  0.00    +0.059 C 
ATOM      4  C   UNL     1     -37.318  22.787   2.927  0.00  0.00    +0.107 A 
ATOM      5  C   UNL     1     -36.205  21.949   2.849  0.00  0.00    +0.150 A 
ATOM      6  C   UNL     1     -37.271  23.960   3.819  0.00  0.00    +0.201 C 
ATOM      7  C   UNL     1     -36.226  20.834   2.011  0.00  0.00    +0.047 A 
ATOM      8  C   UNL     1     -38.458  22.514   2.168  0.00  0.00    +0.146 A 
ATOM      9  C   UNL     1     -35.031  23.265   4.399  0.00  0.00    +0.179 C 
ATOM     10  C   UNL     1     -37.363  20.560   1.252  0.00  0.00    +0.139 A 
ATOM     11  C   UNL     1     -38.476  21.398   1.330  0.00  0.00    +0.109 A 
ATOM     12  C   UNL     1     -35.036  19.931   1.924  0.00  0.00    +0.037 C 
ENDROOT
BRANCH   8  13
ATOM     13  O   UNL     1     -39.563  23.312   2.220  0.00  0.00    -0.505 OA
ATOM     14  H   UNL     1     -39.693  23.975   1.571  0.00  0.00    +0.292 HD
ENDBRANCH   8  13
BRANCH  10  15
ATOM     15  O   UNL     1     -37.385  19.468   0.432  0.00  0.00    -0.506 OA
ATOM     16  H   UNL     1     -37.485  19.580  -0.493  0.00  0.00    +0.292 HD
ENDBRANCH  10  15
BRANCH  11  18
ATOM     17  O   UNL     1     -40.772  20.909   1.028  0.00  0.00    -0.283 OA
ATOM     18  C   UNL     1     -39.662  21.103   0.531  0.00  0.00    +0.240 C 
ENDBRANCH  11  18
BRANCH   3  19
ATOM     19  C   UNL     1     -35.909  25.329   5.503  0.00  0.00    +0.059 C 
BRANCH  19  22
ATOM     20  O   UNL     1     -31.629  27.600   6.452  0.00  0.00    -0.435 OA
ATOM     21  O   UNL     1     -31.611  28.710   4.313  0.00  0.00    -0.435 OA
ATOM     22  C   UNL     1     -34.768  26.244   5.149  0.00  0.00    -0.014 C 
ATOM     23  C   UNL     1     -33.740  26.437   6.066  0.00  0.00    +0.036 C 
ATOM     24  C   UNL     1     -32.717  27.285   5.696  0.00  0.00    +0.176 C 
ATOM     25  C   UNL     1     -34.767  26.884   3.904  0.00  0.00    -0.001 C 
ATOM     26  C   UNL     1     -32.706  27.919   4.475  0.00  0.00    +0.176 C 
ATOM     27  C   UNL     1     -33.718  27.739   3.555  0.00  0.00    +0.040 C 
ATOM     28  C   UNL     1     -30.933  28.503   5.568  0.00  0.00    +0.429 C 
ENDBRANCH  19  22
ENDBRANCH   3  19
TORSDOF 5
ENDMDL
MODEL 2
REMARK VINA RESULT:      -7.1      1.429      2.858
REMARK  Name = 5317207
REMARK  5 active torsions:
REMARK  status: ('A' for Active; 'I' for Inactive)
REMARK    1  A    between atoms: C_3  and  C_19
REMARK    2  A    between atoms: C_8  and  O_13
REMARK    3  A    between atoms: C_10  and  O_15
REMARK    4  A    between atoms: C_11  and  C_18
REMARK    5  A    between atoms: C_19  and  C_22
REMARK                            x       y       z     vdW  Elec       q    Type
REMARK                         _______ _______ _______ _____ _____    ______ ____
ROOT
ATOM      1  O   UNL     1     -38.142  25.436   3.699  0.00  0.00    -0.451 OA
ATOM      2  O   UNL     1     -35.814  22.083   3.687  0.00  0.00    -0.287 OA
ATOM      3  C   UNL     1     -36.141  24.291   4.455  0.00  0.00    +0.059 C 
ATOM      4  C   UNL     1     -37.783  23.163   2.921  0.00  0.00    +0.107 A 
ATOM      5  C   UNL     1     -38.531  24.339   2.970  0.00  0.00    +0.150 A 
ATOM      6  C   UNL     1     -36.522  23.082   3.682  0.00  0.00    +0.201 C 
ATOM      7  C   UNL     1     -39.727  24.437   2.259  0.00  0.00    +0.047 A 
ATOM      8  C   UNL     1     -38.227  22.077   2.163  0.00  0.00    +0.146 A 
ATOM      9  C   UNL     1     -36.965  25.346   4.400  0.00  0.00    +0.179 C 
ATOM     10  C   UNL     1     -40.173  23.355   1.501  0.00  0.00    +0.139 A 
ATOM     11  C   UNL     1     -39.425  22.178   1.453  0.00  0.00    +0.109 A 
ATOM     12  C   UNL     1     -40.533  25.697   2.306  0.00  0.00    +0.037 C 
ENDROOT
BRANCH   8  13
ATOM     13  O   UNL     1     -37.521  20.912   2.093  0.00  0.00    -0.505 OA
ATOM     14  H   UNL     1     -37.823  20.154   2.554  0.00  0.00    +0.292 HD
ENDBRANCH   8  13
BRANCH  10  15
ATOM     15  O   UNL     1     -41.344  23.451   0.805  0.00  0.00    -0.506 OA
ATOM     16  H   UNL     1     -42.112  23.783   1.225  0.00  0.00    +0.292 HD
ENDBRANCH  10  15
BRANCH  11  18
ATOM     17  O   UNL     1     -41.093  20.768   0.541  0.00  0.00    -0.283 OA
ATOM     18  C   UNL     1     -39.900  21.050   0.656  0.00  0.00    +0.240 C 
ENDBRANCH  11  18
BRANCH   3  19
ATOM     19  C   UNL     1     -34.873  24.268   5.243  0.00  0.00    +0.059 C 
BRANCH  19  22
ATOM     20  O   UNL     1     -32.436  28.272   6.796  0.00  0.00    -0.435 OA
ATOM     21  O   UNL     1     -31.753  28.864   4.562  0.00  0.00    -0.435 OA
ATOM     22  C   UNL     1     -34.032  25.497   5.023  0.00  0.00    -0.014 C 
ATOM     23  C   UNL     1     -33.664  26.274   6.117  0.00  0.00    +0.036 C 
ATOM     24  C   UNL     1     -32.894  27.391   5.864  0.00  0.00    +0.176 C 
ATOM     25  C   UNL     1     -33.640  25.832   3.722  0.00  0.00    -0.001 C 
ATOM     26  C   UNL     1     -32.503  27.729   4.589  0.00  0.00    +0.176 C 
ATOM     27  C   UNL     1     -32.861  26.969   3.495  0.00  0.00    +0.040 C 
ATOM     28  C   UNL     1     -31.714  29.202   5.963  0.00  0.00    +0.429 C 
ENDBRANCH  19  22
ENDBRANCH   3  19
TORSDOF 5
ENDMDL
MODEL 3
REMARK VINA RESULT:      -6.8      2.169      8.519
REMARK  Name = 5317207
REMARK  5 active torsions:
REMARK  status: ('A' for Active; 'I' for Inactive)
REMARK    1  A    between atoms: C_3  and  C_19
REMARK    2  A    between atoms: C_8  and  O_13
REMARK    3  A    between atoms: C_10  and  O_15
REMARK    4  A    between atoms: C_11  and  C_18
REMARK    5  A    between atoms: C_19  and  C_22
REMARK                            x       y       z     vdW  Elec       q    Type
REMARK                         _______ _______ _______ _____ _____    ______ ____
ROOT
ATOM      1  O   UNL     1     -34.349  27.920   3.085  0.00  0.00    -0.451 OA
ATOM      2  O   UNL     1     -33.354  26.227   6.662  0.00  0.00    -0.287 OA
ATOM      3  C   UNL     1     -34.917  26.420   4.904  0.00  0.00    +0.059 C 
ATOM      4  C   UNL     1     -32.757  27.705   4.906  0.00  0.00    +0.107 A 
ATOM      5  C   UNL     1     -33.158  28.245   3.684  0.00  0.00    +0.150 A 
ATOM      6  C   UNL     1     -33.640  26.742   5.589  0.00  0.00    +0.201 C 
ATOM      7  C   UNL     1     -32.338  29.158   3.020  0.00  0.00    +0.047 A 
ATOM      8  C   UNL     1     -31.533  28.073   5.470  0.00  0.00    +0.146 A 
ATOM      9  C   UNL     1     -35.161  27.023   3.733  0.00  0.00    +0.179 C 
ATOM     10  C   UNL     1     -31.116  29.527   3.581  0.00  0.00    +0.139 A 
ATOM     11  C   UNL     1     -30.714  28.985   4.803  0.00  0.00    +0.109 A 
ATOM     12  C   UNL     1     -32.764  29.742   1.710  0.00  0.00    +0.037 C 
ENDROOT
BRANCH   8  13
ATOM     13  O   UNL     1     -31.109  27.564   6.662  0.00  0.00    -0.505 OA
ATOM     14  H   UNL     1     -30.192  27.488   6.840  0.00  0.00    +0.292 HD
ENDBRANCH   8  13
BRANCH  10  15
ATOM     15  O   UNL     1     -30.313  30.420   2.931  0.00  0.00    -0.506 OA
ATOM     16  H   UNL     1     -30.600  30.810   2.129  0.00  0.00    +0.292 HD
ENDBRANCH  10  15
BRANCH  11  18
ATOM     17  O   UNL     1     -29.275  29.572   6.588  0.00  0.00    -0.283 OA
ATOM     18  C   UNL     1     -29.432  29.378   5.382  0.00  0.00    +0.240 C 
ENDBRANCH  11  18
BRANCH   3  19
ATOM     19  C   UNL     1     -35.853  25.451   5.551  0.00  0.00    +0.059 C 
BRANCH  19  22
ATOM     20  O   UNL     1     -36.130  22.006   2.025  0.00  0.00    -0.435 OA
ATOM     21  O   UNL     1     -35.290  20.281   3.484  0.00  0.00    -0.435 OA
ATOM     22  C   UNL     1     -35.688  24.050   5.028  0.00  0.00    -0.014 C 
ATOM     23  C   UNL     1     -36.025  23.772   3.707  0.00  0.00    +0.036 C 
ATOM     24  C   UNL     1     -35.857  22.473   3.275  0.00  0.00    +0.176 C 
ATOM     25  C   UNL     1     -35.199  23.055   5.883  0.00  0.00    -0.001 C 
ATOM     26  C   UNL     1     -35.377  21.488   4.107  0.00  0.00    +0.176 C 
ATOM     27  C   UNL     1     -35.039  21.748   5.419  0.00  0.00    +0.040 C 
ATOM     28  C   UNL     1     -35.768  20.617   2.166  0.00  0.00    +0.429 C 
ENDBRANCH  19  22
ENDBRANCH   3  19
TORSDOF 5
ENDMDL
MODEL 4
REMARK VINA RESULT:      -6.8      3.257      7.010
REMARK  Name = 5317207
REMARK  5 active torsions:
REMARK  status: ('A' for Active; 'I' for Inactive)
REMARK    1  A    between atoms: C_3  and  C_19
REMARK    2  A    between atoms: C_8  and  O_13
REMARK    3  A    between atoms: C_10  and  O_15
REMARK    4  A    between atoms: C_11  and  C_18
REMARK    5  A    between atoms: C_19  and  C_22
REMARK                            x       y       z     vdW  Elec       q    Type
REMARK                         _______ _______ _______ _____ _____    ______ ____
ROOT
ATOM      1  O   UNL     1     -35.234  21.855   4.165  0.00  0.00    -0.451 OA
ATOM      2  O   UNL     1     -36.248  21.949   0.213  0.00  0.00    -0.287 OA
ATOM      3  C   UNL     1     -35.307  20.743   2.011  0.00  0.00    +0.059 C 
ATOM      4  C   UNL     1     -36.197  23.076   2.299  0.00  0.00    +0.107 A 
ATOM      5  C   UNL     1     -35.826  22.977   3.641  0.00  0.00    +0.150 A 
ATOM      6  C   UNL     1     -35.950  21.934   1.400  0.00  0.00    +0.201 C 
ATOM      7  C   UNL     1     -36.051  24.045   4.510  0.00  0.00    +0.047 A 
ATOM      8  C   UNL     1     -36.797  24.243   1.820  0.00  0.00    +0.146 A 
ATOM      9  C   UNL     1     -35.009  20.800   3.315  0.00  0.00    +0.179 C 
ATOM     10  C   UNL     1     -36.650  25.211   4.034  0.00  0.00    +0.139 A 
ATOM     11  C   UNL     1     -37.022  25.310   2.692  0.00  0.00    +0.109 A 
ATOM     12  C   UNL     1     -35.654  23.944   5.949  0.00  0.00    +0.037 C 
ENDROOT
BRANCH   8  13
ATOM     13  O   UNL     1     -37.172  24.374   0.515  0.00  0.00    -0.505 OA
ATOM     14  H   UNL     1     -36.710  23.908  -0.153  0.00  0.00    +0.292 HD
ENDBRANCH   8  13
BRANCH  10  15
ATOM     15  O   UNL     1     -36.871  26.256   4.884  0.00  0.00    -0.506 OA
ATOM     16  H   UNL     1     -37.318  26.113   5.695  0.00  0.00    +0.292 HD
ENDBRANCH  10  15
BRANCH  11  18
ATOM     17  O   UNL     1     -38.829  26.591   1.860  0.00  0.00    -0.283 OA
ATOM     18  C   UNL     1     -37.648  26.535   2.203  0.00  0.00    +0.240 C 
ENDBRANCH  11  18
BRANCH   3  19
ATOM     19  C   UNL     1     -35.030  19.556   1.146  0.00  0.00    +0.059 C 
BRANCH  19  22
ATOM     20  O   UNL     1     -30.769  17.062   1.164  0.00  0.00    -0.435 OA
ATOM     21  O   UNL     1     -29.591  18.841   0.044  0.00  0.00    -0.435 OA
ATOM     22  C   UNL     1     -33.567  19.397   0.833  0.00  0.00    -0.014 C 
ATOM     23  C   UNL     1     -32.917  18.223   1.198  0.00  0.00    +0.036 C 
ATOM     24  C   UNL     1     -31.575  18.125   0.890  0.00  0.00    +0.176 C 
ATOM     25  C   UNL     1     -32.891  20.436   0.182  0.00  0.00    -0.001 C 
ATOM     26  C   UNL     1     -30.902  19.140   0.250  0.00  0.00    +0.176 C 
ATOM     27  C   UNL     1     -31.533  20.310  -0.117  0.00  0.00    +0.040 C 
ATOM     28  C   UNL     1     -29.514  17.523   0.624  0.00  0.00    +0.429 C 
ENDBRANCH  19  22
ENDBRANCH   3  19
TORSDOF 5
ENDMDL
MODEL 5
REMARK VINA RESULT:      -6.8      2.222      8.110
REMARK  Name = 5317207
REMARK  5 active torsions:
REMARK  status: ('A' for Active; 'I' for Inactive)
REMARK    1  A    between atoms: C_3  and  C_19
REMARK    2  A    between atoms: C_8  and  O_13
REMARK    3  A    between atoms: C_10  and  O_15
REMARK    4  A    between atoms: C_11  and  C_18
REMARK    5  A    between atoms: C_19  and  C_22
REMARK                            x       y       z     vdW  Elec       q    Type
REMARK                         _______ _______ _______ _____ _____    ______ ____
ROOT
ATOM      1  O   UNL     1     -32.552  27.079   6.176  0.00  0.00    -0.451 OA
ATOM      2  O   UNL     1     -35.331  27.131   3.187  0.00  0.00    -0.287 OA
ATOM      3  C   UNL     1     -34.677  26.305   5.299  0.00  0.00    +0.059 C 
ATOM      4  C   UNL     1     -33.246  27.915   4.003  0.00  0.00    +0.107 A 
ATOM      5  C   UNL     1     -32.339  27.852   5.061  0.00  0.00    +0.150 A 
ATOM      6  C   UNL     1     -34.489  27.126   4.076  0.00  0.00    +0.201 C 
ATOM      7  C   UNL     1     -31.157  28.591   5.014  0.00  0.00    +0.047 A 
ATOM      8  C   UNL     1     -32.977  28.719   2.893  0.00  0.00    +0.146 A 
ATOM      9  C   UNL     1     -33.713  26.349   6.228  0.00  0.00    +0.179 C 
ATOM     10  C   UNL     1     -30.886  29.394   3.907  0.00  0.00    +0.139 A 
ATOM     11  C   UNL     1     -31.794  29.458   2.849  0.00  0.00    +0.109 A 
ATOM     12  C   UNL     1     -30.179  28.526   6.145  0.00  0.00    +0.037 C 
ENDROOT
BRANCH   8  13
ATOM     13  O   UNL     1     -33.842  28.805   1.842  0.00  0.00    -0.505 OA
ATOM     14  H   UNL     1     -34.693  28.416   1.903  0.00  0.00    +0.292 HD
ENDBRANCH   8  13
BRANCH  10  15
ATOM     15  O   UNL     1     -29.729  30.118   3.860  0.00  0.00    -0.506 OA
ATOM     16  H   UNL     1     -29.740  31.032   4.069  0.00  0.00    +0.292 HD
ENDBRANCH  10  15
BRANCH  11  18
ATOM     17  O   UNL     1     -32.205  31.260   1.370  0.00  0.00    -0.283 OA
ATOM     18  C   UNL     1     -31.502  30.302   1.694  0.00  0.00    +0.240 C 
ENDBRANCH  11  18
BRANCH   3  19
ATOM     19  C   UNL     1     -35.917  25.483   5.427  0.00  0.00    +0.059 C 
BRANCH  19  22
ATOM     20  O   UNL     1     -35.904  21.997   1.930  0.00  0.00    -0.435 OA
ATOM     21  O   UNL     1     -35.253  20.276   3.486  0.00  0.00    -0.435 OA
ATOM     22  C   UNL     1     -35.729  24.072   4.939  0.00  0.00    -0.014 C 
ATOM     23  C   UNL     1     -35.935  23.783   3.594  0.00  0.00    +0.036 C 
ATOM     24  C   UNL     1     -35.750  22.475   3.195  0.00  0.00    +0.176 C 
ATOM     25  C   UNL     1     -35.351  23.079   5.851  0.00  0.00    -0.001 C 
ATOM     26  C   UNL     1     -35.379  21.492   4.083  0.00  0.00    +0.176 C 
ATOM     27  C   UNL     1     -35.171  21.762   5.420  0.00  0.00    +0.040 C 
ATOM     28  C   UNL     1     -35.587  20.603   2.122  0.00  0.00    +0.429 C 
ENDBRANCH  19  22
ENDBRANCH   3  19
TORSDOF 5
ENDMDL
MODEL 6
REMARK VINA RESULT:      -6.8      1.902      2.908
REMARK  Name = 5317207
REMARK  5 active torsions:
REMARK  status: ('A' for Active; 'I' for Inactive)
REMARK    1  A    between atoms: C_3  and  C_19
REMARK    2  A    between atoms: C_8  and  O_13
REMARK    3  A    between atoms: C_10  and  O_15
REMARK    4  A    between atoms: C_11  and  C_18
REMARK    5  A    between atoms: C_19  and  C_22
REMARK                            x       y       z     vdW  Elec       q    Type
REMARK                         _______ _______ _______ _____ _____    ______ ____
ROOT
ATOM      1  O   UNL     1     -37.132  22.217   2.879  0.00  0.00    -0.451 OA
ATOM      2  O   UNL     1     -36.921  25.865   4.697  0.00  0.00    -0.287 OA
ATOM      3  C   UNL     1     -35.940  23.749   4.334  0.00  0.00    +0.059 C 
ATOM      4  C   UNL     1     -38.122  24.401   3.269  0.00  0.00    +0.107 A 
ATOM      5  C   UNL     1     -38.131  23.137   2.678  0.00  0.00    +0.150 A 
ATOM      6  C   UNL     1     -36.996  24.775   4.145  0.00  0.00    +0.201 C 
ATOM      7  C   UNL     1     -39.185  22.762   1.845  0.00  0.00    +0.047 A 
ATOM      8  C   UNL     1     -39.166  25.296   3.029  0.00  0.00    +0.146 A 
ATOM      9  C   UNL     1     -36.091  22.579   3.699  0.00  0.00    +0.179 C 
ATOM     10  C   UNL     1     -40.229  23.655   1.604  0.00  0.00    +0.139 A 
ATOM     11  C   UNL     1     -40.219  24.919   2.195  0.00  0.00    +0.109 A 
ATOM     12  C   UNL     1     -39.201  21.407   1.210  0.00  0.00    +0.037 C 
ENDROOT
BRANCH   8  13
ATOM     13  O   UNL     1     -39.189  26.540   3.590  0.00  0.00    -0.505 OA
ATOM     14  H   UNL     1     -39.416  27.284   3.069  0.00  0.00    +0.292 HD
ENDBRANCH   8  13
BRANCH  10  15
ATOM     15  O   UNL     1     -41.261  23.288   0.788  0.00  0.00    -0.506 OA
ATOM     16  H   UNL     1     -41.403  22.383   0.592  0.00  0.00    +0.292 HD
ENDBRANCH  10  15
BRANCH  11  18
ATOM     17  O   UNL     1     -41.137  27.015   1.588  0.00  0.00    -0.283 OA
ATOM     18  C   UNL     1     -41.316  25.847   1.936  0.00  0.00    +0.240 C 
ENDBRANCH  11  18
BRANCH   3  19
ATOM     19  C   UNL     1     -34.776  24.072   5.213  0.00  0.00    +0.059 C 
BRANCH  19  22
ATOM     20  O   UNL     1     -32.556  28.434   5.863  0.00  0.00    -0.435 OA
ATOM     21  O   UNL     1     -31.900  28.575   3.548  0.00  0.00    -0.435 OA
ATOM     22  C   UNL     1     -34.001  25.268   4.731  0.00  0.00    -0.014 C 
ATOM     23  C   UNL     1     -33.676  26.277   5.632  0.00  0.00    +0.036 C 
ATOM     24  C   UNL     1     -32.965  27.353   5.143  0.00  0.00    +0.176 C 
ATOM     25  C   UNL     1     -33.625  25.341   3.385  0.00  0.00    -0.001 C 
ATOM     26  C   UNL     1     -32.590  27.434   3.821  0.00  0.00    +0.176 C 
ATOM     27  C   UNL     1     -32.906  26.442   2.916  0.00  0.00    +0.040 C 
ATOM     28  C   UNL     1     -31.882  29.203   4.846  0.00  0.00    +0.429 C 
ENDBRANCH  19  22
ENDBRANCH   3  19
TORSDOF 5
ENDMDL
MODEL 7
REMARK VINA RESULT:      -6.7      2.939      7.185
REMARK  Name = 5317207
REMARK  5 active torsions:
REMARK  status: ('A' for Active; 'I' for Inactive)
REMARK    1  A    between atoms: C_3  and  C_19
REMARK    2  A    between atoms: C_8  and  O_13
REMARK    3  A    between atoms: C_10  and  O_15
REMARK    4  A    between atoms: C_11  and  C_18
REMARK    5  A    between atoms: C_19  and  C_22
REMARK                            x       y       z     vdW  Elec       q    Type
REMARK                         _______ _______ _______ _____ _____    ______ ____
ROOT
ATOM      1  O   UNL     1     -37.480  22.497   0.862  0.00  0.00    -0.451 OA
ATOM      2  O   UNL     1     -34.932  20.713   3.505  0.00  0.00    -0.287 OA
ATOM      3  C   UNL     1     -36.088  20.599   1.450  0.00  0.00    +0.059 C 
ATOM      4  C   UNL     1     -36.281  22.590   2.973  0.00  0.00    +0.107 A 
ATOM      5  C   UNL     1     -37.145  23.142   2.026  0.00  0.00    +0.150 A 
ATOM      6  C   UNL     1     -35.697  21.260   2.721  0.00  0.00    +0.201 C 
ATOM      7  C   UNL     1     -37.708  24.400   2.243  0.00  0.00    +0.047 A 
ATOM      8  C   UNL     1     -35.975  23.293   4.140  0.00  0.00    +0.146 A 
ATOM      9  C   UNL     1     -36.930  21.258   0.643  0.00  0.00    +0.179 C 
ATOM     10  C   UNL     1     -37.404  25.104   3.409  0.00  0.00    +0.139 A 
ATOM     11  C   UNL     1     -36.539  24.551   4.355  0.00  0.00    +0.109 A 
ATOM     12  C   UNL     1     -38.636  24.997   1.233  0.00  0.00    +0.037 C 
ENDROOT
BRANCH   8  13
ATOM     13  O   UNL     1     -35.134  22.783   5.087  0.00  0.00    -0.505 OA
ATOM     14  H   UNL     1     -35.398  22.765   5.985  0.00  0.00    +0.292 HD
ENDBRANCH   8  13
BRANCH  10  15
ATOM     15  O   UNL     1     -37.955  26.335   3.621  0.00  0.00    -0.506 OA
ATOM     16  H   UNL     1     -37.593  26.903   4.272  0.00  0.00    +0.292 HD
ENDBRANCH  10  15
BRANCH  11  18
ATOM     17  O   UNL     1     -35.757  26.434   5.557  0.00  0.00    -0.283 OA
ATOM     18  C   UNL     1     -36.227  25.295   5.572  0.00  0.00    +0.240 C 
ENDBRANCH  11  18
BRANCH   3  19
ATOM     19  C   UNL     1     -35.529  19.249   1.143  0.00  0.00    +0.059 C 
BRANCH  19  22
ATOM     20  O   UNL     1     -30.956  17.392   1.282  0.00  0.00    -0.435 OA
ATOM     21  O   UNL     1     -30.032  19.272   0.090  0.00  0.00    -0.435 OA
ATOM     22  C   UNL     1     -34.055  19.287   0.842  0.00  0.00    -0.014 C 
ATOM     23  C   UNL     1     -33.247  18.234   1.259  0.00  0.00    +0.036 C 
ATOM     24  C   UNL     1     -31.902  18.316   0.960  0.00  0.00    +0.176 C 
ATOM     25  C   UNL     1     -33.528  20.384   0.149  0.00  0.00    -0.001 C 
ATOM     26  C   UNL     1     -31.375  19.389   0.280  0.00  0.00    +0.176 C 
ATOM     27  C   UNL     1     -32.163  20.441  -0.140  0.00  0.00    +0.040 C 
ATOM     28  C   UNL     1     -29.774  18.004   0.727  0.00  0.00    +0.429 C 
ENDBRANCH  19  22
ENDBRANCH   3  19
TORSDOF 5
ENDMDL
MODEL 8
REMARK VINA RESULT:      -6.6      3.282      8.125
REMARK  Name = 5317207
REMARK  5 active torsions:
REMARK  status: ('A' for Active; 'I' for Inactive)
REMARK    1  A    between atoms: C_3  and  C_19
REMARK    2  A    between atoms: C_8  and  O_13
REMARK    3  A    between atoms: C_10  and  O_15
REMARK    4  A    between atoms: C_11  and  C_18
REMARK    5  A    between atoms: C_19  and  C_22
REMARK                            x       y       z     vdW  Elec       q    Type
REMARK                         _______ _______ _______ _____ _____    ______ ____
ROOT
ATOM      1  O   UNL     1     -35.337  21.028   3.798  0.00  0.00    -0.451 OA
ATOM      2  O   UNL     1     -34.915  22.845   0.168  0.00  0.00    -0.287 OA
ATOM      3  C   UNL     1     -35.085  20.835   1.393  0.00  0.00    +0.059 C 
ATOM      4  C   UNL     1     -35.160  23.083   2.515  0.00  0.00    +0.107 A 
ATOM      5  C   UNL     1     -35.303  22.398   3.722  0.00  0.00    +0.150 A 
ATOM      6  C   UNL     1     -35.043  22.313   1.263  0.00  0.00    +0.201 C 
ATOM      7  C   UNL     1     -35.417  23.106   4.919  0.00  0.00    +0.047 A 
ATOM      8  C   UNL     1     -35.132  24.480   2.498  0.00  0.00    +0.146 A 
ATOM      9  C   UNL     1     -35.225  20.325   2.624  0.00  0.00    +0.179 C 
ATOM     10  C   UNL     1     -35.388  24.501   4.904  0.00  0.00    +0.139 A 
ATOM     11  C   UNL     1     -35.246  25.185   3.696  0.00  0.00    +0.109 A 
ATOM     12  C   UNL     1     -35.568  22.377   6.216  0.00  0.00    +0.037 C 
ENDROOT
BRANCH   8  13
ATOM     13  O   UNL     1     -34.994  25.181   1.336  0.00  0.00    -0.505 OA
ATOM     14  H   UNL     1     -34.139  25.370   1.002  0.00  0.00    +0.292 HD
ENDBRANCH   8  13
BRANCH  10  15
ATOM     15  O   UNL     1     -35.500  25.194   6.075  0.00  0.00    -0.506 OA
ATOM     16  H   UNL     1     -35.652  26.118   6.059  0.00  0.00    +0.292 HD
ENDBRANCH  10  15
BRANCH  11  18
ATOM     17  O   UNL     1     -34.462  27.302   4.409  0.00  0.00    -0.283 OA
ATOM     18  C   UNL     1     -35.218  26.645   3.691  0.00  0.00    +0.240 C 
ENDBRANCH  11  18
BRANCH   3  19
ATOM     19  C   UNL     1     -34.968  20.003   0.158  0.00  0.00    +0.059 C 
BRANCH  19  22
ATOM     20  O   UNL     1     -33.026  15.486  -0.291  0.00  0.00    -0.435 OA
ATOM     21  O   UNL     1     -30.837  16.234   0.385  0.00  0.00    -0.435 OA
ATOM     22  C   UNL     1     -33.834  19.017   0.229  0.00  0.00    -0.014 C 
ATOM     23  C   UNL     1     -34.068  17.685  -0.097  0.00  0.00    +0.036 C 
ATOM     24  C   UNL     1     -32.997  16.819  -0.015  0.00  0.00    +0.176 C 
ATOM     25  C   UNL     1     -32.566  19.461   0.623  0.00  0.00    -0.001 C 
ATOM     26  C   UNL     1     -31.748  17.246   0.371  0.00  0.00    +0.176 C 
ATOM     27  C   UNL     1     -31.499  18.563   0.697  0.00  0.00    +0.040 C 
ATOM     28  C   UNL     1     -31.654  15.123  -0.035  0.00  0.00    +0.429 C 
ENDBRANCH  19  22
ENDBRANCH   3  19
TORSDOF 5
ENDMDL
MODEL 9
REMARK VINA RESULT:      -6.6      4.611      7.577
REMARK  Name = 5317207
REMARK  5 active torsions:
REMARK  status: ('A' for Active; 'I' for Inactive)
REMARK    1  A    between atoms: C_3  and  C_19
REMARK    2  A    between atoms: C_8  and  O_13
REMARK    3  A    between atoms: C_10  and  O_15
REMARK    4  A    between atoms: C_11  and  C_18
REMARK    5  A    between atoms: C_19  and  C_22
REMARK                            x       y       z     vdW  Elec       q    Type
REMARK                         _______ _______ _______ _____ _____    ______ ____
ROOT
ATOM      1  O   UNL     1     -31.719  21.656  -0.650  0.00  0.00    -0.451 OA
ATOM      2  O   UNL     1     -33.817  18.760   1.316  0.00  0.00    -0.287 OA
ATOM      3  C   UNL     1     -33.805  20.906   0.334  0.00  0.00    +0.059 C 
ATOM      4  C   UNL     1     -31.756  19.451   0.367  0.00  0.00    +0.107 A 
ATOM      5  C   UNL     1     -31.098  20.481  -0.305  0.00  0.00    +0.150 A 
ATOM      6  C   UNL     1     -33.176  19.620   0.726  0.00  0.00    +0.201 C 
ATOM      7  C   UNL     1     -29.755  20.342  -0.655  0.00  0.00    +0.047 A 
ATOM      8  C   UNL     1     -31.074  18.276   0.693  0.00  0.00    +0.146 A 
ATOM      9  C   UNL     1     -33.041  21.800  -0.308  0.00  0.00    +0.179 C 
ATOM     10  C   UNL     1     -29.072  19.170  -0.331  0.00  0.00    +0.139 A 
ATOM     11  C   UNL     1     -29.731  18.139   0.341  0.00  0.00    +0.109 A 
ATOM     12  C   UNL     1     -29.044  21.444  -1.375  0.00  0.00    +0.037 C 
ENDROOT
BRANCH   8  13
ATOM     13  O   UNL     1     -31.687  17.249   1.350  0.00  0.00    -0.505 OA
ATOM     14  H   UNL     1     -31.171  16.593   1.776  0.00  0.00    +0.292 HD
ENDBRANCH   8  13
BRANCH  10  15
ATOM     15  O   UNL     1     -27.757  19.034  -0.673  0.00  0.00    -0.506 OA
ATOM     16  H   UNL     1     -27.450  19.369  -1.493  0.00  0.00    +0.292 HD
ENDBRANCH  10  15
BRANCH  11  18
ATOM     17  O   UNL     1     -29.481  15.792   0.508  0.00  0.00    -0.283 OA
ATOM     18  C   UNL     1     -29.007  16.916   0.676  0.00  0.00    +0.240 C 
ENDBRANCH  11  18
BRANCH   3  19
ATOM     19  C   UNL     1     -35.242  21.134   0.673  0.00  0.00    +0.059 C 
BRANCH  19  22
ATOM     20  O   UNL     1     -35.281  21.045   5.610  0.00  0.00    -0.435 OA
ATOM     21  O   UNL     1     -35.890  23.372   5.762  0.00  0.00    -0.435 OA
ATOM     22  C   UNL     1     -35.423  21.769   2.026  0.00  0.00    -0.014 C 
ATOM     23  C   UNL     1     -35.237  20.999   3.169  0.00  0.00    +0.036 C 
ATOM     24  C   UNL     1     -35.416  21.626   4.386  0.00  0.00    +0.176 C 
ATOM     25  C   UNL     1     -35.778  23.121   2.103  0.00  0.00    -0.001 C 
ATOM     26  C   UNL     1     -35.764  22.954   4.473  0.00  0.00    +0.176 C 
ATOM     27  C   UNL     1     -35.952  23.730   3.348  0.00  0.00    +0.040 C 
ATOM     28  C   UNL     1     -35.583  22.158   6.476  0.00  0.00    +0.429 C 
ENDBRANCH  19  22
ENDBRANCH   3  19
TORSDOF 5
ENDMDL
