MODEL 1
REMARK VINA RESULT:      -7.1      0.000      0.000
REMARK  Name = 57418258
REMARK  4 active torsions:
REMARK  status: ('A' for Active; 'I' for Inactive)
REMARK    1  A    between atoms: S_1  and  N_5
REMARK    2  A    between atoms: S_1  and  C_17
REMARK    3  A    between atoms: C_18  and  C_24
REMARK    4  A    between atoms: C_24  and  O_25
REMARK                            x       y       z     vdW  Elec       q    Type
REMARK                         _______ _______ _______ _____ _____    ______ ____
ROOT
ATOM      1  S   UNL     1     -36.768  25.067   2.762  0.00  0.00    +0.077 S 
ATOM      2  O   UNL     1     -36.053  26.335   2.794  0.00  0.00    -0.150 OA
ATOM      3  O   UNL     1     -36.854  24.319   1.517  0.00  0.00    -0.150 OA
ENDROOT
BRANCH   1   5
ATOM      4  O   UNL     1     -39.150  26.731   1.720  0.00  0.00    -0.250 OA
ATOM      5  N   UNL     1     -38.351  25.305   3.373  0.00  0.00    -0.168 N 
ATOM      6  N   UNL     1     -40.502  26.186   3.546  0.00  0.00    -0.201 N 
ATOM      7  N   UNL     1     -41.724  27.637   2.163  0.00  0.00    -0.342 NA
ATOM      8  N   UNL     1     -42.678  26.772   4.200  0.00  0.00    -0.170 NA
ATOM      9  C   UNL     1     -39.350  26.146   2.778  0.00  0.00    +0.332 C 
ATOM     10  C   UNL     1     -41.694  26.901   3.289  0.00  0.00    +0.152 C 
ATOM     11  C   UNL     1     -42.876  28.306   1.950  0.00  0.00    +0.124 C 
ATOM     12  C   UNL     1     -43.960  28.258   2.804  0.00  0.00    +0.050 C 
ATOM     13  C   UNL     1     -42.953  29.133   0.711  0.00  0.00    +0.067 C 
ATOM     14  C   UNL     1     -43.802  27.468   3.925  0.00  0.00    +0.114 C 
ATOM     15  H   UNL     1     -38.593  24.828   4.199  0.00  0.00    +0.178 HD
ATOM     16  H   UNL     1     -40.488  25.651   4.372  0.00  0.00    +0.169 HD
ENDBRANCH   1   5
BRANCH   1  17
ATOM     17  C   UNL     1     -36.081  24.002   3.969  0.00  0.00    +0.131 C 
ATOM     18  C   UNL     1     -35.517  24.503   5.142  0.00  0.00    +0.094 C 
ATOM     19  C   UNL     1     -36.102  22.627   3.738  0.00  0.00    +0.020 C 
ATOM     20  C   UNL     1     -34.977  23.628   6.085  0.00  0.00    +0.008 C 
ATOM     21  C   UNL     1     -35.562  21.752   4.680  0.00  0.00    +0.001 C 
ATOM     22  C   UNL     1     -35.000  22.253   5.854  0.00  0.00    +0.000 C 
BRANCH  18  24
ATOM     23  O   UNL     1     -34.452  26.618   5.480  0.00  0.00    -0.245 OA
ATOM     24  C   UNL     1     -35.476  25.933   5.419  0.00  0.00    +0.339 C 
BRANCH  24  25
ATOM     25  O   UNL     1     -36.715  26.460   5.610  0.00  0.00    -0.477 OA
ATOM     26  H   UNL     1     -37.440  25.896   5.799  0.00  0.00    +0.295 HD
ENDBRANCH  24  25
ENDBRANCH  18  24
ENDBRANCH   1  17
TORSDOF 4
ENDMDL
MODEL 2
REMARK VINA RESULT:      -7.1      2.135      3.069
REMARK  Name = 57418258
REMARK  4 active torsions:
REMARK  status: ('A' for Active; 'I' for Inactive)
REMARK    1  A    between atoms: S_1  and  N_5
REMARK    2  A    between atoms: S_1  and  C_17
REMARK    3  A    between atoms: C_18  and  C_24
REMARK    4  A    between atoms: C_24  and  O_25
REMARK                            x       y       z     vdW  Elec       q    Type
REMARK                         _______ _______ _______ _____ _____    ______ ____
ROOT
ATOM      1  S   UNL     1     -37.377  23.318   2.407  0.00  0.00    +0.077 S 
ATOM      2  O   UNL     1     -36.517  23.864   1.367  0.00  0.00    -0.150 OA
ATOM      3  O   UNL     1     -38.260  22.202   2.101  0.00  0.00    -0.150 OA
ENDROOT
BRANCH   1   5
ATOM      4  O   UNL     1     -40.321  24.155   2.010  0.00  0.00    -0.250 OA
ATOM      5  N   UNL     1     -38.306  24.588   3.085  0.00  0.00    -0.168 N 
ATOM      6  N   UNL     1     -40.127  26.001   3.428  0.00  0.00    -0.201 N 
ATOM      7  N   UNL     1     -42.318  25.979   2.583  0.00  0.00    -0.342 NA
ATOM      8  N   UNL     1     -41.597  27.699   4.110  0.00  0.00    -0.170 NA
ATOM      9  C   UNL     1     -39.678  24.867   2.772  0.00  0.00    +0.332 C 
ATOM     10  C   UNL     1     -41.412  26.588   3.371  0.00  0.00    +0.152 C 
ATOM     11  C   UNL     1     -43.532  26.565   2.552  0.00  0.00    +0.124 C 
ATOM     12  C   UNL     1     -43.851  27.705   3.263  0.00  0.00    +0.050 C 
ATOM     13  C   UNL     1     -44.567  25.921   1.693  0.00  0.00    +0.067 C 
ATOM     14  C   UNL     1     -42.834  28.233   4.032  0.00  0.00    +0.114 C 
ATOM     15  H   UNL     1     -37.862  25.173   3.740  0.00  0.00    +0.178 HD
ATOM     16  H   UNL     1     -39.471  26.453   4.006  0.00  0.00    +0.169 HD
ENDBRANCH   1   5
BRANCH   1  17
ATOM     17  C   UNL     1     -36.383  22.844   3.768  0.00  0.00    +0.131 C 
ATOM     18  C   UNL     1     -35.686  21.635   3.770  0.00  0.00    +0.094 C 
ATOM     19  C   UNL     1     -36.298  23.700   4.865  0.00  0.00    +0.020 C 
ATOM     20  C   UNL     1     -34.902  21.285   4.870  0.00  0.00    +0.008 C 
ATOM     21  C   UNL     1     -35.514  23.350   5.965  0.00  0.00    +0.001 C 
ATOM     22  C   UNL     1     -34.816  22.143   5.967  0.00  0.00    +0.000 C 
BRANCH  18  24
ATOM     23  O   UNL     1     -34.975  20.706   1.684  0.00  0.00    -0.245 OA
ATOM     24  C   UNL     1     -35.750  20.714   2.644  0.00  0.00    +0.339 C 
BRANCH  24  25
ATOM     25  O   UNL     1     -36.780  19.833   2.753  0.00  0.00    -0.477 OA
ATOM     26  H   UNL     1     -37.425  19.778   2.075  0.00  0.00    +0.295 HD
ENDBRANCH  24  25
ENDBRANCH  18  24
ENDBRANCH   1  17
TORSDOF 4
ENDMDL
MODEL 3
REMARK VINA RESULT:      -6.8      5.168      7.906
REMARK  Name = 57418258
REMARK  4 active torsions:
REMARK  status: ('A' for Active; 'I' for Inactive)
REMARK    1  A    between atoms: S_1  and  N_5
REMARK    2  A    between atoms: S_1  and  C_17
REMARK    3  A    between atoms: C_18  and  C_24
REMARK    4  A    between atoms: C_24  and  O_25
REMARK                            x       y       z     vdW  Elec       q    Type
REMARK                         _______ _______ _______ _____ _____    ______ ____
ROOT
ATOM      1  S   UNL     1     -35.694  25.257   3.303  0.00  0.00    +0.077 S 
ATOM      2  O   UNL     1     -34.888  25.151   2.095  0.00  0.00    -0.150 OA
ATOM      3  O   UNL     1     -37.119  25.533   3.197  0.00  0.00    -0.150 OA
ENDROOT
BRANCH   1   5
ATOM      4  O   UNL     1     -32.786  26.246   3.604  0.00  0.00    -0.250 OA
ATOM      5  N   UNL     1     -34.982  26.413   4.347  0.00  0.00    -0.168 N 
ATOM      6  N   UNL     1     -33.312  27.665   5.384  0.00  0.00    -0.201 N 
ATOM      7  N   UNL     1     -31.001  27.829   5.001  0.00  0.00    -0.342 NA
ATOM      8  N   UNL     1     -32.060  29.107   6.749  0.00  0.00    -0.170 NA
ATOM      9  C   UNL     1     -33.587  26.746   4.385  0.00  0.00    +0.332 C 
ATOM     10  C   UNL     1     -32.062  28.228   5.728  0.00  0.00    +0.152 C 
ATOM     11  C   UNL     1     -29.825  28.386   5.356  0.00  0.00    +0.124 C 
ATOM     12  C   UNL     1     -29.688  29.300   6.383  0.00  0.00    +0.050 C 
ATOM     13  C   UNL     1     -28.624  27.973   4.575  0.00  0.00    +0.067 C 
ATOM     14  C   UNL     1     -30.851  29.625   7.051  0.00  0.00    +0.114 C 
ATOM     15  H   UNL     1     -35.578  26.886   4.971  0.00  0.00    +0.178 HD
ATOM     16  H   UNL     1     -34.082  27.961   5.920  0.00  0.00    +0.169 HD
ENDBRANCH   1   5
BRANCH   1  17
ATOM     17  C   UNL     1     -35.511  23.784   4.231  0.00  0.00    +0.131 C 
ATOM     18  C   UNL     1     -35.568  22.530   3.622  0.00  0.00    +0.094 C 
ATOM     19  C   UNL     1     -35.308  23.881   5.607  0.00  0.00    +0.020 C 
ATOM     20  C   UNL     1     -35.419  21.375   4.389  0.00  0.00    +0.008 C 
ATOM     21  C   UNL     1     -35.159  22.726   6.375  0.00  0.00    +0.001 C 
ATOM     22  C   UNL     1     -35.215  21.473   5.765  0.00  0.00    +0.000 C 
BRANCH  18  24
ATOM     23  O   UNL     1     -36.879  22.340   1.630  0.00  0.00    -0.245 OA
ATOM     24  C   UNL     1     -35.780  22.387   2.188  0.00  0.00    +0.339 C 
BRANCH  24  25
ATOM     25  O   UNL     1     -34.611  22.310   1.496  0.00  0.00    -0.477 OA
ATOM     26  H   UNL     1     -34.479  21.621   0.874  0.00  0.00    +0.295 HD
ENDBRANCH  24  25
ENDBRANCH  18  24
ENDBRANCH   1  17
TORSDOF 4
ENDMDL
MODEL 4
REMARK VINA RESULT:      -6.8      1.228      1.310
REMARK  Name = 57418258
REMARK  4 active torsions:
REMARK  status: ('A' for Active; 'I' for Inactive)
REMARK    1  A    between atoms: S_1  and  N_5
REMARK    2  A    between atoms: S_1  and  C_17
REMARK    3  A    between atoms: C_18  and  C_24
REMARK    4  A    between atoms: C_24  and  O_25
REMARK                            x       y       z     vdW  Elec       q    Type
REMARK                         _______ _______ _______ _____ _____    ______ ____
ROOT
ATOM      1  S   UNL     1     -36.401  25.586   2.752  0.00  0.00    +0.077 S 
ATOM      2  O   UNL     1     -35.484  26.701   2.942  0.00  0.00    -0.150 OA
ATOM      3  O   UNL     1     -36.578  25.016   1.425  0.00  0.00    -0.150 OA
ENDROOT
BRANCH   1   5
ATOM      4  O   UNL     1     -39.257  25.208   1.645  0.00  0.00    -0.250 OA
ATOM      5  N   UNL     1     -37.936  26.015   3.379  0.00  0.00    -0.168 N 
ATOM      6  N   UNL     1     -40.246  26.315   3.449  0.00  0.00    -0.201 N 
ATOM      7  N   UNL     1     -41.959  25.694   1.967  0.00  0.00    -0.342 NA
ATOM      8  N   UNL     1     -42.456  26.875   4.008  0.00  0.00    -0.170 NA
ATOM      9  C   UNL     1     -39.191  25.793   2.720  0.00  0.00    +0.332 C 
ATOM     10  C   UNL     1     -41.622  26.293   3.124  0.00  0.00    +0.152 C 
ATOM     11  C   UNL     1     -43.279  25.691   1.690  0.00  0.00    +0.124 C 
ATOM     12  C   UNL     1     -44.236  26.253   2.512  0.00  0.00    +0.050 C 
ATOM     13  C   UNL     1     -43.697  25.036   0.417  0.00  0.00    +0.067 C 
ATOM     14  C   UNL     1     -43.761  26.836   3.669  0.00  0.00    +0.114 C 
ATOM     15  H   UNL     1     -37.959  26.450   4.262  0.00  0.00    +0.178 HD
ATOM     16  H   UNL     1     -40.008  26.755   4.296  0.00  0.00    +0.169 HD
ENDBRANCH   1   5
BRANCH   1  17
ATOM     17  C   UNL     1     -35.933  24.284   3.825  0.00  0.00    +0.131 C 
ATOM     18  C   UNL     1     -35.457  24.539   5.111  0.00  0.00    +0.094 C 
ATOM     19  C   UNL     1     -36.043  22.970   3.370  0.00  0.00    +0.020 C 
ATOM     20  C   UNL     1     -35.092  23.479   5.942  0.00  0.00    +0.008 C 
ATOM     21  C   UNL     1     -35.678  21.911   4.201  0.00  0.00    +0.001 C 
ATOM     22  C   UNL     1     -35.204  22.166   5.487  0.00  0.00    +0.000 C 
BRANCH  18  24
ATOM     23  O   UNL     1     -34.262  26.470   5.863  0.00  0.00    -0.245 OA
ATOM     24  C   UNL     1     -35.328  25.897   5.622  0.00  0.00    +0.339 C 
BRANCH  24  25
ATOM     25  O   UNL     1     -36.534  26.496   5.814  0.00  0.00    -0.477 OA
ATOM     26  H   UNL     1     -37.306  26.129   5.429  0.00  0.00    +0.295 HD
ENDBRANCH  24  25
ENDBRANCH  18  24
ENDBRANCH   1  17
TORSDOF 4
ENDMDL
MODEL 5
REMARK VINA RESULT:      -6.7      4.703      8.668
REMARK  Name = 57418258
REMARK  4 active torsions:
REMARK  status: ('A' for Active; 'I' for Inactive)
REMARK    1  A    between atoms: S_1  and  N_5
REMARK    2  A    between atoms: S_1  and  C_17
REMARK    3  A    between atoms: C_18  and  C_24
REMARK    4  A    between atoms: C_24  and  O_25
REMARK                            x       y       z     vdW  Elec       q    Type
REMARK                         _______ _______ _______ _____ _____    ______ ____
ROOT
ATOM      1  S   UNL     1     -37.208  22.563   2.247  0.00  0.00    +0.077 S 
ATOM      2  O   UNL     1     -38.564  22.180   2.615  0.00  0.00    -0.150 OA
ATOM      3  O   UNL     1     -36.982  23.338   1.036  0.00  0.00    -0.150 OA
ENDROOT
BRANCH   1   5
ATOM      4  O   UNL     1     -34.426  22.038   1.018  0.00  0.00    -0.250 OA
ATOM      5  N   UNL     1     -36.228  21.160   2.196  0.00  0.00    -0.168 N 
ATOM      6  N   UNL     1     -34.438  19.782   1.624  0.00  0.00    -0.201 N 
ATOM      7  N   UNL     1     -32.440  20.198   0.462  0.00  0.00    -0.342 NA
ATOM      8  N   UNL     1     -32.943  18.000   1.311  0.00  0.00    -0.170 NA
ATOM      9  C   UNL     1     -34.949  21.067   1.551  0.00  0.00    +0.332 C 
ATOM     10  C   UNL     1     -33.212  19.304   1.106  0.00  0.00    +0.152 C 
ATOM     11  C   UNL     1     -31.278  19.708  -0.018  0.00  0.00    +0.124 C 
ATOM     12  C   UNL     1     -30.884  18.392   0.125  0.00  0.00    +0.050 C 
ATOM     13  C   UNL     1     -30.391  20.666  -0.738  0.00  0.00    +0.067 C 
ATOM     14  C   UNL     1     -31.765  17.576   0.805  0.00  0.00    +0.114 C 
ATOM     15  H   UNL     1     -36.569  20.353   2.645  0.00  0.00    +0.178 HD
ATOM     16  H   UNL     1     -34.996  19.122   2.092  0.00  0.00    +0.169 HD
ENDBRANCH   1   5
BRANCH   1  17
ATOM     17  C   UNL     1     -36.492  23.447   3.578  0.00  0.00    +0.131 C 
ATOM     18  C   UNL     1     -37.003  24.677   3.990  0.00  0.00    +0.094 C 
ATOM     19  C   UNL     1     -35.388  22.897   4.228  0.00  0.00    +0.020 C 
ATOM     20  C   UNL     1     -36.410  25.357   5.054  0.00  0.00    +0.008 C 
ATOM     21  C   UNL     1     -34.795  23.577   5.292  0.00  0.00    +0.001 C 
ATOM     22  C   UNL     1     -35.306  24.806   5.705  0.00  0.00    +0.000 C 
BRANCH  18  24
ATOM     23  O   UNL     1     -38.102  26.112   2.422  0.00  0.00    -0.245 OA
ATOM     24  C   UNL     1     -38.154  25.284   3.335  0.00  0.00    +0.339 C 
BRANCH  24  25
ATOM     25  O   UNL     1     -39.335  24.836   3.842  0.00  0.00    -0.477 OA
ATOM     26  H   UNL     1     -39.733  24.064   3.488  0.00  0.00    +0.295 HD
ENDBRANCH  24  25
ENDBRANCH  18  24
ENDBRANCH   1  17
TORSDOF 4
ENDMDL
MODEL 6
REMARK VINA RESULT:      -6.6      5.248      7.495
REMARK  Name = 57418258
REMARK  4 active torsions:
REMARK  status: ('A' for Active; 'I' for Inactive)
REMARK    1  A    between atoms: S_1  and  N_5
REMARK    2  A    between atoms: S_1  and  C_17
REMARK    3  A    between atoms: C_18  and  C_24
REMARK    4  A    between atoms: C_24  and  O_25
REMARK                            x       y       z     vdW  Elec       q    Type
REMARK                         _______ _______ _______ _____ _____    ______ ____
ROOT
ATOM      1  S   UNL     1     -36.796  22.578   2.054  0.00  0.00    +0.077 S 
ATOM      2  O   UNL     1     -38.219  22.873   2.140  0.00  0.00    -0.150 OA
ATOM      3  O   UNL     1     -35.935  23.410   1.226  0.00  0.00    -0.150 OA
ENDROOT
BRANCH   1   5
ATOM      4  O   UNL     1     -38.453  20.737   0.213  0.00  0.00    -0.250 OA
ATOM      5  N   UNL     1     -36.593  20.941   1.592  0.00  0.00    -0.168 N 
ATOM      6  N   UNL     1     -37.085  18.886   0.609  0.00  0.00    -0.201 N 
ATOM      7  N   UNL     1     -38.814  18.200  -0.823  0.00  0.00    -0.342 NA
ATOM      8  N   UNL     1     -37.116  16.650  -0.102  0.00  0.00    -0.170 NA
ATOM      9  C   UNL     1     -37.481  20.207   0.737  0.00  0.00    +0.332 C 
ATOM     10  C   UNL     1     -37.703  17.862  -0.144  0.00  0.00    +0.152 C 
ATOM     11  C   UNL     1     -39.378  17.199  -1.530  0.00  0.00    +0.124 C 
ATOM     12  C   UNL     1     -38.875  15.913  -1.573  0.00  0.00    +0.050 C 
ATOM     13  C   UNL     1     -40.611  17.532  -2.300  0.00  0.00    +0.067 C 
ATOM     14  C   UNL     1     -37.731  15.695  -0.832  0.00  0.00    +0.114 C 
ATOM     15  H   UNL     1     -35.806  20.466   1.943  0.00  0.00    +0.178 HD
ATOM     16  H   UNL     1     -36.273  18.630   1.104  0.00  0.00    +0.169 HD
ENDBRANCH   1   5
BRANCH   1  17
ATOM     17  C   UNL     1     -36.124  22.574   3.671  0.00  0.00    +0.131 C 
ATOM     18  C   UNL     1     -36.182  23.707   4.483  0.00  0.00    +0.094 C 
ATOM     19  C   UNL     1     -35.522  21.408   4.142  0.00  0.00    +0.020 C 
ATOM     20  C   UNL     1     -35.637  23.672   5.767  0.00  0.00    +0.008 C 
ATOM     21  C   UNL     1     -34.977  21.373   5.426  0.00  0.00    +0.001 C 
ATOM     22  C   UNL     1     -35.036  22.505   6.238  0.00  0.00    +0.000 C 
BRANCH  18  24
ATOM     23  O   UNL     1     -36.209  25.882   3.488  0.00  0.00    -0.245 OA
ATOM     24  C   UNL     1     -36.802  24.943   4.027  0.00  0.00    +0.339 C 
BRANCH  24  25
ATOM     25  O   UNL     1     -38.142  24.966   4.256  0.00  0.00    -0.477 OA
ATOM     26  H   UNL     1     -38.505  25.589   4.856  0.00  0.00    +0.295 HD
ENDBRANCH  24  25
ENDBRANCH  18  24
ENDBRANCH   1  17
TORSDOF 4
ENDMDL
MODEL 7
REMARK VINA RESULT:      -6.5      2.824      7.774
REMARK  Name = 57418258
REMARK  4 active torsions:
REMARK  status: ('A' for Active; 'I' for Inactive)
REMARK    1  A    between atoms: S_1  and  N_5
REMARK    2  A    between atoms: S_1  and  C_17
REMARK    3  A    between atoms: C_18  and  C_24
REMARK    4  A    between atoms: C_24  and  O_25
REMARK                            x       y       z     vdW  Elec       q    Type
REMARK                         _______ _______ _______ _____ _____    ______ ____
ROOT
ATOM      1  S   UNL     1     -41.972  27.484   3.323  0.00  0.00    +0.077 S 
ATOM      2  O   UNL     1     -41.754  27.913   1.949  0.00  0.00    -0.150 OA
ATOM      3  O   UNL     1     -41.899  28.458   4.403  0.00  0.00    -0.150 OA
ENDROOT
BRANCH   1   5
ATOM      4  O   UNL     1     -39.135  26.810   2.311  0.00  0.00    -0.250 OA
ATOM      5  N   UNL     1     -40.911  26.187   3.676  0.00  0.00    -0.168 N 
ATOM      6  N   UNL     1     -39.031  24.818   3.527  0.00  0.00    -0.201 N 
ATOM      7  N   UNL     1     -37.033  25.016   2.309  0.00  0.00    -0.342 NA
ATOM      8  N   UNL     1     -37.428  23.116   3.738  0.00  0.00    -0.170 NA
ATOM      9  C   UNL     1     -39.614  25.996   3.092  0.00  0.00    +0.332 C 
ATOM     10  C   UNL     1     -37.767  24.291   3.173  0.00  0.00    +0.152 C 
ATOM     11  C   UNL     1     -35.833  24.484   1.994  0.00  0.00    +0.124 C 
ATOM     12  C   UNL     1     -35.367  23.288   2.505  0.00  0.00    +0.050 C 
ATOM     13  C   UNL     1     -34.986  25.256   1.040  0.00  0.00    +0.067 C 
ATOM     14  C   UNL     1     -36.216  22.642   3.380  0.00  0.00    +0.114 C 
ATOM     15  H   UNL     1     -41.215  25.518   4.331  0.00  0.00    +0.178 HD
ATOM     16  H   UNL     1     -39.561  24.282   4.158  0.00  0.00    +0.169 HD
ENDBRANCH   1   5
BRANCH   1  17
ATOM     17  C   UNL     1     -43.534  26.701   3.428  0.00  0.00    +0.131 C 
ATOM     18  C   UNL     1     -43.965  25.809   2.445  0.00  0.00    +0.094 C 
ATOM     19  C   UNL     1     -44.353  26.984   4.520  0.00  0.00    +0.020 C 
ATOM     20  C   UNL     1     -45.216  25.201   2.557  0.00  0.00    +0.008 C 
ATOM     21  C   UNL     1     -45.603  26.376   4.632  0.00  0.00    +0.001 C 
ATOM     22  C   UNL     1     -46.034  25.484   3.650  0.00  0.00    +0.000 C 
BRANCH  18  24
ATOM     23  O   UNL     1     -42.294  24.590   1.243  0.00  0.00    -0.245 OA
ATOM     24  C   UNL     1     -43.139  25.488   1.289  0.00  0.00    +0.339 C 
BRANCH  24  25
ATOM     25  O   UNL     1     -43.395  26.299   0.228  0.00  0.00    -0.477 OA
ATOM     26  H   UNL     1     -43.185  27.212   0.273  0.00  0.00    +0.295 HD
ENDBRANCH  24  25
ENDBRANCH  18  24
ENDBRANCH   1  17
TORSDOF 4
ENDMDL
MODEL 8
REMARK VINA RESULT:      -6.5      4.303      7.081
REMARK  Name = 57418258
REMARK  4 active torsions:
REMARK  status: ('A' for Active; 'I' for Inactive)
REMARK    1  A    between atoms: S_1  and  N_5
REMARK    2  A    between atoms: S_1  and  C_17
REMARK    3  A    between atoms: C_18  and  C_24
REMARK    4  A    between atoms: C_24  and  O_25
REMARK                            x       y       z     vdW  Elec       q    Type
REMARK                         _______ _______ _______ _____ _____    ______ ____
ROOT
ATOM      1  S   UNL     1     -35.472  24.031   4.878  0.00  0.00    +0.077 S 
ATOM      2  O   UNL     1     -36.542  24.666   5.634  0.00  0.00    -0.150 OA
ATOM      3  O   UNL     1     -34.463  23.248   5.576  0.00  0.00    -0.150 OA
ENDROOT
BRANCH   1   5
ATOM      4  O   UNL     1     -34.032  26.658   5.620  0.00  0.00    -0.250 OA
ATOM      5  N   UNL     1     -34.688  25.214   3.920  0.00  0.00    -0.168 N 
ATOM      6  N   UNL     1     -33.593  27.203   3.391  0.00  0.00    -0.201 N 
ATOM      7  N   UNL     1     -32.758  28.943   4.728  0.00  0.00    -0.342 NA
ATOM      8  N   UNL     1     -32.555  29.020   2.328  0.00  0.00    -0.170 NA
ATOM      9  C   UNL     1     -34.081  26.415   4.420  0.00  0.00    +0.332 C 
ATOM     10  C   UNL     1     -32.936  28.451   3.488  0.00  0.00    +0.152 C 
ATOM     11  C   UNL     1     -32.127  30.135   4.783  0.00  0.00    +0.124 C 
ATOM     12  C   UNL     1     -31.687  30.821   3.669  0.00  0.00    +0.050 C 
ATOM     13  C   UNL     1     -31.908  30.716   6.139  0.00  0.00    +0.067 C 
ATOM     14  C   UNL     1     -31.931  30.210   2.456  0.00  0.00    +0.114 C 
ATOM     15  H   UNL     1     -34.651  25.059   2.949  0.00  0.00    +0.178 HD
ATOM     16  H   UNL     1     -33.719  26.850   2.481  0.00  0.00    +0.169 HD
ENDBRANCH   1   5
BRANCH   1  17
ATOM     17  C   UNL     1     -36.182  23.001   3.654  0.00  0.00    +0.131 C 
ATOM     18  C   UNL     1     -37.274  23.423   2.895  0.00  0.00    +0.094 C 
ATOM     19  C   UNL     1     -35.637  21.734   3.446  0.00  0.00    +0.020 C 
ATOM     20  C   UNL     1     -37.818  22.579   1.927  0.00  0.00    +0.008 C 
ATOM     21  C   UNL     1     -36.181  20.890   2.478  0.00  0.00    +0.001 C 
ATOM     22  C   UNL     1     -37.271  21.313   1.719  0.00  0.00    +0.000 C 
BRANCH  18  24
ATOM     23  O   UNL     1     -37.483  25.781   2.552  0.00  0.00    -0.245 OA
ATOM     24  C   UNL     1     -37.872  24.738   3.083  0.00  0.00    +0.339 C 
BRANCH  24  25
ATOM     25  O   UNL     1     -38.937  24.707   3.928  0.00  0.00    -0.477 OA
ATOM     26  H   UNL     1     -39.732  25.147   3.696  0.00  0.00    +0.295 HD
ENDBRANCH  24  25
ENDBRANCH  18  24
ENDBRANCH   1  17
TORSDOF 4
ENDMDL
MODEL 9
REMARK VINA RESULT:      -6.5      4.697      5.985
REMARK  Name = 57418258
REMARK  4 active torsions:
REMARK  status: ('A' for Active; 'I' for Inactive)
REMARK    1  A    between atoms: S_1  and  N_5
REMARK    2  A    between atoms: S_1  and  C_17
REMARK    3  A    between atoms: C_18  and  C_24
REMARK    4  A    between atoms: C_24  and  O_25
REMARK                            x       y       z     vdW  Elec       q    Type
REMARK                         _______ _______ _______ _____ _____    ______ ____
ROOT
ATOM      1  S   UNL     1     -36.136  25.394   2.613  0.00  0.00    +0.077 S 
ATOM      2  O   UNL     1     -35.800  24.945   1.269  0.00  0.00    -0.150 OA
ATOM      3  O   UNL     1     -37.481  25.869   2.900  0.00  0.00    -0.150 OA
ENDROOT
BRANCH   1   5
ATOM      4  O   UNL     1     -35.907  28.397   1.938  0.00  0.00    -0.250 OA
ATOM      5  N   UNL     1     -35.011  26.591   3.096  0.00  0.00    -0.168 N 
ATOM      6  N   UNL     1     -33.944  28.662   3.176  0.00  0.00    -0.201 N 
ATOM      7  N   UNL     1     -34.452  30.733   2.193  0.00  0.00    -0.342 NA
ATOM      8  N   UNL     1     -32.502  30.469   3.585  0.00  0.00    -0.170 NA
ATOM      9  C   UNL     1     -35.024  27.961   2.667  0.00  0.00    +0.332 C 
ATOM     10  C   UNL     1     -33.617  30.023   2.974  0.00  0.00    +0.152 C 
ATOM     11  C   UNL     1     -34.110  32.027   2.023  0.00  0.00    +0.124 C 
ATOM     12  C   UNL     1     -32.995  32.607   2.594  0.00  0.00    +0.050 C 
ATOM     13  C   UNL     1     -35.010  32.852   1.165  0.00  0.00    +0.067 C 
ATOM     14  C   UNL     1     -32.220  31.771   3.372  0.00  0.00    +0.114 C 
ATOM     15  H   UNL     1     -34.298  26.319   3.718  0.00  0.00    +0.178 HD
ATOM     16  H   UNL     1     -33.328  28.149   3.747  0.00  0.00    +0.169 HD
ENDBRANCH   1   5
BRANCH   1  17
ATOM     17  C   UNL     1     -35.783  24.103   3.741  0.00  0.00    +0.131 C 
ATOM     18  C   UNL     1     -35.502  24.367   5.081  0.00  0.00    +0.094 C 
ATOM     19  C   UNL     1     -35.785  22.788   3.275  0.00  0.00    +0.020 C 
ATOM     20  C   UNL     1     -35.224  23.317   5.956  0.00  0.00    +0.008 C 
ATOM     21  C   UNL     1     -35.508  21.737   4.150  0.00  0.00    +0.001 C 
ATOM     22  C   UNL     1     -35.228  22.002   5.490  0.00  0.00    +0.000 C 
BRANCH  18  24
ATOM     23  O   UNL     1     -34.481  26.347   5.954  0.00  0.00    -0.245 OA
ATOM     24  C   UNL     1     -35.489  25.727   5.605  0.00  0.00    +0.339 C 
BRANCH  24  25
ATOM     25  O   UNL     1     -36.735  26.267   5.673  0.00  0.00    -0.477 OA
ATOM     26  H   UNL     1     -36.840  27.185   5.835  0.00  0.00    +0.295 HD
ENDBRANCH  24  25
ENDBRANCH  18  24
ENDBRANCH   1  17
TORSDOF 4
ENDMDL
