MODEL 1
REMARK VINA RESULT:      -5.3      0.000      0.000
REMARK  Name = 556808
REMARK  6 active torsions:
REMARK  status: ('A' for Active; 'I' for Inactive)
REMARK    1  A    between atoms: O_1  and  C_2
REMARK    2  A    between atoms: O_1  and  P_11
REMARK    3  A    between atoms: C_5  and  N_10
REMARK    4  A    between atoms: P_11  and  N_13
REMARK    5  A    between atoms: P_11  and  O_16
REMARK    6  A    between atoms: O_16  and  C_17
REMARK                            x       y       z     vdW  Elec       q    Type
REMARK                         _______ _______ _______ _____ _____    ______ ____
ROOT
ATOM      1  O   UNL     1     -34.453  25.145   4.636  0.00  0.00    -0.412 OA
ENDROOT
BRANCH   1   2
ATOM      2  C   UNL     1     -33.711  26.207   5.051  0.00  0.00    +0.148 C 
ATOM      3  C   UNL     1     -33.415  26.366   6.405  0.00  0.00    +0.039 C 
ATOM      4  C   UNL     1     -33.244  27.137   4.122  0.00  0.00    +0.039 C 
ATOM      5  C   UNL     1     -32.186  28.383   5.902  0.00  0.00    +0.143 C 
ATOM      6  C   UNL     1     -32.653  27.454   6.831  0.00  0.00    +0.027 C 
ATOM      7  C   UNL     1     -32.481  28.225   4.548  0.00  0.00    +0.027 C 
BRANCH   5  10
ATOM      8  O   UNL     1     -31.877  30.646   6.182  0.00  0.00    -0.126 OA
ATOM      9  O   UNL     1     -30.292  29.279   6.854  0.00  0.00    -0.126 OA
ATOM     10  N   UNL     1     -31.412  29.492   6.335  0.00  0.00    +0.058 N 
ENDBRANCH   5  10
ENDBRANCH   1   2
BRANCH   1  11
ATOM     11  P   UNL     1     -36.051  25.158   4.333  0.00  0.00    +0.460 P 
ATOM     12  O   UNL     1     -36.354  25.331   2.867  0.00  0.00    -0.228 OA
BRANCH  11  13
ATOM     13  N   UNL     1     -36.700  26.308   5.334  0.00  0.00    -0.226 NA
ATOM     14  H   UNL     1     -37.710  26.344   5.198  0.00  0.00    +0.131 HD
ATOM     15  H   UNL     1     -36.294  27.217   5.114  0.00  0.00    +0.131 HD
ENDBRANCH  11  13
BRANCH  11  16
ATOM     16  O   UNL     1     -36.542  23.709   4.886  0.00  0.00    -0.274 OA
BRANCH  16  17
ATOM     17  C   UNL     1     -35.649  22.608   4.904  0.00  0.00    +0.154 C 
ATOM     18  C   UNL     1     -35.432  22.172   6.337  0.00  0.00    +0.035 C 
ENDBRANCH  16  17
ENDBRANCH  11  16
ENDBRANCH   1  11
TORSDOF 6
ENDMDL
MODEL 2
REMARK VINA RESULT:      -5.2      3.082      4.022
REMARK  Name = 556808
REMARK  6 active torsions:
REMARK  status: ('A' for Active; 'I' for Inactive)
REMARK    1  A    between atoms: O_1  and  C_2
REMARK    2  A    between atoms: O_1  and  P_11
REMARK    3  A    between atoms: C_5  and  N_10
REMARK    4  A    between atoms: P_11  and  N_13
REMARK    5  A    between atoms: P_11  and  O_16
REMARK    6  A    between atoms: O_16  and  C_17
REMARK                            x       y       z     vdW  Elec       q    Type
REMARK                         _______ _______ _______ _____ _____    ______ ____
ROOT
ATOM      1  O   UNL     1     -37.159  22.879   3.799  0.00  0.00    -0.412 OA
ENDROOT
BRANCH   1   2
ATOM      2  C   UNL     1     -36.281  23.826   4.228  0.00  0.00    +0.148 C 
ATOM      3  C   UNL     1     -34.933  23.507   4.386  0.00  0.00    +0.039 C 
ATOM      4  C   UNL     1     -36.730  25.117   4.507  0.00  0.00    +0.039 C 
ATOM      5  C   UNL     1     -34.480  25.768   5.104  0.00  0.00    +0.143 C 
ATOM      6  C   UNL     1     -34.032  24.478   4.825  0.00  0.00    +0.027 C 
ATOM      7  C   UNL     1     -35.829  26.089   4.945  0.00  0.00    +0.027 C 
BRANCH   5  10
ATOM      8  O   UNL     1     -33.024  26.611   6.673  0.00  0.00    -0.126 OA
ATOM      9  O   UNL     1     -33.330  27.740   4.812  0.00  0.00    -0.126 OA
ATOM     10  N   UNL     1     -33.565  26.757   5.552  0.00  0.00    +0.058 N 
ENDBRANCH   5  10
ENDBRANCH   1   2
BRANCH   1  11
ATOM     11  P   UNL     1     -37.427  22.458   2.251  0.00  0.00    +0.460 P 
ATOM     12  O   UNL     1     -37.695  23.651   1.370  0.00  0.00    -0.228 OA
BRANCH  11  13
ATOM     13  N   UNL     1     -38.628  21.317   2.286  0.00  0.00    -0.226 NA
ATOM     14  H   UNL     1     -38.336  20.534   2.870  0.00  0.00    +0.131 HD
ATOM     15  H   UNL     1     -38.809  20.985   1.338  0.00  0.00    +0.131 HD
ENDBRANCH  11  13
BRANCH  11  16
ATOM     16  O   UNL     1     -36.053  21.693   1.834  0.00  0.00    -0.274 OA
BRANCH  16  17
ATOM     17  C   UNL     1     -35.824  20.356   2.244  0.00  0.00    +0.154 C 
ATOM     18  C   UNL     1     -34.509  19.880   1.664  0.00  0.00    +0.035 C 
ENDBRANCH  16  17
ENDBRANCH  11  16
ENDBRANCH   1  11
TORSDOF 6
ENDMDL
MODEL 3
REMARK VINA RESULT:      -5.0      2.557      6.380
REMARK  Name = 556808
REMARK  6 active torsions:
REMARK  status: ('A' for Active; 'I' for Inactive)
REMARK    1  A    between atoms: O_1  and  C_2
REMARK    2  A    between atoms: O_1  and  P_11
REMARK    3  A    between atoms: C_5  and  N_10
REMARK    4  A    between atoms: P_11  and  N_13
REMARK    5  A    between atoms: P_11  and  O_16
REMARK    6  A    between atoms: O_16  and  C_17
REMARK                            x       y       z     vdW  Elec       q    Type
REMARK                         _______ _______ _______ _____ _____    ______ ____
ROOT
ATOM      1  O   UNL     1     -33.511  27.715   4.798  0.00  0.00    -0.412 OA
ENDROOT
BRANCH   1   2
ATOM      2  C   UNL     1     -34.104  26.497   4.673  0.00  0.00    +0.148 C 
ATOM      3  C   UNL     1     -35.066  26.090   5.598  0.00  0.00    +0.039 C 
ATOM      4  C   UNL     1     -33.752  25.656   3.618  0.00  0.00    +0.039 C 
ATOM      5  C   UNL     1     -35.323  24.001   4.414  0.00  0.00    +0.143 C 
ATOM      6  C   UNL     1     -35.675  24.842   5.469  0.00  0.00    +0.027 C 
ATOM      7  C   UNL     1     -34.362  24.407   3.488  0.00  0.00    +0.027 C 
BRANCH   5  10
ATOM      8  O   UNL     1     -37.048  22.656   3.699  0.00  0.00    -0.126 OA
ATOM      9  O   UNL     1     -35.359  21.724   4.754  0.00  0.00    -0.126 OA
ATOM     10  N   UNL     1     -35.941  22.729   4.282  0.00  0.00    +0.058 N 
ENDBRANCH   5  10
ENDBRANCH   1   2
BRANCH   1  11
ATOM     11  P   UNL     1     -32.136  28.027   5.610  0.00  0.00    +0.460 P 
ATOM     12  O   UNL     1     -30.909  27.814   4.762  0.00  0.00    -0.228 OA
BRANCH  11  13
ATOM     13  N   UNL     1     -32.206  27.126   6.998  0.00  0.00    -0.226 NA
ATOM     14  H   UNL     1     -31.411  27.357   7.594  0.00  0.00    +0.131 HD
ATOM     15  H   UNL     1     -32.177  26.134   6.761  0.00  0.00    +0.131 HD
ENDBRANCH  11  13
BRANCH  11  16
ATOM     16  O   UNL     1     -32.310  29.586   6.042  0.00  0.00    -0.274 OA
BRANCH  16  17
ATOM     17  C   UNL     1     -31.601  30.604   5.356  0.00  0.00    +0.154 C 
ATOM     18  C   UNL     1     -32.360  30.972   4.099  0.00  0.00    +0.035 C 
ENDBRANCH  16  17
ENDBRANCH  11  16
ENDBRANCH   1  11
TORSDOF 6
ENDMDL
MODEL 4
REMARK VINA RESULT:      -5.0      1.802      2.348
REMARK  Name = 556808
REMARK  6 active torsions:
REMARK  status: ('A' for Active; 'I' for Inactive)
REMARK    1  A    between atoms: O_1  and  C_2
REMARK    2  A    between atoms: O_1  and  P_11
REMARK    3  A    between atoms: C_5  and  N_10
REMARK    4  A    between atoms: P_11  and  N_13
REMARK    5  A    between atoms: P_11  and  O_16
REMARK    6  A    between atoms: O_16  and  C_17
REMARK                            x       y       z     vdW  Elec       q    Type
REMARK                         _______ _______ _______ _____ _____    ______ ____
ROOT
ATOM      1  O   UNL     1     -36.674  25.312   3.838  0.00  0.00    -0.412 OA
ENDROOT
BRANCH   1   2
ATOM      2  C   UNL     1     -35.554  25.971   4.244  0.00  0.00    +0.148 C 
ATOM      3  C   UNL     1     -34.942  26.895   3.396  0.00  0.00    +0.039 C 
ATOM      4  C   UNL     1     -35.019  25.723   5.508  0.00  0.00    +0.039 C 
ATOM      5  C   UNL     1     -33.261  27.324   5.076  0.00  0.00    +0.143 C 
ATOM      6  C   UNL     1     -33.795  27.571   3.812  0.00  0.00    +0.027 C 
ATOM      7  C   UNL     1     -33.872  26.400   5.924  0.00  0.00    +0.027 C 
BRANCH   5  10
ATOM      8  O   UNL     1     -32.190  28.852   6.422  0.00  0.00    -0.126 OA
ATOM      9  O   UNL     1     -31.003  27.751   4.936  0.00  0.00    -0.126 OA
ATOM     10  N   UNL     1     -32.092  28.010   5.499  0.00  0.00    +0.058 N 
ENDBRANCH   5  10
ENDBRANCH   1   2
BRANCH   1  11
ATOM     11  P   UNL     1     -36.729  23.797   3.249  0.00  0.00    +0.460 P 
ATOM     12  O   UNL     1     -35.581  23.503   2.318  0.00  0.00    -0.228 OA
BRANCH  11  13
ATOM     13  N   UNL     1     -38.240  23.612   2.595  0.00  0.00    -0.226 NA
ATOM     14  H   UNL     1     -38.520  22.634   2.659  0.00  0.00    +0.131 HD
ATOM     15  H   UNL     1     -38.224  23.898   1.616  0.00  0.00    +0.131 HD
ENDBRANCH  11  13
BRANCH  11  16
ATOM     16  O   UNL     1     -36.672  22.878   4.590  0.00  0.00    -0.274 OA
BRANCH  16  17
ATOM     17  C   UNL     1     -35.519  22.105   4.881  0.00  0.00    +0.154 C 
ATOM     18  C   UNL     1     -35.276  22.124   6.375  0.00  0.00    +0.035 C 
ENDBRANCH  16  17
ENDBRANCH  11  16
ENDBRANCH   1  11
TORSDOF 6
ENDMDL
MODEL 5
REMARK VINA RESULT:      -5.0      2.670      5.879
REMARK  Name = 556808
REMARK  6 active torsions:
REMARK  status: ('A' for Active; 'I' for Inactive)
REMARK    1  A    between atoms: O_1  and  C_2
REMARK    2  A    between atoms: O_1  and  P_11
REMARK    3  A    between atoms: C_5  and  N_10
REMARK    4  A    between atoms: P_11  and  N_13
REMARK    5  A    between atoms: P_11  and  O_16
REMARK    6  A    between atoms: O_16  and  C_17
REMARK                            x       y       z     vdW  Elec       q    Type
REMARK                         _______ _______ _______ _____ _____    ______ ____
ROOT
ATOM      1  O   UNL     1     -34.580  27.756   3.671  0.00  0.00    -0.412 OA
ENDROOT
BRANCH   1   2
ATOM      2  C   UNL     1     -34.828  26.466   4.025  0.00  0.00    +0.148 C 
ATOM      3  C   UNL     1     -34.354  25.421   3.232  0.00  0.00    +0.039 C 
ATOM      4  C   UNL     1     -35.557  26.189   5.182  0.00  0.00    +0.039 C 
ATOM      5  C   UNL     1     -35.336  23.821   4.752  0.00  0.00    +0.143 C 
ATOM      6  C   UNL     1     -34.607  24.098   3.596  0.00  0.00    +0.027 C 
ATOM      7  C   UNL     1     -35.810  24.866   5.546  0.00  0.00    +0.027 C 
BRANCH   5  10
ATOM      8  O   UNL     1     -35.988  22.237   6.288  0.00  0.00    -0.126 OA
ATOM      9  O   UNL     1     -35.425  21.572   4.270  0.00  0.00    -0.126 OA
ATOM     10  N   UNL     1     -35.596  22.475   5.122  0.00  0.00    +0.058 N 
ENDBRANCH   5  10
ENDBRANCH   1   2
BRANCH   1  11
ATOM     11  P   UNL     1     -33.127  28.487   3.689  0.00  0.00    +0.460 P 
ATOM     12  O   UNL     1     -33.213  29.922   4.141  0.00  0.00    -0.228 OA
BRANCH  11  13
ATOM     13  N   UNL     1     -32.476  28.255   2.183  0.00  0.00    -0.226 NA
ATOM     14  H   UNL     1     -32.158  29.148   1.809  0.00  0.00    +0.131 HD
ATOM     15  H   UNL     1     -33.184  27.859   1.564  0.00  0.00    +0.131 HD
ENDBRANCH  11  13
BRANCH  11  16
ATOM     16  O   UNL     1     -32.268  27.576   4.728  0.00  0.00    -0.274 OA
BRANCH  16  17
ATOM     17  C   UNL     1     -31.991  28.047   6.035  0.00  0.00    +0.154 C 
ATOM     18  C   UNL     1     -32.681  27.149   7.040  0.00  0.00    +0.035 C 
ENDBRANCH  16  17
ENDBRANCH  11  16
ENDBRANCH   1  11
TORSDOF 6
ENDMDL
MODEL 6
REMARK VINA RESULT:      -5.0      2.687      6.572
REMARK  Name = 556808
REMARK  6 active torsions:
REMARK  status: ('A' for Active; 'I' for Inactive)
REMARK    1  A    between atoms: O_1  and  C_2
REMARK    2  A    between atoms: O_1  and  P_11
REMARK    3  A    between atoms: C_5  and  N_10
REMARK    4  A    between atoms: P_11  and  N_13
REMARK    5  A    between atoms: P_11  and  O_16
REMARK    6  A    between atoms: O_16  and  C_17
REMARK                            x       y       z     vdW  Elec       q    Type
REMARK                         _______ _______ _______ _____ _____    ______ ____
ROOT
ATOM      1  O   UNL     1     -33.979  27.326   4.842  0.00  0.00    -0.412 OA
ENDROOT
BRANCH   1   2
ATOM      2  C   UNL     1     -34.353  26.031   4.659  0.00  0.00    +0.148 C 
ATOM      3  C   UNL     1     -34.255  25.448   3.395  0.00  0.00    +0.039 C 
ATOM      4  C   UNL     1     -34.832  25.285   5.735  0.00  0.00    +0.039 C 
ATOM      5  C   UNL     1     -35.116  23.374   4.283  0.00  0.00    +0.143 C 
ATOM      6  C   UNL     1     -34.637  24.120   3.207  0.00  0.00    +0.027 C 
ATOM      7  C   UNL     1     -35.214  23.956   5.548  0.00  0.00    +0.027 C 
BRANCH   5  10
ATOM      8  O   UNL     1     -36.166  21.725   3.070  0.00  0.00    -0.126 OA
ATOM      9  O   UNL     1     -35.179  21.173   4.954  0.00  0.00    -0.126 OA
ATOM     10  N   UNL     1     -35.507  22.022   4.093  0.00  0.00    +0.058 N 
ENDBRANCH   5  10
ENDBRANCH   1   2
BRANCH   1  11
ATOM     11  P   UNL     1     -32.469  27.851   5.144  0.00  0.00    +0.460 P 
ATOM     12  O   UNL     1     -31.497  27.449   4.065  0.00  0.00    -0.228 OA
BRANCH  11  13
ATOM     13  N   UNL     1     -32.096  27.323   6.670  0.00  0.00    -0.226 NA
ATOM     14  H   UNL     1     -31.087  27.366   6.807  0.00  0.00    +0.131 HD
ATOM     15  H   UNL     1     -32.414  26.360   6.784  0.00  0.00    +0.131 HD
ENDBRANCH  11  13
BRANCH  11  16
ATOM     16  O   UNL     1     -32.650  29.466   5.227  0.00  0.00    -0.274 OA
BRANCH  16  17
ATOM     17  C   UNL     1     -31.813  30.238   6.071  0.00  0.00    +0.154 C 
ATOM     18  C   UNL     1     -30.760  30.925   5.227  0.00  0.00    +0.035 C 
ENDBRANCH  16  17
ENDBRANCH  11  16
ENDBRANCH   1  11
TORSDOF 6
ENDMDL
MODEL 7
REMARK VINA RESULT:      -4.9      2.708      6.037
REMARK  Name = 556808
REMARK  6 active torsions:
REMARK  status: ('A' for Active; 'I' for Inactive)
REMARK    1  A    between atoms: O_1  and  C_2
REMARK    2  A    between atoms: O_1  and  P_11
REMARK    3  A    between atoms: C_5  and  N_10
REMARK    4  A    between atoms: P_11  and  N_13
REMARK    5  A    between atoms: P_11  and  O_16
REMARK    6  A    between atoms: O_16  and  C_17
REMARK                            x       y       z     vdW  Elec       q    Type
REMARK                         _______ _______ _______ _____ _____    ______ ____
ROOT
ATOM      1  O   UNL     1     -34.377  27.299   3.520  0.00  0.00    -0.412 OA
ENDROOT
BRANCH   1   2
ATOM      2  C   UNL     1     -34.638  26.042   3.971  0.00  0.00    +0.148 C 
ATOM      3  C   UNL     1     -34.825  25.815   5.335  0.00  0.00    +0.039 C 
ATOM      4  C   UNL     1     -34.720  24.981   3.070  0.00  0.00    +0.039 C 
ATOM      5  C   UNL     1     -35.176  23.466   4.897  0.00  0.00    +0.143 C 
ATOM      6  C   UNL     1     -35.094  24.527   5.798  0.00  0.00    +0.027 C 
ATOM      7  C   UNL     1     -34.990  23.692   3.533  0.00  0.00    +0.027 C 
BRANCH   5  10
ATOM      8  O   UNL     1     -35.189  21.182   4.621  0.00  0.00    -0.126 OA
ATOM      9  O   UNL     1     -35.937  22.014   6.513  0.00  0.00    -0.126 OA
ATOM     10  N   UNL     1     -35.448  22.154   5.368  0.00  0.00    +0.058 N 
ENDBRANCH   5  10
ENDBRANCH   1   2
BRANCH   1  11
ATOM     11  P   UNL     1     -32.934  28.048   3.564  0.00  0.00    +0.460 P 
ATOM     12  O   UNL     1     -32.796  29.089   2.483  0.00  0.00    -0.228 OA
BRANCH  11  13
ATOM     13  N   UNL     1     -31.791  26.848   3.546  0.00  0.00    -0.226 NA
ATOM     14  H   UNL     1     -30.864  27.264   3.464  0.00  0.00    +0.131 HD
ATOM     15  H   UNL     1     -31.960  26.231   2.751  0.00  0.00    +0.131 HD
ENDBRANCH  11  13
BRANCH  11  16
ATOM     16  O   UNL     1     -32.909  28.711   5.050  0.00  0.00    -0.274 OA
BRANCH  16  17
ATOM     17  C   UNL     1     -31.956  28.285   6.009  0.00  0.00    +0.154 C 
ATOM     18  C   UNL     1     -31.518  29.477   6.833  0.00  0.00    +0.035 C 
ENDBRANCH  16  17
ENDBRANCH  11  16
ENDBRANCH   1  11
TORSDOF 6
ENDMDL
MODEL 8
REMARK VINA RESULT:      -4.8      3.121      4.029
REMARK  Name = 556808
REMARK  6 active torsions:
REMARK  status: ('A' for Active; 'I' for Inactive)
REMARK    1  A    between atoms: O_1  and  C_2
REMARK    2  A    between atoms: O_1  and  P_11
REMARK    3  A    between atoms: C_5  and  N_10
REMARK    4  A    between atoms: P_11  and  N_13
REMARK    5  A    between atoms: P_11  and  O_16
REMARK    6  A    between atoms: O_16  and  C_17
REMARK                            x       y       z     vdW  Elec       q    Type
REMARK                         _______ _______ _______ _____ _____    ______ ____
ROOT
ATOM      1  O   UNL     1     -37.087  23.265   3.742  0.00  0.00    -0.412 OA
ENDROOT
BRANCH   1   2
ATOM      2  C   UNL     1     -36.141  24.128   4.200  0.00  0.00    +0.148 C 
ATOM      3  C   UNL     1     -36.484  25.111   5.129  0.00  0.00    +0.039 C 
ATOM      4  C   UNL     1     -34.827  24.028   3.743  0.00  0.00    +0.039 C 
ATOM      5  C   UNL     1     -34.199  25.895   5.143  0.00  0.00    +0.143 C 
ATOM      6  C   UNL     1     -35.513  25.995   5.601  0.00  0.00    +0.027 C 
ATOM      7  C   UNL     1     -33.855  24.912   4.215  0.00  0.00    +0.027 C 
BRANCH   5  10
ATOM      8  O   UNL     1     -33.157  27.034   6.850  0.00  0.00    -0.126 OA
ATOM      9  O   UNL     1     -32.426  27.322   4.797  0.00  0.00    -0.126 OA
ATOM     10  N   UNL     1     -33.211  26.796   5.621  0.00  0.00    +0.058 N 
ENDBRANCH   5  10
ENDBRANCH   1   2
BRANCH   1  11
ATOM     11  P   UNL     1     -38.289  23.628   2.707  0.00  0.00    +0.460 P 
ATOM     12  O   UNL     1     -39.447  24.307   3.390  0.00  0.00    -0.228 OA
BRANCH  11  13
ATOM     13  N   UNL     1     -38.656  22.219   1.916  0.00  0.00    -0.226 NA
ATOM     14  H   UNL     1     -37.835  21.616   1.897  0.00  0.00    +0.131 HD
ATOM     15  H   UNL     1     -38.945  22.432   0.961  0.00  0.00    +0.131 HD
ENDBRANCH  11  13
BRANCH  11  16
ATOM     16  O   UNL     1     -37.562  24.607   1.629  0.00  0.00    -0.274 OA
BRANCH  16  17
ATOM     17  C   UNL     1     -38.005  25.943   1.462  0.00  0.00    +0.154 C 
ATOM     18  C   UNL     1     -36.900  26.886   1.889  0.00  0.00    +0.035 C 
ENDBRANCH  16  17
ENDBRANCH  11  16
ENDBRANCH   1  11
TORSDOF 6
ENDMDL
MODEL 9
REMARK VINA RESULT:      -4.8      2.687      6.184
REMARK  Name = 556808
REMARK  6 active torsions:
REMARK  status: ('A' for Active; 'I' for Inactive)
REMARK    1  A    between atoms: O_1  and  C_2
REMARK    2  A    between atoms: O_1  and  P_11
REMARK    3  A    between atoms: C_5  and  N_10
REMARK    4  A    between atoms: P_11  and  N_13
REMARK    5  A    between atoms: P_11  and  O_16
REMARK    6  A    between atoms: O_16  and  C_17
REMARK                            x       y       z     vdW  Elec       q    Type
REMARK                         _______ _______ _______ _____ _____    ______ ____
ROOT
ATOM      1  O   UNL     1     -33.069  26.677   5.635  0.00  0.00    -0.412 OA
ENDROOT
BRANCH   1   2
ATOM      2  C   UNL     1     -34.055  25.903   5.107  0.00  0.00    +0.148 C 
ATOM      3  C   UNL     1     -33.786  25.081   4.012  0.00  0.00    +0.039 C 
ATOM      4  C   UNL     1     -35.335  25.929   5.661  0.00  0.00    +0.039 C 
ATOM      5  C   UNL     1     -36.076  24.312   4.025  0.00  0.00    +0.143 C 
ATOM      6  C   UNL     1     -34.796  24.285   3.471  0.00  0.00    +0.027 C 
ATOM      7  C   UNL     1     -36.346  25.133   5.120  0.00  0.00    +0.027 C 
BRANCH   5  10
ATOM      8  O   UNL     1     -36.815  22.356   3.066  0.00  0.00    -0.126 OA
ATOM      9  O   UNL     1     -38.268  23.968   3.414  0.00  0.00    -0.126 OA
ATOM     10  N   UNL     1     -37.105  23.504   3.474  0.00  0.00    +0.058 N 
ENDBRANCH   5  10
ENDBRANCH   1   2
BRANCH   1  11
ATOM     11  P   UNL     1     -32.411  27.992   4.938  0.00  0.00    +0.460 P 
ATOM     12  O   UNL     1     -31.228  27.648   4.070  0.00  0.00    -0.228 OA
BRANCH  11  13
ATOM     13  N   UNL     1     -32.105  29.060   6.167  0.00  0.00    -0.226 NA
ATOM     14  H   UNL     1     -32.790  28.927   6.911  0.00  0.00    +0.131 HD
ATOM     15  H   UNL     1     -32.170  30.014   5.812  0.00  0.00    +0.131 HD
ENDBRANCH  11  13
BRANCH  11  16
ATOM     16  O   UNL     1     -33.643  28.603   4.068  0.00  0.00    -0.274 OA
BRANCH  16  17
ATOM     17  C   UNL     1     -33.470  28.905   2.695  0.00  0.00    +0.154 C 
ATOM     18  C   UNL     1     -34.388  28.024   1.875  0.00  0.00    +0.035 C 
ENDBRANCH  16  17
ENDBRANCH  11  16
ENDBRANCH   1  11
TORSDOF 6
ENDMDL
