MODEL 1
REMARK VINA RESULT:      -6.9      0.000      0.000
REMARK  Name = 5284440
REMARK  1 active torsions:
REMARK  status: ('A' for Active; 'I' for Inactive)
REMARK    1  A    between atoms: C_13  and  O_28
REMARK                            x       y       z     vdW  Elec       q    Type
REMARK                         _______ _______ _______ _____ _____    ______ ____
ROOT
ATOM      1  O   UNL     1     -36.034  25.900   5.760  0.00  0.00    -0.345 OA
ATOM      2  O   UNL     1     -33.641  27.498   5.134  0.00  0.00    -0.443 OA
ATOM      3  O   UNL     1     -33.078  25.415   4.298  0.00  0.00    -0.247 OA
ATOM      4  O   UNL     1     -34.251  29.337   2.289  0.00  0.00    -0.442 OA
ATOM      5  O   UNL     1     -36.344  30.288   2.127  0.00  0.00    -0.248 OA
ATOM      6  O   UNL     1     -31.587  28.134   2.855  0.00  0.00    -0.288 OA
ATOM      7  N   UNL     1     -29.868  29.691   5.411  0.00  0.00    +0.388 N 
ATOM      8  C   UNL     1     -35.359  26.026   4.492  0.00  0.00    +0.206 C 
ATOM      9  C   UNL     1     -35.951  24.713   4.968  0.00  0.00    +0.151 C 
ATOM     10  C   UNL     1     -36.144  26.863   3.501  0.00  0.00    +0.044 C 
ATOM     11  C   UNL     1     -35.535  26.818   2.075  0.00  0.00    +0.038 C 
ATOM     12  C   UNL     1     -33.900  26.251   4.650  0.00  0.00    +0.344 C 
ATOM     13  C   UNL     1     -35.954  28.056   1.227  0.00  0.00    +0.177 C 
ATOM     14  C   UNL     1     -35.132  23.648   5.594  0.00  0.00    +0.035 C 
ATOM     15  C   UNL     1     -35.916  25.489   1.404  0.00  0.00    +0.003 C 
ATOM     16  C   UNL     1     -35.341  28.058  -0.176  0.00  0.00    +0.041 C 
ATOM     17  C   UNL     1     -32.266  27.920   5.154  0.00  0.00    +0.227 C 
ATOM     18  C   UNL     1     -35.566  29.363   1.920  0.00  0.00    +0.342 C 
ATOM     19  C   UNL     1     -32.020  28.758   6.410  0.00  0.00    +0.029 C 
ATOM     20  C   UNL     1     -32.052  28.684   3.853  0.00  0.00    +0.212 C 
ATOM     21  C   UNL     1     -30.543  29.133   6.599  0.00  0.00    -0.073 C 
ATOM     22  C   UNL     1     -32.492  30.103   3.774  0.00  0.00    +0.053 C 
ATOM     23  C   UNL     1     -33.816  30.416   3.132  0.00  0.00    +0.238 C 
ATOM     24  C   UNL     1     -30.390  31.004   5.012  0.00  0.00    -0.051 C 
ATOM     25  C   UNL     1     -31.709  31.072   4.281  0.00  0.00    -0.047 C 
ATOM     26  C   UNL     1     -28.427  29.786   5.673  0.00  0.00    -0.100 C 
ATOM     27  H   UNL     1     -30.052  29.056   4.634  0.00  0.00    -0.079 HD
ENDROOT
BRANCH  13  28
ATOM     28  O   UNL     1     -37.374  28.063   1.096  0.00  0.00    -0.376 OA
ATOM     29  H   UNL     1     -37.760  28.631   1.780  0.00  0.00    +0.211 HD
ENDBRANCH  13  28
TORSDOF 1
ENDMDL
MODEL 2
REMARK VINA RESULT:      -6.9      2.389      6.436
REMARK  Name = 5284440
REMARK  1 active torsions:
REMARK  status: ('A' for Active; 'I' for Inactive)
REMARK    1  A    between atoms: C_13  and  O_28
REMARK                            x       y       z     vdW  Elec       q    Type
REMARK                         _______ _______ _______ _____ _____    ______ ____
ROOT
ATOM      1  O   UNL     1     -35.066  30.940   3.086  0.00  0.00    -0.345 OA
ATOM      2  O   UNL     1     -34.918  28.032   3.529  0.00  0.00    -0.443 OA
ATOM      3  O   UNL     1     -33.879  28.275   1.476  0.00  0.00    -0.247 OA
ATOM      4  O   UNL     1     -32.293  27.367   5.653  0.00  0.00    -0.442 OA
ATOM      5  O   UNL     1     -32.034  28.816   7.427  0.00  0.00    -0.248 OA
ATOM      6  O   UNL     1     -32.978  25.577   3.375  0.00  0.00    -0.288 OA
ATOM      7  N   UNL     1     -35.888  23.780   3.839  0.00  0.00    +0.388 N 
ATOM      8  C   UNL     1     -33.906  30.088   3.000  0.00  0.00    +0.206 C 
ATOM      9  C   UNL     1     -34.137  31.242   2.043  0.00  0.00    +0.151 C 
ATOM     10  C   UNL     1     -32.956  30.287   4.164  0.00  0.00    +0.044 C 
ATOM     11  C   UNL     1     -31.610  29.540   3.964  0.00  0.00    +0.038 C 
ATOM     12  C   UNL     1     -34.248  28.713   2.557  0.00  0.00    +0.344 C 
ATOM     13  C   UNL     1     -30.893  29.265   5.320  0.00  0.00    +0.177 C 
ATOM     14  C   UNL     1     -34.701  31.053   0.685  0.00  0.00    +0.035 C 
ATOM     15  C   UNL     1     -30.732  30.336   2.986  0.00  0.00    +0.003 C 
ATOM     16  C   UNL     1     -29.577  28.500   5.158  0.00  0.00    +0.041 C 
ATOM     17  C   UNL     1     -35.141  26.629   3.309  0.00  0.00    +0.227 C 
ATOM     18  C   UNL     1     -31.791  28.476   6.275  0.00  0.00    +0.342 C 
ATOM     19  C   UNL     1     -36.516  26.250   3.863  0.00  0.00    +0.029 C 
ATOM     20  C   UNL     1     -33.984  25.916   3.997  0.00  0.00    +0.212 C 
ATOM     21  C   UNL     1     -36.912  24.801   3.545  0.00  0.00    -0.073 C 
ATOM     22  C   UNL     1     -34.046  25.702   5.469  0.00  0.00    +0.053 C 
ATOM     23  C   UNL     1     -33.313  26.656   6.371  0.00  0.00    +0.238 C 
ATOM     24  C   UNL     1     -35.612  23.634   5.275  0.00  0.00    -0.051 C 
ATOM     25  C   UNL     1     -34.759  24.673   5.961  0.00  0.00    -0.047 C 
ATOM     26  C   UNL     1     -36.313  22.491   3.280  0.00  0.00    -0.100 C 
ATOM     27  H   UNL     1     -35.018  24.092   3.407  0.00  0.00    -0.079 HD
ENDROOT
BRANCH  13  28
ATOM     28  O   UNL     1     -30.613  30.512   5.952  0.00  0.00    -0.376 OA
ATOM     29  H   UNL     1     -30.909  30.482   6.875  0.00  0.00    +0.211 HD
ENDBRANCH  13  28
TORSDOF 1
ENDMDL
MODEL 3
REMARK VINA RESULT:      -6.7      5.378      8.803
REMARK  Name = 5284440
REMARK  1 active torsions:
REMARK  status: ('A' for Active; 'I' for Inactive)
REMARK    1  A    between atoms: C_13  and  O_28
REMARK                            x       y       z     vdW  Elec       q    Type
REMARK                         _______ _______ _______ _____ _____    ______ ____
ROOT
ATOM      1  O   UNL     1     -40.438  22.426   1.420  0.00  0.00    -0.345 OA
ATOM      2  O   UNL     1     -37.748  21.390   0.812  0.00  0.00    -0.443 OA
ATOM      3  O   UNL     1     -37.978  23.105  -0.723  0.00  0.00    -0.247 OA
ATOM      4  O   UNL     1     -35.521  22.684   3.095  0.00  0.00    -0.442 OA
ATOM      5  O   UNL     1     -36.250  22.780   5.279  0.00  0.00    -0.248 OA
ATOM      6  O   UNL     1     -34.801  22.279   0.235  0.00  0.00    -0.288 OA
ATOM      7  N   UNL     1     -34.417  18.965  -0.652  0.00  0.00    +0.388 N 
ATOM      8  C   UNL     1     -39.207  23.168   1.300  0.00  0.00    +0.206 C 
ATOM      9  C   UNL     1     -40.532  23.708   0.795  0.00  0.00    +0.151 C 
ATOM     10  C   UNL     1     -38.690  23.648   2.642  0.00  0.00    +0.044 C 
ATOM     11  C   UNL     1     -37.496  24.629   2.500  0.00  0.00    +0.038 C 
ATOM     12  C   UNL     1     -38.269  22.552   0.328  0.00  0.00    +0.344 C 
ATOM     13  C   UNL     1     -36.627  24.674   3.792  0.00  0.00    +0.177 C 
ATOM     14  C   UNL     1     -40.933  23.635  -0.631  0.00  0.00    +0.035 C 
ATOM     15  C   UNL     1     -38.026  26.015   2.099  0.00  0.00    +0.003 C 
ATOM     16  C   UNL     1     -35.420  25.609   3.671  0.00  0.00    +0.041 C 
ATOM     17  C   UNL     1     -36.681  20.788   0.059  0.00  0.00    +0.227 C 
ATOM     18  C   UNL     1     -36.117  23.282   4.169  0.00  0.00    +0.342 C 
ATOM     19  C   UNL     1     -36.831  19.266   0.112  0.00  0.00    +0.029 C 
ATOM     20  C   UNL     1     -35.393  21.301   0.691  0.00  0.00    +0.212 C 
ATOM     21  C   UNL     1     -35.823  18.534  -0.786  0.00  0.00    -0.073 C 
ATOM     22  C   UNL     1     -34.893  20.650   1.931  0.00  0.00    +0.053 C 
ATOM     23  C   UNL     1     -35.187  21.297   3.258  0.00  0.00    +0.238 C 
ATOM     24  C   UNL     1     -33.836  18.644   0.659  0.00  0.00    -0.051 C 
ATOM     25  C   UNL     1     -34.201  19.500   1.847  0.00  0.00    -0.047 C 
ATOM     26  C   UNL     1     -33.618  18.348  -1.717  0.00  0.00    -0.100 C 
ATOM     27  H   UNL     1     -34.405  19.981  -0.733  0.00  0.00    -0.079 HD
ENDROOT
BRANCH  13  28
ATOM     28  O   UNL     1     -37.437  25.125   4.875  0.00  0.00    -0.376 OA
ATOM     29  H   UNL     1     -36.885  25.251   5.662  0.00  0.00    +0.211 HD
ENDBRANCH  13  28
TORSDOF 1
ENDMDL
MODEL 4
REMARK VINA RESULT:      -6.3      4.150      7.955
REMARK  Name = 5284440
REMARK  1 active torsions:
REMARK  status: ('A' for Active; 'I' for Inactive)
REMARK    1  A    between atoms: C_13  and  O_28
REMARK                            x       y       z     vdW  Elec       q    Type
REMARK                         _______ _______ _______ _____ _____    ______ ____
ROOT
ATOM      1  O   UNL     1     -39.175  25.712   0.990  0.00  0.00    -0.345 OA
ATOM      2  O   UNL     1     -37.148  23.584   0.788  0.00  0.00    -0.443 OA
ATOM      3  O   UNL     1     -36.231  25.267  -0.508  0.00  0.00    -0.247 OA
ATOM      4  O   UNL     1     -35.199  23.641   3.624  0.00  0.00    -0.442 OA
ATOM      5  O   UNL     1     -36.313  23.984   5.613  0.00  0.00    -0.248 OA
ATOM      6  O   UNL     1     -34.065  23.049   0.936  0.00  0.00    -0.288 OA
ATOM      7  N   UNL     1     -34.965  19.958  -0.309  0.00  0.00    +0.388 N 
ATOM      8  C   UNL     1     -37.756  25.815   1.221  0.00  0.00    +0.206 C 
ATOM      9  C   UNL     1     -38.549  26.916   0.542  0.00  0.00    +0.151 C 
ATOM     10  C   UNL     1     -37.419  25.960   2.692  0.00  0.00    +0.044 C 
ATOM     11  C   UNL     1     -35.922  26.292   2.926  0.00  0.00    +0.038 C 
ATOM     12  C   UNL     1     -36.978  24.872   0.378  0.00  0.00    +0.344 C 
ATOM     13  C   UNL     1     -35.457  25.891   4.358  0.00  0.00    +0.177 C 
ATOM     14  C   UNL     1     -38.586  27.083  -0.930  0.00  0.00    +0.035 C 
ATOM     15  C   UNL     1     -35.681  27.779   2.625  0.00  0.00    +0.003 C 
ATOM     16  C   UNL     1     -33.974  26.176   4.610  0.00  0.00    +0.041 C 
ATOM     17  C   UNL     1     -36.305  22.588   0.186  0.00  0.00    +0.227 C 
ATOM     18  C   UNL     1     -35.712  24.408   4.632  0.00  0.00    +0.342 C 
ATOM     19  C   UNL     1     -37.110  21.301  -0.004  0.00  0.00    +0.029 C 
ATOM     20  C   UNL     1     -35.114  22.435   1.125  0.00  0.00    +0.212 C 
ATOM     21  C   UNL     1     -36.340  20.221  -0.777  0.00  0.00    -0.073 C 
ATOM     22  C   UNL     1     -35.262  21.585   2.337  0.00  0.00    +0.053 C 
ATOM     23  C   UNL     1     -35.553  22.249   3.656  0.00  0.00    +0.238 C 
ATOM     24  C   UNL     1     -34.915  19.363   1.033  0.00  0.00    -0.051 C 
ATOM     25  C   UNL     1     -35.143  20.250   2.232  0.00  0.00    -0.047 C 
ATOM     26  C   UNL     1     -34.285  19.081  -1.270  0.00  0.00    -0.100 C 
ATOM     27  H   UNL     1     -34.492  20.859  -0.245  0.00  0.00    -0.079 HD
ENDROOT
BRANCH  13  28
ATOM     28  O   UNL     1     -36.223  26.625   5.311  0.00  0.00    -0.376 OA
ATOM     29  H   UNL     1     -35.629  27.024   5.966  0.00  0.00    +0.211 HD
ENDBRANCH  13  28
TORSDOF 1
ENDMDL
MODEL 5
REMARK VINA RESULT:      -6.3      5.035      8.243
REMARK  Name = 5284440
REMARK  1 active torsions:
REMARK  status: ('A' for Active; 'I' for Inactive)
REMARK    1  A    between atoms: C_13  and  O_28
REMARK                            x       y       z     vdW  Elec       q    Type
REMARK                         _______ _______ _______ _____ _____    ______ ____
ROOT
ATOM      1  O   UNL     1     -36.472  23.417   5.165  0.00  0.00    -0.345 OA
ATOM      2  O   UNL     1     -38.501  24.703   3.461  0.00  0.00    -0.443 OA
ATOM      3  O   UNL     1     -36.671  26.092   3.189  0.00  0.00    -0.247 OA
ATOM      4  O   UNL     1     -38.653  23.023   0.461  0.00  0.00    -0.442 OA
ATOM      5  O   UNL     1     -38.541  20.724   0.581  0.00  0.00    -0.248 OA
ATOM      6  O   UNL     1     -38.943  25.981   0.635  0.00  0.00    -0.288 OA
ATOM      7  N   UNL     1     -41.929  27.010   2.030  0.00  0.00    +0.388 N 
ATOM      8  C   UNL     1     -36.345  23.824   3.788  0.00  0.00    +0.206 C 
ATOM      9  C   UNL     1     -35.210  23.969   4.786  0.00  0.00    +0.151 C 
ATOM     10  C   UNL     1     -36.331  22.644   2.837  0.00  0.00    +0.044 C 
ATOM     11  C   UNL     1     -35.973  23.059   1.385  0.00  0.00    +0.038 C 
ATOM     12  C   UNL     1     -37.174  25.014   3.473  0.00  0.00    +0.344 C 
ATOM     13  C   UNL     1     -36.494  22.026   0.342  0.00  0.00    +0.177 C 
ATOM     14  C   UNL     1     -34.903  25.250   5.466  0.00  0.00    +0.035 C 
ATOM     15  C   UNL     1     -34.456  23.283   1.283  0.00  0.00    +0.003 C 
ATOM     16  C   UNL     1     -36.184  22.424  -1.104  0.00  0.00    +0.041 C 
ATOM     17  C   UNL     1     -39.406  25.713   2.982  0.00  0.00    +0.227 C 
ATOM     18  C   UNL     1     -38.004  21.820   0.468  0.00  0.00    +0.342 C 
ATOM     19  C   UNL     1     -40.694  25.659   3.804  0.00  0.00    +0.029 C 
ATOM     20  C   UNL     1     -39.608  25.413   1.501  0.00  0.00    +0.212 C 
ATOM     21  C   UNL     1     -41.668  26.797   3.466  0.00  0.00    -0.073 C 
ATOM     22  C   UNL     1     -40.575  24.352   1.110  0.00  0.00    +0.053 C 
ATOM     23  C   UNL     1     -40.052  22.980   0.782  0.00  0.00    +0.238 C 
ATOM     24  C   UNL     1     -42.649  25.895   1.400  0.00  0.00    -0.051 C 
ATOM     25  C   UNL     1     -41.890  24.634   1.065  0.00  0.00    -0.047 C 
ATOM     26  C   UNL     1     -42.685  28.255   1.853  0.00  0.00    -0.100 C 
ATOM     27  H   UNL     1     -41.023  27.069   1.565  0.00  0.00    -0.079 HD
ENDROOT
BRANCH  13  28
ATOM     28  O   UNL     1     -35.882  20.764   0.601  0.00  0.00    -0.376 OA
ATOM     29  H   UNL     1     -36.505  20.052   0.388  0.00  0.00    +0.211 HD
ENDBRANCH  13  28
TORSDOF 1
ENDMDL
MODEL 6
REMARK VINA RESULT:      -6.1      3.833      5.537
REMARK  Name = 5284440
REMARK  1 active torsions:
REMARK  status: ('A' for Active; 'I' for Inactive)
REMARK    1  A    between atoms: C_13  and  O_28
REMARK                            x       y       z     vdW  Elec       q    Type
REMARK                         _______ _______ _______ _____ _____    ______ ____
ROOT
ATOM      1  O   UNL     1     -35.177  20.726   3.223  0.00  0.00    -0.345 OA
ATOM      2  O   UNL     1     -34.836  23.558   2.492  0.00  0.00    -0.443 OA
ATOM      3  O   UNL     1     -34.489  22.481   0.474  0.00  0.00    -0.247 OA
ATOM      4  O   UNL     1     -37.944  24.980   2.089  0.00  0.00    -0.442 OA
ATOM      5  O   UNL     1     -39.543  24.375   3.635  0.00  0.00    -0.248 OA
ATOM      6  O   UNL     1     -35.637  25.700   0.351  0.00  0.00    -0.288 OA
ATOM      7  N   UNL     1     -33.225  27.587   1.944  0.00  0.00    +0.388 N 
ATOM      8  C   UNL     1     -35.810  21.446   2.147  0.00  0.00    +0.206 C 
ATOM      9  C   UNL     1     -35.353  20.007   2.000  0.00  0.00    +0.151 C 
ATOM     10  C   UNL     1     -37.276  21.721   2.420  0.00  0.00    +0.044 C 
ATOM     11  C   UNL     1     -38.012  22.295   1.180  0.00  0.00    +0.038 C 
ATOM     12  C   UNL     1     -34.948  22.528   1.608  0.00  0.00    +0.344 C 
ATOM     13  C   UNL     1     -39.293  23.085   1.582  0.00  0.00    +0.177 C 
ATOM     14  C   UNL     1     -34.074  19.638   1.349  0.00  0.00    +0.035 C 
ATOM     15  C   UNL     1     -38.309  21.153   0.196  0.00  0.00    +0.003 C 
ATOM     16  C   UNL     1     -40.025  23.692   0.382  0.00  0.00    +0.041 C 
ATOM     17  C   UNL     1     -34.189  24.755   2.025  0.00  0.00    +0.227 C 
ATOM     18  C   UNL     1     -38.969  24.211   2.564  0.00  0.00    +0.342 C 
ATOM     19  C   UNL     1     -33.362  25.353   3.164  0.00  0.00    +0.029 C 
ATOM     20  C   UNL     1     -35.311  25.664   1.537  0.00  0.00    +0.212 C 
ATOM     21  C   UNL     1     -32.514  26.554   2.722  0.00  0.00    -0.073 C 
ATOM     22  C   UNL     1     -36.075  26.460   2.535  0.00  0.00    +0.053 C 
ATOM     23  C   UNL     1     -37.405  25.942   3.009  0.00  0.00    +0.238 C 
ATOM     24  C   UNL     1     -34.246  28.299   2.724  0.00  0.00    -0.051 C 
ATOM     25  C   UNL     1     -35.562  27.613   2.999  0.00  0.00    -0.047 C 
ATOM     26  C   UNL     1     -32.252  28.544   1.405  0.00  0.00    -0.100 C 
ATOM     27  H   UNL     1     -33.718  27.109   1.190  0.00  0.00    -0.079 HD
ENDROOT
BRANCH  13  28
ATOM     28  O   UNL     1     -40.188  22.198   2.250  0.00  0.00    -0.376 OA
ATOM     29  H   UNL     1     -39.861  21.288   2.172  0.00  0.00    +0.211 HD
ENDBRANCH  13  28
TORSDOF 1
ENDMDL
MODEL 7
REMARK VINA RESULT:      -6.1      4.673      8.118
REMARK  Name = 5284440
REMARK  1 active torsions:
REMARK  status: ('A' for Active; 'I' for Inactive)
REMARK    1  A    between atoms: C_13  and  O_28
REMARK                            x       y       z     vdW  Elec       q    Type
REMARK                         _______ _______ _______ _____ _____    ______ ____
ROOT
ATOM      1  O   UNL     1     -35.093  21.843   0.649  0.00  0.00    -0.345 OA
ATOM      2  O   UNL     1     -37.628  23.288   1.052  0.00  0.00    -0.443 OA
ATOM      3  O   UNL     1     -37.835  21.504   2.511  0.00  0.00    -0.247 OA
ATOM      4  O   UNL     1     -37.062  25.950   3.158  0.00  0.00    -0.442 OA
ATOM      5  O   UNL     1     -35.111  27.127   2.803  0.00  0.00    -0.248 OA
ATOM      6  O   UNL     1     -39.571  24.352   3.267  0.00  0.00    -0.288 OA
ATOM      7  N   UNL     1     -41.675  24.874   0.580  0.00  0.00    +0.388 N 
ATOM      8  C   UNL     1     -35.681  22.271   1.894  0.00  0.00    +0.206 C 
ATOM      9  C   UNL     1     -34.953  20.948   1.754  0.00  0.00    +0.151 C 
ATOM     10  C   UNL     1     -34.945  23.446   2.507  0.00  0.00    +0.044 C 
ATOM     11  C   UNL     1     -35.433  23.767   3.944  0.00  0.00    +0.038 C 
ATOM     12  C   UNL     1     -37.165  22.279   1.843  0.00  0.00    +0.344 C 
ATOM     13  C   UNL     1     -35.124  25.240   4.346  0.00  0.00    +0.177 C 
ATOM     14  C   UNL     1     -35.664  19.661   1.558  0.00  0.00    +0.035 C 
ATOM     15  C   UNL     1     -34.825  22.750   4.923  0.00  0.00    +0.003 C 
ATOM     16  C   UNL     1     -35.624  25.597   5.749  0.00  0.00    +0.041 C 
ATOM     17  C   UNL     1     -39.044  23.533   1.066  0.00  0.00    +0.227 C 
ATOM     18  C   UNL     1     -35.738  26.229   3.354  0.00  0.00    +0.342 C 
ATOM     19  C   UNL     1     -39.497  23.923  -0.342  0.00  0.00    +0.029 C 
ATOM     20  C   UNL     1     -39.262  24.624   2.107  0.00  0.00    +0.212 C 
ATOM     21  C   UNL     1     -41.021  24.062  -0.464  0.00  0.00    -0.073 C 
ATOM     22  C   UNL     1     -39.015  26.040   1.723  0.00  0.00    +0.053 C 
ATOM     23  C   UNL     1     -37.701  26.673   2.095  0.00  0.00    +0.238 C 
ATOM     24  C   UNL     1     -41.308  26.295   0.523  0.00  0.00    -0.051 C 
ATOM     25  C   UNL     1     -39.959  26.721   1.050  0.00  0.00    -0.047 C 
ATOM     26  C   UNL     1     -43.131  24.730   0.466  0.00  0.00    -0.100 C 
ATOM     27  H   UNL     1     -41.347  24.527   1.481  0.00  0.00    -0.079 HD
ENDROOT
BRANCH  13  28
ATOM     28  O   UNL     1     -33.713  25.439   4.309  0.00  0.00    -0.376 OA
ATOM     29  H   UNL     1     -33.513  26.375   4.462  0.00  0.00    +0.211 HD
ENDBRANCH  13  28
TORSDOF 1
ENDMDL
MODEL 8
REMARK VINA RESULT:      -6.0      4.954      7.161
REMARK  Name = 5284440
REMARK  1 active torsions:
REMARK  status: ('A' for Active; 'I' for Inactive)
REMARK    1  A    between atoms: C_13  and  O_28
REMARK                            x       y       z     vdW  Elec       q    Type
REMARK                         _______ _______ _______ _____ _____    ______ ____
ROOT
ATOM      1  O   UNL     1     -34.438  19.430   2.250  0.00  0.00    -0.345 OA
ATOM      2  O   UNL     1     -35.098  22.298   2.348  0.00  0.00    -0.443 OA
ATOM      3  O   UNL     1     -33.896  22.133   0.378  0.00  0.00    -0.247 OA
ATOM      4  O   UNL     1     -38.332  22.728   1.251  0.00  0.00    -0.442 OA
ATOM      5  O   UNL     1     -39.865  21.169   1.981  0.00  0.00    -0.248 OA
ATOM      6  O   UNL     1     -36.172  24.675   0.613  0.00  0.00    -0.288 OA
ATOM      7  N   UNL     1     -35.151  26.562   3.318  0.00  0.00    +0.388 N 
ATOM      8  C   UNL     1     -35.040  20.237   1.219  0.00  0.00    +0.206 C 
ATOM      9  C   UNL     1     -34.026  19.151   0.910  0.00  0.00    +0.151 C 
ATOM     10  C   UNL     1     -36.513  19.931   1.034  0.00  0.00    +0.044 C 
ATOM     11  C   UNL     1     -37.111  20.631  -0.216  0.00  0.00    +0.038 C 
ATOM     12  C   UNL     1     -34.583  21.648   1.267  0.00  0.00    +0.344 C 
ATOM     13  C   UNL     1     -38.656  20.797  -0.103  0.00  0.00    +0.177 C 
ATOM     14  C   UNL     1     -32.593  19.442   0.665  0.00  0.00    +0.035 C 
ATOM     15  C   UNL     1     -36.693  19.858  -1.476  0.00  0.00    +0.003 C 
ATOM     16  C   UNL     1     -39.272  21.515  -1.307  0.00  0.00    +0.041 C 
ATOM     17  C   UNL     1     -34.894  23.720   2.415  0.00  0.00    +0.227 C 
ATOM     18  C   UNL     1     -39.044  21.565   1.161  0.00  0.00    +0.342 C 
ATOM     19  C   UNL     1     -34.661  24.123   3.872  0.00  0.00    +0.029 C 
ATOM     20  C   UNL     1     -36.141  24.343   1.797  0.00  0.00    +0.212 C 
ATOM     21  C   UNL     1     -34.286  25.603   4.032  0.00  0.00    -0.073 C 
ATOM     22  C   UNL     1     -37.366  24.473   2.632  0.00  0.00    +0.053 C 
ATOM     23  C   UNL     1     -38.449  23.438   2.494  0.00  0.00    +0.238 C 
ATOM     24  C   UNL     1     -36.520  26.612   3.846  0.00  0.00    -0.051 C 
ATOM     25  C   UNL     1     -37.478  25.500   3.493  0.00  0.00    -0.047 C 
ATOM     26  C   UNL     1     -34.545  27.897   3.375  0.00  0.00    -0.100 C 
ATOM     27  H   UNL     1     -35.224  26.240   2.352  0.00  0.00    -0.079 HD
ENDROOT
BRANCH  13  28
ATOM     28  O   UNL     1     -39.250  19.504  -0.000  0.00  0.00    -0.376 OA
ATOM     29  H   UNL     1     -39.442  19.164  -0.888  0.00  0.00    +0.211 HD
ENDBRANCH  13  28
TORSDOF 1
ENDMDL
MODEL 9
REMARK VINA RESULT:      -6.0      2.293      4.575
REMARK  Name = 5284440
REMARK  1 active torsions:
REMARK  status: ('A' for Active; 'I' for Inactive)
REMARK    1  A    between atoms: C_13  and  O_28
REMARK                            x       y       z     vdW  Elec       q    Type
REMARK                         _______ _______ _______ _____ _____    ______ ____
ROOT
ATOM      1  O   UNL     1     -33.087  23.653   0.359  0.00  0.00    -0.345 OA
ATOM      2  O   UNL     1     -33.034  25.797   2.378  0.00  0.00    -0.443 OA
ATOM      3  O   UNL     1     -34.132  26.808   0.610  0.00  0.00    -0.247 OA
ATOM      4  O   UNL     1     -35.562  25.243   4.647  0.00  0.00    -0.442 OA
ATOM      5  O   UNL     1     -35.876  23.055   5.300  0.00  0.00    -0.248 OA
ATOM      6  O   UNL     1     -34.813  27.981   3.750  0.00  0.00    -0.288 OA
ATOM      7  N   UNL     1     -31.781  29.073   4.988  0.00  0.00    +0.388 N 
ATOM      8  C   UNL     1     -34.190  24.450   0.835  0.00  0.00    +0.206 C 
ATOM      9  C   UNL     1     -34.057  24.037  -0.619  0.00  0.00    +0.151 C 
ATOM     10  C   UNL     1     -35.125  23.664   1.733  0.00  0.00    +0.044 C 
ATOM     11  C   UNL     1     -36.423  24.446   2.066  0.00  0.00    +0.038 C 
ATOM     12  C   UNL     1     -33.769  25.818   1.230  0.00  0.00    +0.344 C 
ATOM     13  C   UNL     1     -37.090  23.931   3.376  0.00  0.00    +0.177 C 
ATOM     14  C   UNL     1     -33.512  24.941  -1.660  0.00  0.00    +0.035 C 
ATOM     15  C   UNL     1     -37.373  24.385   0.860  0.00  0.00    +0.003 C 
ATOM     16  C   UNL     1     -38.357  24.706   3.750  0.00  0.00    +0.041 C 
ATOM     17  C   UNL     1     -32.724  27.065   2.980  0.00  0.00    +0.227 C 
ATOM     18  C   UNL     1     -36.121  23.999   4.558  0.00  0.00    +0.342 C 
ATOM     19  C   UNL     1     -31.316  27.005   3.573  0.00  0.00    +0.029 C 
ATOM     20  C   UNL     1     -33.817  27.307   4.014  0.00  0.00    +0.212 C 
ATOM     21  C   UNL     1     -30.833  28.360   4.111  0.00  0.00    -0.073 C 
ATOM     22  C   UNL     1     -33.708  26.644   5.342  0.00  0.00    +0.053 C 
ATOM     23  C   UNL     1     -34.482  25.377   5.584  0.00  0.00    +0.238 C 
ATOM     24  C   UNL     1     -32.015  28.388   6.266  0.00  0.00    -0.051 C 
ATOM     25  C   UNL     1     -32.919  27.179   6.290  0.00  0.00    -0.047 C 
ATOM     26  C   UNL     1     -31.285  30.432   5.235  0.00  0.00    -0.100 C 
ATOM     27  H   UNL     1     -32.679  29.099   4.505  0.00  0.00    -0.079 HD
ENDROOT
BRANCH  13  28
ATOM     28  O   UNL     1     -37.438  22.558   3.205  0.00  0.00    -0.376 OA
ATOM     29  H   UNL     1     -38.340  22.494   2.857  0.00  0.00    +0.211 HD
ENDBRANCH  13  28
TORSDOF 1
ENDMDL
