MODEL 1
REMARK VINA RESULT:      -6.2      0.000      0.000
REMARK  Name = 5990390
REMARK  3 active torsions:
REMARK  status: ('A' for Active; 'I' for Inactive)
REMARK    1  A    between atoms: C_5  and  C_16
REMARK    2  A    between atoms: C_6  and  N_13
REMARK    3  A    between atoms: C_17  and  C_18
REMARK                            x       y       z     vdW  Elec       q    Type
REMARK                         _______ _______ _______ _____ _____    ______ ____
ROOT
ATOM      1  N   UNL     1     -36.296  22.635   3.173  0.00  0.00    -0.331 NA
ATOM      2  N   UNL     1     -38.604  23.275   2.907  0.00  0.00    -0.316 NA
ATOM      3  N   UNL     1     -40.065  21.966   1.581  0.00  0.00    -0.334 N 
ATOM      4  N   UNL     1     -37.140  24.559   4.217  0.00  0.00    -0.283 N 
ATOM      5  C   UNL     1     -36.552  21.580   2.383  0.00  0.00    +0.145 C 
ATOM      6  C   UNL     1     -37.770  21.294   1.821  0.00  0.00    +0.173 C 
ATOM      7  C   UNL     1     -38.776  22.191   2.123  0.00  0.00    +0.189 C 
ATOM      8  C   UNL     1     -37.358  23.434   3.392  0.00  0.00    +0.197 C 
ATOM      9  H   UNL     1     -40.799  22.591   1.781  0.00  0.00    +0.144 HD
ATOM     10  H   UNL     1     -40.228  21.184   1.004  0.00  0.00    +0.144 HD
ATOM     11  H   UNL     1     -36.249  24.724   4.598  0.00  0.00    +0.156 HD
ATOM     12  H   UNL     1     -37.881  25.177   4.411  0.00  0.00    +0.156 HD
ENDROOT
BRANCH   6  13
ATOM     13  N   UNL     1     -37.986  20.177   1.001  0.00  0.00    -0.310 NA
ATOM     14  H   UNL     1     -37.220  19.694   0.613  0.00  0.00    +0.120 HD
ATOM     15  H   UNL     1     -38.904  19.875   0.811  0.00  0.00    +0.120 HD
ENDBRANCH   6  13
BRANCH   5  16
ATOM     16  C   UNL     1     -35.387  20.708   2.147  0.00  0.00    +0.030 C 
ATOM     17  C   UNL     1     -34.484  20.865   1.149  0.00  0.00    +0.002 C 
BRANCH  17  18
ATOM     18  C   UNL     1     -33.324  20.016   0.928  0.00  0.00    +0.000 C 
ATOM     19  C   UNL     1     -32.268  20.470   0.138  0.00  0.00    +0.000 C 
ATOM     20  C   UNL     1     -33.269  18.747   1.504  0.00  0.00    +0.000 C 
ATOM     21  C   UNL     1     -31.155  19.656  -0.074  0.00  0.00    +0.000 C 
ATOM     22  C   UNL     1     -32.156  17.933   1.293  0.00  0.00    +0.000 C 
ATOM     23  C   UNL     1     -31.099  18.388   0.503  0.00  0.00    +0.000 C 
ENDBRANCH  17  18
ENDBRANCH   5  16
TORSDOF 3
ENDMDL
MODEL 2
REMARK VINA RESULT:      -6.2      0.013      1.172
REMARK  Name = 5990390
REMARK  3 active torsions:
REMARK  status: ('A' for Active; 'I' for Inactive)
REMARK    1  A    between atoms: C_5  and  C_16
REMARK    2  A    between atoms: C_6  and  N_13
REMARK    3  A    between atoms: C_17  and  C_18
REMARK                            x       y       z     vdW  Elec       q    Type
REMARK                         _______ _______ _______ _____ _____    ______ ____
ROOT
ATOM      1  N   UNL     1     -36.297  22.629   3.171  0.00  0.00    -0.331 NA
ATOM      2  N   UNL     1     -38.606  23.264   2.905  0.00  0.00    -0.316 NA
ATOM      3  N   UNL     1     -40.063  21.955   1.575  0.00  0.00    -0.334 N 
ATOM      4  N   UNL     1     -37.146  24.550   4.218  0.00  0.00    -0.283 N 
ATOM      5  C   UNL     1     -36.549  21.575   2.379  0.00  0.00    +0.145 C 
ATOM      6  C   UNL     1     -37.766  21.288   1.816  0.00  0.00    +0.173 C 
ATOM      7  C   UNL     1     -38.775  22.182   2.119  0.00  0.00    +0.189 C 
ATOM      8  C   UNL     1     -37.360  23.426   3.391  0.00  0.00    +0.197 C 
ATOM      9  H   UNL     1     -40.799  22.577   1.776  0.00  0.00    +0.144 HD
ATOM     10  H   UNL     1     -40.224  21.174   0.997  0.00  0.00    +0.144 HD
ATOM     11  H   UNL     1     -36.255  24.716   4.600  0.00  0.00    +0.156 HD
ATOM     12  H   UNL     1     -37.889  25.166   4.412  0.00  0.00    +0.156 HD
ENDROOT
BRANCH   6  13
ATOM     13  N   UNL     1     -37.980  20.171   0.993  0.00  0.00    -0.310 NA
ATOM     14  H   UNL     1     -37.866  20.249   0.018  0.00  0.00    +0.120 HD
ATOM     15  H   UNL     1     -38.243  19.310   1.391  0.00  0.00    +0.120 HD
ENDBRANCH   6  13
BRANCH   5  16
ATOM     16  C   UNL     1     -35.382  20.707   2.142  0.00  0.00    +0.030 C 
ATOM     17  C   UNL     1     -34.479  20.868   1.146  0.00  0.00    +0.002 C 
BRANCH  17  18
ATOM     18  C   UNL     1     -33.316  20.022   0.924  0.00  0.00    +0.000 C 
ATOM     19  C   UNL     1     -33.253  18.756   1.506  0.00  0.00    +0.000 C 
ATOM     20  C   UNL     1     -32.264  20.479   0.130  0.00  0.00    +0.000 C 
ATOM     21  C   UNL     1     -32.139  17.945   1.292  0.00  0.00    +0.000 C 
ATOM     22  C   UNL     1     -31.149  19.668  -0.083  0.00  0.00    +0.000 C 
ATOM     23  C   UNL     1     -31.087  18.401   0.498  0.00  0.00    +0.000 C 
ENDBRANCH  17  18
ENDBRANCH   5  16
TORSDOF 3
ENDMDL
MODEL 3
REMARK VINA RESULT:      -6.1      0.850      2.646
REMARK  Name = 5990390
REMARK  3 active torsions:
REMARK  status: ('A' for Active; 'I' for Inactive)
REMARK    1  A    between atoms: C_5  and  C_16
REMARK    2  A    between atoms: C_6  and  N_13
REMARK    3  A    between atoms: C_17  and  C_18
REMARK                            x       y       z     vdW  Elec       q    Type
REMARK                         _______ _______ _______ _____ _____    ______ ____
ROOT
ATOM      1  N   UNL     1     -37.497  21.509   1.836  0.00  0.00    -0.331 NA
ATOM      2  N   UNL     1     -38.922  23.136   2.900  0.00  0.00    -0.316 NA
ATOM      3  N   UNL     1     -37.985  25.014   3.996  0.00  0.00    -0.334 N 
ATOM      4  N   UNL     1     -39.831  21.267   1.809  0.00  0.00    -0.283 N 
ATOM      5  C   UNL     1     -36.447  22.247   2.232  0.00  0.00    +0.145 C 
ATOM      6  C   UNL     1     -36.531  23.414   2.947  0.00  0.00    +0.173 C 
ATOM      7  C   UNL     1     -37.814  23.817   3.258  0.00  0.00    +0.189 C 
ATOM      8  C   UNL     1     -38.694  22.008   2.201  0.00  0.00    +0.197 C 
ATOM      9  H   UNL     1     -38.890  25.323   4.230  0.00  0.00    +0.144 HD
ATOM     10  H   UNL     1     -37.200  25.538   4.275  0.00  0.00    +0.144 HD
ATOM     11  H   UNL     1     -39.723  20.435   1.295  0.00  0.00    +0.156 HD
ATOM     12  H   UNL     1     -40.731  21.585   2.048  0.00  0.00    +0.156 HD
ENDROOT
BRANCH   6  13
ATOM     13  N   UNL     1     -35.401  24.149   3.337  0.00  0.00    -0.310 NA
ATOM     14  H   UNL     1     -35.439  25.133   3.365  0.00  0.00    +0.120 HD
ATOM     15  H   UNL     1     -34.570  23.682   3.582  0.00  0.00    +0.120 HD
ENDBRANCH   6  13
BRANCH   5  16
ATOM     16  C   UNL     1     -35.140  21.697   1.830  0.00  0.00    +0.030 C 
ATOM     17  C   UNL     1     -34.899  20.399   1.528  0.00  0.00    +0.002 C 
BRANCH  17  18
ATOM     18  C   UNL     1     -33.613  19.860   1.113  0.00  0.00    +0.000 C 
ATOM     19  C   UNL     1     -33.213  18.597   1.548  0.00  0.00    +0.000 C 
ATOM     20  C   UNL     1     -32.780  20.608   0.280  0.00  0.00    +0.000 C 
ATOM     21  C   UNL     1     -31.980  18.080   1.149  0.00  0.00    +0.000 C 
ATOM     22  C   UNL     1     -31.547  20.092  -0.118  0.00  0.00    +0.000 C 
ATOM     23  C   UNL     1     -31.147  18.827   0.317  0.00  0.00    +0.000 C 
ENDBRANCH  17  18
ENDBRANCH   5  16
TORSDOF 3
ENDMDL
MODEL 4
REMARK VINA RESULT:      -6.1      0.855      2.385
REMARK  Name = 5990390
REMARK  3 active torsions:
REMARK  status: ('A' for Active; 'I' for Inactive)
REMARK    1  A    between atoms: C_5  and  C_16
REMARK    2  A    between atoms: C_6  and  N_13
REMARK    3  A    between atoms: C_17  and  C_18
REMARK                            x       y       z     vdW  Elec       q    Type
REMARK                         _______ _______ _______ _____ _____    ______ ____
ROOT
ATOM      1  N   UNL     1     -37.478  21.519   1.840  0.00  0.00    -0.331 NA
ATOM      2  N   UNL     1     -38.904  23.146   2.903  0.00  0.00    -0.316 NA
ATOM      3  N   UNL     1     -37.969  25.032   3.986  0.00  0.00    -0.334 N 
ATOM      4  N   UNL     1     -39.811  21.269   1.824  0.00  0.00    -0.283 N 
ATOM      5  C   UNL     1     -36.429  22.261   2.228  0.00  0.00    +0.145 C 
ATOM      6  C   UNL     1     -36.513  23.432   2.938  0.00  0.00    +0.173 C 
ATOM      7  C   UNL     1     -37.797  23.832   3.253  0.00  0.00    +0.189 C 
ATOM      8  C   UNL     1     -38.676  22.015   2.208  0.00  0.00    +0.197 C 
ATOM      9  H   UNL     1     -38.874  25.339   4.222  0.00  0.00    +0.144 HD
ATOM     10  H   UNL     1     -37.183  25.560   4.259  0.00  0.00    +0.144 HD
ATOM     11  H   UNL     1     -39.703  20.435   1.314  0.00  0.00    +0.156 HD
ATOM     12  H   UNL     1     -40.712  21.586   2.066  0.00  0.00    +0.156 HD
ENDROOT
BRANCH   6  13
ATOM     13  N   UNL     1     -35.384  24.172   3.320  0.00  0.00    -0.310 NA
ATOM     14  H   UNL     1     -35.432  25.155   3.366  0.00  0.00    +0.120 HD
ATOM     15  H   UNL     1     -34.543  23.711   3.541  0.00  0.00    +0.120 HD
ENDBRANCH   6  13
BRANCH   5  16
ATOM     16  C   UNL     1     -35.122  21.714   1.823  0.00  0.00    +0.030 C 
ATOM     17  C   UNL     1     -34.881  20.418   1.514  0.00  0.00    +0.002 C 
BRANCH  17  18
ATOM     18  C   UNL     1     -33.595  19.881   1.096  0.00  0.00    +0.000 C 
ATOM     19  C   UNL     1     -32.761  20.633   0.269  0.00  0.00    +0.000 C 
ATOM     20  C   UNL     1     -33.197  18.613   1.522  0.00  0.00    +0.000 C 
ATOM     21  C   UNL     1     -31.528  20.118  -0.131  0.00  0.00    +0.000 C 
ATOM     22  C   UNL     1     -31.965  18.098   1.121  0.00  0.00    +0.000 C 
ATOM     23  C   UNL     1     -31.130  18.851   0.294  0.00  0.00    +0.000 C 
ENDBRANCH  17  18
ENDBRANCH   5  16
TORSDOF 3
ENDMDL
MODEL 5
REMARK VINA RESULT:      -6.1      5.516      7.761
REMARK  Name = 5990390
REMARK  3 active torsions:
REMARK  status: ('A' for Active; 'I' for Inactive)
REMARK    1  A    between atoms: C_5  and  C_16
REMARK    2  A    between atoms: C_6  and  N_13
REMARK    3  A    between atoms: C_17  and  C_18
REMARK                            x       y       z     vdW  Elec       q    Type
REMARK                         _______ _______ _______ _____ _____    ______ ____
ROOT
ATOM      1  N   UNL     1     -34.579  23.894   5.759  0.00  0.00    -0.331 NA
ATOM      2  N   UNL     1     -36.349  22.681   4.661  0.00  0.00    -0.316 NA
ATOM      3  N   UNL     1     -37.951  23.827   3.347  0.00  0.00    -0.334 N 
ATOM      4  N   UNL     1     -34.751  21.564   5.969  0.00  0.00    -0.283 N 
ATOM      5  C   UNL     1     -35.092  25.018   5.231  0.00  0.00    +0.145 C 
ATOM      6  C   UNL     1     -36.202  25.073   4.426  0.00  0.00    +0.173 C 
ATOM      7  C   UNL     1     -36.799  23.854   4.171  0.00  0.00    +0.189 C 
ATOM      8  C   UNL     1     -35.251  22.772   5.436  0.00  0.00    +0.197 C 
ATOM      9  H   UNL     1     -38.395  22.971   3.150  0.00  0.00    +0.144 HD
ATOM     10  H   UNL     1     -38.309  24.664   2.971  0.00  0.00    +0.144 HD
ATOM     11  H   UNL     1     -33.951  21.572   6.541  0.00  0.00    +0.156 HD
ATOM     12  H   UNL     1     -35.203  20.713   5.765  0.00  0.00    +0.156 HD
ENDROOT
BRANCH   6  13
ATOM     13  N   UNL     1     -36.699  26.274   3.898  0.00  0.00    -0.310 NA
ATOM     14  H   UNL     1     -36.426  26.567   2.998  0.00  0.00    +0.120 HD
ATOM     15  H   UNL     1     -37.319  26.826   4.427  0.00  0.00    +0.120 HD
ENDBRANCH   6  13
BRANCH   5  16
ATOM     16  C   UNL     1     -34.353  26.242   5.586  0.00  0.00    +0.030 C 
ATOM     17  C   UNL     1     -33.346  26.784   4.861  0.00  0.00    +0.002 C 
BRANCH  17  18
ATOM     18  C   UNL     1     -32.629  28.003   5.202  0.00  0.00    +0.000 C 
ATOM     19  C   UNL     1     -32.115  28.173   6.487  0.00  0.00    +0.000 C 
ATOM     20  C   UNL     1     -32.457  29.002   4.244  0.00  0.00    +0.000 C 
ATOM     21  C   UNL     1     -31.427  29.342   6.814  0.00  0.00    +0.000 C 
ATOM     22  C   UNL     1     -31.770  30.170   4.570  0.00  0.00    +0.000 C 
ATOM     23  C   UNL     1     -31.255  30.340   5.856  0.00  0.00    +0.000 C 
ENDBRANCH  17  18
ENDBRANCH   5  16
TORSDOF 3
ENDMDL
MODEL 6
REMARK VINA RESULT:      -5.9      5.859      8.261
REMARK  Name = 5990390
REMARK  3 active torsions:
REMARK  status: ('A' for Active; 'I' for Inactive)
REMARK    1  A    between atoms: C_5  and  C_16
REMARK    2  A    between atoms: C_6  and  N_13
REMARK    3  A    between atoms: C_17  and  C_18
REMARK                            x       y       z     vdW  Elec       q    Type
REMARK                         _______ _______ _______ _____ _____    ______ ____
ROOT
ATOM      1  N   UNL     1     -33.183  28.729   4.043  0.00  0.00    -0.331 NA
ATOM      2  N   UNL     1     -32.143  30.308   5.537  0.00  0.00    -0.316 NA
ATOM      3  N   UNL     1     -31.201  29.579   7.584  0.00  0.00    -0.334 N 
ATOM      4  N   UNL     1     -33.082  31.011   3.505  0.00  0.00    -0.283 N 
ATOM      5  C   UNL     1     -32.882  27.768   4.931  0.00  0.00    +0.145 C 
ATOM      6  C   UNL     1     -32.230  27.974   6.120  0.00  0.00    +0.173 C 
ATOM      7  C   UNL     1     -31.878  29.284   6.375  0.00  0.00    +0.189 C 
ATOM      8  C   UNL     1     -32.788  29.965   4.406  0.00  0.00    +0.197 C 
ATOM      9  H   UNL     1     -30.940  30.506   7.788  0.00  0.00    +0.144 HD
ATOM     10  H   UNL     1     -30.991  28.857   8.220  0.00  0.00    +0.144 HD
ATOM     11  H   UNL     1     -33.552  30.816   2.662  0.00  0.00    +0.156 HD
ATOM     12  H   UNL     1     -32.816  31.934   3.719  0.00  0.00    +0.156 HD
ENDROOT
BRANCH   6  13
ATOM     13  N   UNL     1     -31.938  26.934   7.017  0.00  0.00    -0.310 NA
ATOM     14  H   UNL     1     -32.561  26.178   7.114  0.00  0.00    +0.120 HD
ATOM     15  H   UNL     1     -31.110  26.960   7.549  0.00  0.00    +0.120 HD
ENDBRANCH   6  13
BRANCH   5  16
ATOM     16  C   UNL     1     -33.315  26.419   4.529  0.00  0.00    +0.030 C 
ATOM     17  C   UNL     1     -34.300  25.706   5.125  0.00  0.00    +0.002 C 
BRANCH  17  18
ATOM     18  C   UNL     1     -34.741  24.381   4.716  0.00  0.00    +0.000 C 
ATOM     19  C   UNL     1     -35.001  23.404   5.677  0.00  0.00    +0.000 C 
ATOM     20  C   UNL     1     -34.903  24.088   3.362  0.00  0.00    +0.000 C 
ATOM     21  C   UNL     1     -35.424  22.135   5.285  0.00  0.00    +0.000 C 
ATOM     22  C   UNL     1     -35.326  22.818   2.969  0.00  0.00    +0.000 C 
ATOM     23  C   UNL     1     -35.587  21.842   3.931  0.00  0.00    +0.000 C 
ENDBRANCH  17  18
ENDBRANCH   5  16
TORSDOF 3
ENDMDL
MODEL 7
REMARK VINA RESULT:      -5.8      4.294      6.592
REMARK  Name = 5990390
REMARK  3 active torsions:
REMARK  status: ('A' for Active; 'I' for Inactive)
REMARK    1  A    between atoms: C_5  and  C_16
REMARK    2  A    between atoms: C_6  and  N_13
REMARK    3  A    between atoms: C_17  and  C_18
REMARK                            x       y       z     vdW  Elec       q    Type
REMARK                         _______ _______ _______ _____ _____    ______ ____
ROOT
ATOM      1  N   UNL     1     -36.155  23.292   3.836  0.00  0.00    -0.331 NA
ATOM      2  N   UNL     1     -38.173  22.680   2.670  0.00  0.00    -0.316 NA
ATOM      3  N   UNL     1     -39.873  24.284   2.293  0.00  0.00    -0.334 N 
ATOM      4  N   UNL     1     -36.477  21.104   3.053  0.00  0.00    -0.283 N 
ATOM      5  C   UNL     1     -36.656  24.533   3.945  0.00  0.00    +0.145 C 
ATOM      6  C   UNL     1     -37.875  24.934   3.461  0.00  0.00    +0.173 C 
ATOM      7  C   UNL     1     -38.602  23.949   2.822  0.00  0.00    +0.189 C 
ATOM      8  C   UNL     1     -36.959  22.423   3.193  0.00  0.00    +0.197 C 
ATOM      9  H   UNL     1     -40.411  23.600   1.834  0.00  0.00    +0.144 HD
ATOM     10  H   UNL     1     -40.219  25.202   2.385  0.00  0.00    +0.144 HD
ATOM     11  H   UNL     1     -35.595  20.861   3.416  0.00  0.00    +0.156 HD
ATOM     12  H   UNL     1     -37.022  20.427   2.591  0.00  0.00    +0.156 HD
ENDROOT
BRANCH   6  13
ATOM     13  N   UNL     1     -38.354  26.246   3.600  0.00  0.00    -0.310 NA
ATOM     14  H   UNL     1     -38.137  26.924   2.920  0.00  0.00    +0.120 HD
ATOM     15  H   UNL     1     -38.907  26.488   4.378  0.00  0.00    +0.120 HD
ENDBRANCH   6  13
BRANCH   5  16
ATOM     16  C   UNL     1     -35.772  25.479   4.648  0.00  0.00    +0.030 C 
ATOM     17  C   UNL     1     -34.454  25.655   4.392  0.00  0.00    +0.002 C 
BRANCH  17  18
ATOM     18  C   UNL     1     -33.586  26.602   5.074  0.00  0.00    +0.000 C 
ATOM     19  C   UNL     1     -32.949  27.610   4.350  0.00  0.00    +0.000 C 
ATOM     20  C   UNL     1     -33.390  26.501   6.451  0.00  0.00    +0.000 C 
ATOM     21  C   UNL     1     -32.117  28.518   5.005  0.00  0.00    +0.000 C 
ATOM     22  C   UNL     1     -32.558  27.409   7.105  0.00  0.00    +0.000 C 
ATOM     23  C   UNL     1     -31.921  28.418   6.382  0.00  0.00    +0.000 C 
ENDBRANCH  17  18
ENDBRANCH   5  16
TORSDOF 3
ENDMDL
MODEL 8
REMARK VINA RESULT:      -5.8      1.570      2.347
REMARK  Name = 5990390
REMARK  3 active torsions:
REMARK  status: ('A' for Active; 'I' for Inactive)
REMARK    1  A    between atoms: C_5  and  C_16
REMARK    2  A    between atoms: C_6  and  N_13
REMARK    3  A    between atoms: C_17  and  C_18
REMARK                            x       y       z     vdW  Elec       q    Type
REMARK                         _______ _______ _______ _____ _____    ______ ____
ROOT
ATOM      1  N   UNL     1     -36.673  23.146   0.623  0.00  0.00    -0.331 NA
ATOM      2  N   UNL     1     -38.157  24.687   1.734  0.00  0.00    -0.316 NA
ATOM      3  N   UNL     1     -38.328  24.694   4.095  0.00  0.00    -0.334 N 
ATOM      4  N   UNL     1     -37.973  24.663  -0.606  0.00  0.00    -0.283 N 
ATOM      5  C   UNL     1     -36.333  22.681   1.836  0.00  0.00    +0.145 C 
ATOM      6  C   UNL     1     -36.837  23.142   3.025  0.00  0.00    +0.173 C 
ATOM      7  C   UNL     1     -37.760  24.162   2.911  0.00  0.00    +0.189 C 
ATOM      8  C   UNL     1     -37.582  24.140   0.645  0.00  0.00    +0.197 C 
ATOM      9  H   UNL     1     -38.989  25.421   4.040  0.00  0.00    +0.144 HD
ATOM     10  H   UNL     1     -38.063  24.336   4.974  0.00  0.00    +0.144 HD
ATOM     11  H   UNL     1     -37.584  24.302  -1.434  0.00  0.00    +0.156 HD
ATOM     12  H   UNL     1     -38.634  25.392  -0.649  0.00  0.00    +0.156 HD
ENDROOT
BRANCH   6  13
ATOM     13  N   UNL     1     -36.448  22.621   4.269  0.00  0.00    -0.310 NA
ATOM     14  H   UNL     1     -36.433  23.202   5.064  0.00  0.00    +0.120 HD
ATOM     15  H   UNL     1     -36.190  21.674   4.348  0.00  0.00    +0.120 HD
ENDBRANCH   6  13
BRANCH   5  16
ATOM     16  C   UNL     1     -35.338  21.594   1.806  0.00  0.00    +0.030 C 
ATOM     17  C   UNL     1     -34.424  21.400   0.826  0.00  0.00    +0.002 C 
BRANCH  17  18
ATOM     18  C   UNL     1     -33.429  20.338   0.805  0.00  0.00    +0.000 C 
ATOM     19  C   UNL     1     -32.236  20.514   0.106  0.00  0.00    +0.000 C 
ATOM     20  C   UNL     1     -33.671  19.144   1.485  0.00  0.00    +0.000 C 
ATOM     21  C   UNL     1     -31.283  19.496   0.087  0.00  0.00    +0.000 C 
ATOM     22  C   UNL     1     -32.717  18.126   1.466  0.00  0.00    +0.000 C 
ATOM     23  C   UNL     1     -31.523  18.302   0.766  0.00  0.00    +0.000 C 
ENDBRANCH  17  18
ENDBRANCH   5  16
TORSDOF 3
ENDMDL
MODEL 9
REMARK VINA RESULT:      -5.7      1.945      2.637
REMARK  Name = 5990390
REMARK  3 active torsions:
REMARK  status: ('A' for Active; 'I' for Inactive)
REMARK    1  A    between atoms: C_5  and  C_16
REMARK    2  A    between atoms: C_6  and  N_13
REMARK    3  A    between atoms: C_17  and  C_18
REMARK                            x       y       z     vdW  Elec       q    Type
REMARK                         _______ _______ _______ _____ _____    ______ ____
ROOT
ATOM      1  N   UNL     1     -35.105  20.992   4.238  0.00  0.00    -0.331 NA
ATOM      2  N   UNL     1     -36.263  22.973   4.976  0.00  0.00    -0.316 NA
ATOM      3  N   UNL     1     -37.651  24.175   3.482  0.00  0.00    -0.334 N 
ATOM      4  N   UNL     1     -34.882  21.767   6.441  0.00  0.00    -0.283 N 
ATOM      5  C   UNL     1     -35.664  21.178   3.031  0.00  0.00    +0.145 C 
ATOM      6  C   UNL     1     -36.513  22.205   2.707  0.00  0.00    +0.173 C 
ATOM      7  C   UNL     1     -36.782  23.086   3.736  0.00  0.00    +0.189 C 
ATOM      8  C   UNL     1     -35.445  21.918   5.155  0.00  0.00    +0.197 C 
ATOM      9  H   UNL     1     -37.859  24.817   4.199  0.00  0.00    +0.144 HD
ATOM     10  H   UNL     1     -38.049  24.291   2.588  0.00  0.00    +0.144 HD
ATOM     11  H   UNL     1     -34.277  21.013   6.628  0.00  0.00    +0.156 HD
ATOM     12  H   UNL     1     -35.097  22.414   7.151  0.00  0.00    +0.156 HD
ENDROOT
BRANCH   6  13
ATOM     13  N   UNL     1     -37.072  22.356   1.429  0.00  0.00    -0.310 NA
ATOM     14  H   UNL     1     -36.487  22.489   0.648  0.00  0.00    +0.120 HD
ATOM     15  H   UNL     1     -38.049  22.330   1.312  0.00  0.00    +0.120 HD
ENDBRANCH   6  13
BRANCH   5  16
ATOM     16  C   UNL     1     -35.289  20.163   2.031  0.00  0.00    +0.030 C 
ATOM     17  C   UNL     1     -34.049  19.640   1.876  0.00  0.00    +0.002 C 
BRANCH  17  18
ATOM     18  C   UNL     1     -33.683  18.623   0.902  0.00  0.00    +0.000 C 
ATOM     19  C   UNL     1     -32.513  17.883   1.072  0.00  0.00    +0.000 C 
ATOM     20  C   UNL     1     -34.503  18.390  -0.203  0.00  0.00    +0.000 C 
ATOM     21  C   UNL     1     -32.163  16.909   0.138  0.00  0.00    +0.000 C 
ATOM     22  C   UNL     1     -34.153  17.416  -1.137  0.00  0.00    +0.000 C 
ATOM     23  C   UNL     1     -32.982  16.675  -0.966  0.00  0.00    +0.000 C 
ENDBRANCH  17  18
ENDBRANCH   5  16
TORSDOF 3
ENDMDL
