MODEL 1
REMARK VINA RESULT:      -6.8      0.000      0.000
REMARK  Name = 54887
REMARK  7 active torsions:
REMARK  status: ('A' for Active; 'I' for Inactive)
REMARK    1  A    between atoms: C_6  and  C_22
REMARK    2  A    between atoms: C_13  and  O_19
REMARK    3  A    between atoms: O_19  and  C_20
REMARK    4  A    between atoms: C_22  and  N_23
REMARK    5  A    between atoms: N_23  and  C_26
REMARK    6  A    between atoms: C_26  and  C_27
REMARK    7  A    between atoms: C_32  and  O_33
REMARK                            x       y       z     vdW  Elec       q    Type
REMARK                         _______ _______ _______ _____ _____    ______ ____
ROOT
ATOM      1  O   UNL     1     -41.898  28.754   4.475  0.00  0.00    -0.226 OA
ATOM      2  N   UNL     1     -41.051  23.366   0.654  0.00  0.00    -0.325 N 
ATOM      3  N   UNL     1     -38.622  23.673   2.074  0.00  0.00    -0.406 NA
ATOM      4  N   UNL     1     -40.557  26.535   3.354  0.00  0.00    -0.370 NA
ATOM      5  N   UNL     1     -42.764  27.247   2.903  0.00  0.00    -0.225 N 
ATOM      6  C   UNL     1     -38.723  22.754   1.164  0.00  0.00    +0.085 C 
ATOM      7  C   UNL     1     -39.891  22.625   0.210  0.00  0.00    +0.140 C 
ATOM      8  C   UNL     1     -40.890  24.420   1.536  0.00  0.00    +0.083 C 
ATOM      9  C   UNL     1     -39.685  24.574   2.227  0.00  0.00    +0.187 C 
ATOM     10  C   UNL     1     -41.929  25.319   1.780  0.00  0.00    +0.065 C 
ATOM     11  C   UNL     1     -39.575  25.640   3.112  0.00  0.00    +0.210 C 
ATOM     12  C   UNL     1     -41.712  26.349   2.683  0.00  0.00    +0.191 C 
ATOM     13  C   UNL     1     -42.797  28.349   3.749  0.00  0.00    +0.407 C 
ATOM     14  H   UNL     1     -41.948  23.121   0.331  0.00  0.00    +0.147 HD
ATOM     15  H   UNL     1     -43.588  27.076   2.391  0.00  0.00    +0.161 HD
ATOM     16  N   UNL     1     -38.349  25.806   3.808  0.00  0.00    -0.331 N 
ATOM     17  H   UNL     1     -38.241  26.551   4.442  0.00  0.00    +0.145 HD
ATOM     18  H   UNL     1     -37.608  25.177   3.657  0.00  0.00    +0.145 HD
ENDROOT
BRANCH  13  19
ATOM     19  O   UNL     1     -44.023  28.950   3.657  0.00  0.00    -0.434 OA
BRANCH  19  20
ATOM     20  C   UNL     1     -44.692  29.208   4.897  0.00  0.00    +0.210 C 
ATOM     21  C   UNL     1     -45.253  27.910   5.435  0.00  0.00    +0.051 C 
ENDBRANCH  19  20
ENDBRANCH  13  19
BRANCH   6  22
ATOM     22  C   UNL     1     -37.586  21.782   0.994  0.00  0.00    -0.023 C 
BRANCH  22  23
ATOM     23  N   UNL     1     -37.321  21.232   2.305  0.00  0.00    +0.391 N 
ATOM     24  H   UNL     1     -37.667  20.272   2.339  0.00  0.00    -0.083 HD
ATOM     25  H   UNL     1     -37.796  21.810   2.999  0.00  0.00    -0.083 HD
BRANCH  23  26
ATOM     26  C   UNL     1     -35.892  21.233   2.604  0.00  0.00    -0.054 C 
BRANCH  26  27
ATOM     27  C   UNL     1     -35.504  22.387   3.488  0.00  0.00    -0.044 C 
ATOM     28  C   UNL     1     -35.083  23.578   2.911  0.00  0.00    -0.003 C 
ATOM     29  C   UNL     1     -35.573  22.245   4.866  0.00  0.00    -0.003 C 
ATOM     30  C   UNL     1     -34.725  24.648   3.732  0.00  0.00    +0.037 C 
ATOM     31  C   UNL     1     -35.214  23.315   5.686  0.00  0.00    +0.037 C 
ATOM     32  C   UNL     1     -34.791  24.517   5.119  0.00  0.00    +0.139 C 
BRANCH  32  33
ATOM     33  O   UNL     1     -34.440  25.560   5.919  0.00  0.00    -0.471 OA
ATOM     34  C   UNL     1     -33.620  26.575   5.341  0.00  0.00    +0.252 C 
ENDBRANCH  32  33
ENDBRANCH  26  27
ENDBRANCH  23  26
ENDBRANCH  22  23
ENDBRANCH   6  22
TORSDOF 7
ENDMDL
MODEL 2
REMARK VINA RESULT:      -6.8      4.523      6.913
REMARK  Name = 54887
REMARK  7 active torsions:
REMARK  status: ('A' for Active; 'I' for Inactive)
REMARK    1  A    between atoms: C_6  and  C_22
REMARK    2  A    between atoms: C_13  and  O_19
REMARK    3  A    between atoms: O_19  and  C_20
REMARK    4  A    between atoms: C_22  and  N_23
REMARK    5  A    between atoms: N_23  and  C_26
REMARK    6  A    between atoms: C_26  and  C_27
REMARK    7  A    between atoms: C_32  and  O_33
REMARK                            x       y       z     vdW  Elec       q    Type
REMARK                         _______ _______ _______ _____ _____    ______ ____
ROOT
ATOM      1  O   UNL     1     -32.761  26.613   6.402  0.00  0.00    -0.226 OA
ATOM      2  N   UNL     1     -37.415  25.703   1.726  0.00  0.00    -0.325 N 
ATOM      3  N   UNL     1     -37.666  23.496   3.479  0.00  0.00    -0.406 NA
ATOM      4  N   UNL     1     -34.879  25.329   5.044  0.00  0.00    -0.370 NA
ATOM      5  N   UNL     1     -33.839  27.369   4.463  0.00  0.00    -0.225 N 
ATOM      6  C   UNL     1     -38.382  23.544   2.398  0.00  0.00    +0.085 C 
ATOM      7  C   UNL     1     -38.194  24.563   1.296  0.00  0.00    +0.140 C 
ATOM      8  C   UNL     1     -36.568  25.580   2.813  0.00  0.00    +0.083 C 
ATOM      9  C   UNL     1     -36.688  24.482   3.670  0.00  0.00    +0.187 C 
ATOM     10  C   UNL     1     -35.613  26.557   3.096  0.00  0.00    +0.065 C 
ATOM     11  C   UNL     1     -35.824  24.408   4.756  0.00  0.00    +0.210 C 
ATOM     12  C   UNL     1     -34.799  26.384   4.206  0.00  0.00    +0.191 C 
ATOM     13  C   UNL     1     -32.915  27.427   5.500  0.00  0.00    +0.407 C 
ATOM     14  H   UNL     1     -37.488  26.561   1.248  0.00  0.00    +0.147 HD
ATOM     15  H   UNL     1     -33.814  28.121   3.826  0.00  0.00    +0.161 HD
ATOM     16  N   UNL     1     -35.936  23.290   5.623  0.00  0.00    -0.331 N 
ATOM     17  H   UNL     1     -35.338  23.210   6.401  0.00  0.00    +0.145 HD
ATOM     18  H   UNL     1     -36.610  22.595   5.446  0.00  0.00    +0.145 HD
ENDROOT
BRANCH  13  19
ATOM     19  O   UNL     1     -32.167  28.566   5.372  0.00  0.00    -0.434 OA
BRANCH  19  20
ATOM     20  C   UNL     1     -31.853  29.252   6.590  0.00  0.00    +0.210 C 
ATOM     21  C   UNL     1     -31.877  30.744   6.336  0.00  0.00    +0.051 C 
ENDBRANCH  19  20
ENDBRANCH  13  19
BRANCH   6  22
ATOM     22  C   UNL     1     -39.434  22.488   2.186  0.00  0.00    -0.023 C 
BRANCH  22  23
ATOM     23  N   UNL     1     -38.744  21.216   2.208  0.00  0.00    +0.391 N 
ATOM     24  H   UNL     1     -39.389  20.492   2.523  0.00  0.00    -0.083 HD
ATOM     25  H   UNL     1     -37.949  21.293   2.843  0.00  0.00    -0.083 HD
BRANCH  23  26
ATOM     26  C   UNL     1     -38.243  20.861   0.882  0.00  0.00    -0.054 C 
BRANCH  26  27
ATOM     27  C   UNL     1     -36.787  20.482   0.916  0.00  0.00    -0.044 C 
ATOM     28  C   UNL     1     -36.114  20.464   2.130  0.00  0.00    -0.003 C 
ATOM     29  C   UNL     1     -36.138  20.156  -0.266  0.00  0.00    -0.003 C 
ATOM     30  C   UNL     1     -34.765  20.112   2.161  0.00  0.00    +0.037 C 
ATOM     31  C   UNL     1     -34.788  19.805  -0.234  0.00  0.00    +0.037 C 
ATOM     32  C   UNL     1     -34.101  19.782   0.979  0.00  0.00    +0.139 C 
BRANCH  32  33
ATOM     33  O   UNL     1     -32.785  19.440   1.009  0.00  0.00    -0.471 OA
ATOM     34  C   UNL     1     -32.471  18.093   1.361  0.00  0.00    +0.252 C 
ENDBRANCH  32  33
ENDBRANCH  26  27
ENDBRANCH  23  26
ENDBRANCH  22  23
ENDBRANCH   6  22
TORSDOF 7
ENDMDL
MODEL 3
REMARK VINA RESULT:      -6.7      5.069      7.485
REMARK  Name = 54887
REMARK  7 active torsions:
REMARK  status: ('A' for Active; 'I' for Inactive)
REMARK    1  A    between atoms: C_6  and  C_22
REMARK    2  A    between atoms: C_13  and  O_19
REMARK    3  A    between atoms: O_19  and  C_20
REMARK    4  A    between atoms: C_22  and  N_23
REMARK    5  A    between atoms: N_23  and  C_26
REMARK    6  A    between atoms: C_26  and  C_27
REMARK    7  A    between atoms: C_32  and  O_33
REMARK                            x       y       z     vdW  Elec       q    Type
REMARK                         _______ _______ _______ _____ _____    ______ ____
ROOT
ATOM      1  O   UNL     1     -32.678  26.602   7.165  0.00  0.00    -0.226 OA
ATOM      2  N   UNL     1     -36.525  25.170   1.920  0.00  0.00    -0.325 N 
ATOM      3  N   UNL     1     -36.762  22.950   3.659  0.00  0.00    -0.406 NA
ATOM      4  N   UNL     1     -34.435  25.087   5.555  0.00  0.00    -0.370 NA
ATOM      5  N   UNL     1     -33.561  27.231   5.086  0.00  0.00    -0.225 N 
ATOM      6  C   UNL     1     -37.327  22.916   2.491  0.00  0.00    +0.085 C 
ATOM      7  C   UNL     1     -37.106  23.950   1.408  0.00  0.00    +0.140 C 
ATOM      8  C   UNL     1     -35.825  25.144   3.113  0.00  0.00    +0.083 C 
ATOM      9  C   UNL     1     -35.936  24.041   3.964  0.00  0.00    +0.187 C 
ATOM     10  C   UNL     1     -35.031  26.223   3.507  0.00  0.00    +0.065 C 
ATOM     11  C   UNL     1     -35.225  24.065   5.158  0.00  0.00    +0.210 C 
ATOM     12  C   UNL     1     -34.362  26.143   4.718  0.00  0.00    +0.191 C 
ATOM     13  C   UNL     1     -32.799  27.393   6.237  0.00  0.00    +0.407 C 
ATOM     14  H   UNL     1     -36.628  26.014   1.424  0.00  0.00    +0.147 HD
ATOM     15  H   UNL     1     -33.534  27.980   4.447  0.00  0.00    +0.161 HD
ATOM     16  N   UNL     1     -35.327  22.942   6.019  0.00  0.00    -0.331 N 
ATOM     17  H   UNL     1     -34.835  22.930   6.872  0.00  0.00    +0.145 HD
ATOM     18  H   UNL     1     -35.889  22.175   5.764  0.00  0.00    +0.145 HD
ENDROOT
BRANCH  13  19
ATOM     19  O   UNL     1     -32.172  28.609   6.193  0.00  0.00    -0.434 OA
BRANCH  19  20
ATOM     20  C   UNL     1     -32.154  29.262   4.919  0.00  0.00    +0.210 C 
ATOM     21  C   UNL     1     -31.801  30.721   5.117  0.00  0.00    +0.051 C 
ENDBRANCH  19  20
ENDBRANCH  13  19
BRANCH   6  22
ATOM     22  C   UNL     1     -38.216  21.748   2.156  0.00  0.00    -0.023 C 
BRANCH  22  23
ATOM     23  N   UNL     1     -37.362  20.580   2.135  0.00  0.00    +0.391 N 
ATOM     24  H   UNL     1     -37.888  19.777   2.480  0.00  0.00    -0.083 HD
ATOM     25  H   UNL     1     -36.553  20.763   2.729  0.00  0.00    -0.083 HD
BRANCH  23  26
ATOM     26  C   UNL     1     -36.887  20.293   0.784  0.00  0.00    -0.054 C 
BRANCH  26  27
ATOM     27  C   UNL     1     -35.641  19.450   0.795  0.00  0.00    -0.044 C 
ATOM     28  C   UNL     1     -35.583  18.306   0.011  0.00  0.00    -0.003 C 
ATOM     29  C   UNL     1     -34.567  19.828   1.588  0.00  0.00    -0.003 C 
ATOM     30  C   UNL     1     -34.427  17.525   0.022  0.00  0.00    +0.037 C 
ATOM     31  C   UNL     1     -33.412  19.047   1.598  0.00  0.00    +0.037 C 
ATOM     32  C   UNL     1     -33.341  17.896   0.815  0.00  0.00    +0.139 C 
BRANCH  32  33
ATOM     33  O   UNL     1     -32.214  17.134   0.826  0.00  0.00    -0.471 OA
ATOM     34  C   UNL     1     -32.047  16.204  -0.244  0.00  0.00    +0.252 C 
ENDBRANCH  32  33
ENDBRANCH  26  27
ENDBRANCH  23  26
ENDBRANCH  22  23
ENDBRANCH   6  22
TORSDOF 7
ENDMDL
MODEL 4
REMARK VINA RESULT:      -6.6      5.987      8.175
REMARK  Name = 54887
REMARK  7 active torsions:
REMARK  status: ('A' for Active; 'I' for Inactive)
REMARK    1  A    between atoms: C_6  and  C_22
REMARK    2  A    between atoms: C_13  and  O_19
REMARK    3  A    between atoms: O_19  and  C_20
REMARK    4  A    between atoms: C_22  and  N_23
REMARK    5  A    between atoms: N_23  and  C_26
REMARK    6  A    between atoms: C_26  and  C_27
REMARK    7  A    between atoms: C_32  and  O_33
REMARK                            x       y       z     vdW  Elec       q    Type
REMARK                         _______ _______ _______ _____ _____    ______ ____
ROOT
ATOM      1  O   UNL     1     -32.031  29.273   3.528  0.00  0.00    -0.226 OA
ATOM      2  N   UNL     1     -35.173  23.789   5.629  0.00  0.00    -0.325 N 
ATOM      3  N   UNL     1     -34.911  23.483   2.827  0.00  0.00    -0.406 NA
ATOM      4  N   UNL     1     -33.318  26.767   3.331  0.00  0.00    -0.370 NA
ATOM      5  N   UNL     1     -32.918  28.015   5.296  0.00  0.00    -0.225 N 
ATOM      6  C   UNL     1     -35.582  22.607   3.510  0.00  0.00    +0.085 C 
ATOM      7  C   UNL     1     -35.955  22.768   4.968  0.00  0.00    +0.140 C 
ATOM      8  C   UNL     1     -34.569  24.780   4.875  0.00  0.00    +0.083 C 
ATOM      9  C   UNL     1     -34.452  24.630   3.490  0.00  0.00    +0.187 C 
ATOM     10  C   UNL     1     -34.036  25.920   5.478  0.00  0.00    +0.065 C 
ATOM     11  C   UNL     1     -33.826  25.645   2.776  0.00  0.00    +0.210 C 
ATOM     12  C   UNL     1     -33.434  26.874   4.671  0.00  0.00    +0.191 C 
ATOM     13  C   UNL     1     -32.274  29.102   4.716  0.00  0.00    +0.407 C 
ATOM     14  H   UNL     1     -35.071  23.779   6.607  0.00  0.00    +0.147 HD
ATOM     15  H   UNL     1     -33.025  28.054   6.275  0.00  0.00    +0.161 HD
ATOM     16  N   UNL     1     -33.714  25.501   1.369  0.00  0.00    -0.331 N 
ATOM     17  H   UNL     1     -33.276  26.203   0.836  0.00  0.00    +0.145 HD
ATOM     18  H   UNL     1     -34.075  24.700   0.925  0.00  0.00    +0.145 HD
ENDROOT
BRANCH  13  19
ATOM     19  O   UNL     1     -31.933  29.997   5.694  0.00  0.00    -0.434 OA
BRANCH  19  20
ATOM     20  C   UNL     1     -31.346  29.442   6.877  0.00  0.00    +0.210 C 
ATOM     21  C   UNL     1     -29.847  29.353   6.689  0.00  0.00    +0.051 C 
ENDBRANCH  19  20
ENDBRANCH  13  19
BRANCH   6  22
ATOM     22  C   UNL     1     -36.078  21.372   2.806  0.00  0.00    -0.023 C 
BRANCH  22  23
ATOM     23  N   UNL     1     -34.928  20.511   2.634  0.00  0.00    +0.391 N 
ATOM     24  H   UNL     1     -35.040  19.685   3.222  0.00  0.00    -0.083 HD
ATOM     25  H   UNL     1     -34.093  21.033   2.900  0.00  0.00    -0.083 HD
BRANCH  23  26
ATOM     26  C   UNL     1     -34.784  20.089   1.243  0.00  0.00    -0.054 C 
BRANCH  26  27
ATOM     27  C   UNL     1     -33.385  19.624   0.941  0.00  0.00    -0.044 C 
ATOM     28  C   UNL     1     -32.549  20.428   0.178  0.00  0.00    -0.003 C 
ATOM     29  C   UNL     1     -32.951  18.400   1.428  0.00  0.00    -0.003 C 
ATOM     30  C   UNL     1     -31.252  19.997  -0.102  0.00  0.00    +0.037 C 
ATOM     31  C   UNL     1     -31.654  17.970   1.147  0.00  0.00    +0.037 C 
ATOM     32  C   UNL     1     -30.804  18.768   0.383  0.00  0.00    +0.139 C 
BRANCH  32  33
ATOM     33  O   UNL     1     -29.540  18.348   0.109  0.00  0.00    -0.471 OA
ATOM     34  C   UNL     1     -29.068  17.201   0.816  0.00  0.00    +0.252 C 
ENDBRANCH  32  33
ENDBRANCH  26  27
ENDBRANCH  23  26
ENDBRANCH  22  23
ENDBRANCH   6  22
TORSDOF 7
ENDMDL
MODEL 5
REMARK VINA RESULT:      -6.4      2.798      9.169
REMARK  Name = 54887
REMARK  7 active torsions:
REMARK  status: ('A' for Active; 'I' for Inactive)
REMARK    1  A    between atoms: C_6  and  C_22
REMARK    2  A    between atoms: C_13  and  O_19
REMARK    3  A    between atoms: O_19  and  C_20
REMARK    4  A    between atoms: C_22  and  N_23
REMARK    5  A    between atoms: N_23  and  C_26
REMARK    6  A    between atoms: C_26  and  C_27
REMARK    7  A    between atoms: C_32  and  O_33
REMARK                            x       y       z     vdW  Elec       q    Type
REMARK                         _______ _______ _______ _____ _____    ______ ____
ROOT
ATOM      1  O   UNL     1     -35.129  22.317   3.984  0.00  0.00    -0.226 OA
ATOM      2  N   UNL     1     -41.002  23.895   1.267  0.00  0.00    -0.325 N 
ATOM      3  N   UNL     1     -40.163  26.216   2.651  0.00  0.00    -0.406 NA
ATOM      4  N   UNL     1     -37.371  23.920   3.364  0.00  0.00    -0.370 NA
ATOM      5  N   UNL     1     -36.969  21.698   2.670  0.00  0.00    -0.225 N 
ATOM      6  C   UNL     1     -41.336  26.186   2.098  0.00  0.00    +0.085 C 
ATOM      7  C   UNL     1     -41.968  24.943   1.509  0.00  0.00    +0.140 C 
ATOM      8  C   UNL     1     -39.808  23.893   1.966  0.00  0.00    +0.083 C 
ATOM      9  C   UNL     1     -39.403  25.038   2.658  0.00  0.00    +0.187 C 
ATOM     10  C   UNL     1     -38.973  22.774   1.964  0.00  0.00    +0.065 C 
ATOM     11  C   UNL     1     -38.189  24.995   3.334  0.00  0.00    +0.210 C 
ATOM     12  C   UNL     1     -37.784  22.837   2.675  0.00  0.00    +0.191 C 
ATOM     13  C   UNL     1     -35.742  21.510   3.296  0.00  0.00    +0.407 C 
ATOM     14  H   UNL     1     -41.193  23.187   0.611  0.00  0.00    +0.147 HD
ATOM     15  H   UNL     1     -37.309  20.930   2.156  0.00  0.00    +0.161 HD
ATOM     16  N   UNL     1     -37.778  26.152   4.046  0.00  0.00    -0.331 N 
ATOM     17  H   UNL     1     -36.924  26.151   4.534  0.00  0.00    +0.145 HD
ATOM     18  H   UNL     1     -38.348  26.954   4.051  0.00  0.00    +0.145 HD
ENDROOT
BRANCH  13  19
ATOM     19  O   UNL     1     -35.291  20.246   3.029  0.00  0.00    -0.434 OA
BRANCH  19  20
ATOM     20  C   UNL     1     -35.032  19.947   1.653  0.00  0.00    +0.210 C 
ATOM     21  C   UNL     1     -33.711  19.216   1.546  0.00  0.00    +0.051 C 
ENDBRANCH  19  20
ENDBRANCH  13  19
BRANCH   6  22
ATOM     22  C   UNL     1     -42.159  27.447   2.088  0.00  0.00    -0.023 C 
BRANCH  22  23
ATOM     23  N   UNL     1     -43.511  27.053   2.418  0.00  0.00    +0.391 N 
ATOM     24  H   UNL     1     -43.658  26.087   2.124  0.00  0.00    -0.083 HD
ATOM     25  H   UNL     1     -44.156  27.679   1.934  0.00  0.00    -0.083 HD
BRANCH  23  26
ATOM     26  C   UNL     1     -43.759  27.155   3.853  0.00  0.00    -0.054 C 
BRANCH  26  27
ATOM     27  C   UNL     1     -45.012  26.427   4.259  0.00  0.00    -0.044 C 
ATOM     28  C   UNL     1     -45.614  25.552   3.365  0.00  0.00    -0.003 C 
ATOM     29  C   UNL     1     -45.548  26.641   5.521  0.00  0.00    -0.003 C 
ATOM     30  C   UNL     1     -46.775  24.877   3.743  0.00  0.00    +0.037 C 
ATOM     31  C   UNL     1     -46.709  25.966   5.897  0.00  0.00    +0.037 C 
ATOM     32  C   UNL     1     -47.323  25.083   5.009  0.00  0.00    +0.139 C 
BRANCH  32  33
ATOM     33  O   UNL     1     -48.456  24.426   5.376  0.00  0.00    -0.471 OA
ATOM     34  C   UNL     1     -48.296  23.143   5.980  0.00  0.00    +0.252 C 
ENDBRANCH  32  33
ENDBRANCH  26  27
ENDBRANCH  23  26
ENDBRANCH  22  23
ENDBRANCH   6  22
TORSDOF 7
ENDMDL
MODEL 6
REMARK VINA RESULT:      -6.3      5.422      8.271
REMARK  Name = 54887
REMARK  7 active torsions:
REMARK  status: ('A' for Active; 'I' for Inactive)
REMARK    1  A    between atoms: C_6  and  C_22
REMARK    2  A    between atoms: C_13  and  O_19
REMARK    3  A    between atoms: O_19  and  C_20
REMARK    4  A    between atoms: C_22  and  N_23
REMARK    5  A    between atoms: N_23  and  C_26
REMARK    6  A    between atoms: C_26  and  C_27
REMARK    7  A    between atoms: C_32  and  O_33
REMARK                            x       y       z     vdW  Elec       q    Type
REMARK                         _______ _______ _______ _____ _____    ______ ____
ROOT
ATOM      1  O   UNL     1     -36.095  21.997   4.899  0.00  0.00    -0.226 OA
ATOM      2  N   UNL     1     -34.136  27.029   1.001  0.00  0.00    -0.325 N 
ATOM      3  N   UNL     1     -35.260  28.246   3.296  0.00  0.00    -0.406 NA
ATOM      4  N   UNL     1     -35.705  24.677   4.098  0.00  0.00    -0.370 NA
ATOM      5  N   UNL     1     -35.085  22.729   2.914  0.00  0.00    -0.225 N 
ATOM      6  C   UNL     1     -34.877  28.983   2.299  0.00  0.00    +0.085 C 
ATOM      7  C   UNL     1     -34.450  28.440   0.953  0.00  0.00    +0.140 C 
ATOM      8  C   UNL     1     -34.661  26.248   2.014  0.00  0.00    +0.083 C 
ATOM      9  C   UNL     1     -35.226  26.853   3.141  0.00  0.00    +0.187 C 
ATOM     10  C   UNL     1     -34.606  24.854   1.952  0.00  0.00    +0.065 C 
ATOM     11  C   UNL     1     -35.728  26.027   4.140  0.00  0.00    +0.210 C 
ATOM     12  C   UNL     1     -35.140  24.125   3.004  0.00  0.00    +0.191 C 
ATOM     13  C   UNL     1     -35.545  21.785   3.825  0.00  0.00    +0.407 C 
ATOM     14  H   UNL     1     -33.552  26.629   0.318  0.00  0.00    +0.147 HD
ATOM     15  H   UNL     1     -34.666  22.367   2.099  0.00  0.00    +0.161 HD
ATOM     16  N   UNL     1     -36.311  26.637   5.281  0.00  0.00    -0.331 N 
ATOM     17  H   UNL     1     -36.676  26.079   6.005  0.00  0.00    +0.145 HD
ATOM     18  H   UNL     1     -36.352  27.619   5.348  0.00  0.00    +0.145 HD
ENDROOT
BRANCH  13  19
ATOM     19  O   UNL     1     -35.289  20.531   3.341  0.00  0.00    -0.434 OA
BRANCH  19  20
ATOM     20  C   UNL     1     -35.152  20.421   1.920  0.00  0.00    +0.210 C 
ATOM     21  C   UNL     1     -33.993  19.499   1.605  0.00  0.00    +0.051 C 
ENDBRANCH  19  20
ENDBRANCH  13  19
BRANCH   6  22
ATOM     22  C   UNL     1     -34.911  30.480   2.458  0.00  0.00    -0.023 C 
BRANCH  22  23
ATOM     23  N   UNL     1     -34.391  30.761   3.778  0.00  0.00    +0.391 N 
ATOM     24  H   UNL     1     -34.422  29.908   4.337  0.00  0.00    -0.083 HD
ATOM     25  H   UNL     1     -34.965  31.491   4.201  0.00  0.00    -0.083 HD
BRANCH  23  26
ATOM     26  C   UNL     1     -33.011  31.238   3.716  0.00  0.00    -0.054 C 
BRANCH  26  27
ATOM     27  C   UNL     1     -32.060  30.293   4.400  0.00  0.00    -0.044 C 
ATOM     28  C   UNL     1     -31.496  29.250   3.679  0.00  0.00    -0.003 C 
ATOM     29  C   UNL     1     -31.761  30.478   5.742  0.00  0.00    -0.003 C 
ATOM     30  C   UNL     1     -30.614  28.375   4.314  0.00  0.00    +0.037 C 
ATOM     31  C   UNL     1     -30.880  29.603   6.377  0.00  0.00    +0.037 C 
ATOM     32  C   UNL     1     -30.306  28.552   5.663  0.00  0.00    +0.139 C 
BRANCH  32  33
ATOM     33  O   UNL     1     -29.447  27.698   6.282  0.00  0.00    -0.471 OA
ATOM     34  C   UNL     1     -28.411  28.278   7.074  0.00  0.00    +0.252 C 
ENDBRANCH  32  33
ENDBRANCH  26  27
ENDBRANCH  23  26
ENDBRANCH  22  23
ENDBRANCH   6  22
TORSDOF 7
ENDMDL
MODEL 7
REMARK VINA RESULT:      -6.3      5.102      7.682
REMARK  Name = 54887
REMARK  7 active torsions:
REMARK  status: ('A' for Active; 'I' for Inactive)
REMARK    1  A    between atoms: C_6  and  C_22
REMARK    2  A    between atoms: C_13  and  O_19
REMARK    3  A    between atoms: O_19  and  C_20
REMARK    4  A    between atoms: C_22  and  N_23
REMARK    5  A    between atoms: N_23  and  C_26
REMARK    6  A    between atoms: C_26  and  C_27
REMARK    7  A    between atoms: C_32  and  O_33
REMARK                            x       y       z     vdW  Elec       q    Type
REMARK                         _______ _______ _______ _____ _____    ______ ____
ROOT
ATOM      1  O   UNL     1     -33.082  30.367   4.163  0.00  0.00    -0.226 OA
ATOM      2  N   UNL     1     -34.439  23.920   5.136  0.00  0.00    -0.325 N 
ATOM      3  N   UNL     1     -36.235  24.773   3.123  0.00  0.00    -0.406 NA
ATOM      4  N   UNL     1     -34.401  27.896   3.805  0.00  0.00    -0.370 NA
ATOM      5  N   UNL     1     -32.616  28.360   5.281  0.00  0.00    -0.225 N 
ATOM      6  C   UNL     1     -36.329  23.571   3.602  0.00  0.00    +0.085 C 
ATOM      7  C   UNL     1     -35.563  23.073   4.808  0.00  0.00    +0.140 C 
ATOM      8  C   UNL     1     -34.428  25.236   4.709  0.00  0.00    +0.083 C 
ATOM      9  C   UNL     1     -35.325  25.656   3.722  0.00  0.00    +0.187 C 
ATOM     10  C   UNL     1     -33.508  26.152   5.220  0.00  0.00    +0.065 C 
ATOM     11  C   UNL     1     -35.269  26.984   3.314  0.00  0.00    +0.210 C 
ATOM     12  C   UNL     1     -33.540  27.455   4.744  0.00  0.00    +0.191 C 
ATOM     13  C   UNL     1     -32.446  29.705   4.974  0.00  0.00    +0.407 C 
ATOM     14  H   UNL     1     -33.686  23.563   5.660  0.00  0.00    +0.147 HD
ATOM     15  H   UNL     1     -32.007  27.997   5.965  0.00  0.00    +0.161 HD
ATOM     16  N   UNL     1     -36.184  27.417   2.320  0.00  0.00    -0.331 N 
ATOM     17  H   UNL     1     -36.168  28.351   2.011  0.00  0.00    +0.145 HD
ATOM     18  H   UNL     1     -36.835  26.783   1.940  0.00  0.00    +0.145 HD
ENDROOT
BRANCH  13  19
ATOM     19  O   UNL     1     -31.427  30.214   5.733  0.00  0.00    -0.434 OA
BRANCH  19  20
ATOM     20  C   UNL     1     -30.912  29.351   6.755  0.00  0.00    +0.210 C 
ATOM     21  C   UNL     1     -29.403  29.459   6.777  0.00  0.00    +0.051 C 
ENDBRANCH  19  20
ENDBRANCH  13  19
BRANCH   6  22
ATOM     22  C   UNL     1     -37.305  22.618   2.964  0.00  0.00    -0.023 C 
BRANCH  22  23
ATOM     23  N   UNL     1     -36.680  21.314   2.998  0.00  0.00    +0.391 N 
ATOM     24  H   UNL     1     -37.233  20.695   3.592  0.00  0.00    -0.083 HD
ATOM     25  H   UNL     1     -35.735  21.419   3.368  0.00  0.00    -0.083 HD
BRANCH  23  26
ATOM     26  C   UNL     1     -36.590  20.732   1.661  0.00  0.00    -0.054 C 
BRANCH  26  27
ATOM     27  C   UNL     1     -35.163  20.592   1.206  0.00  0.00    -0.044 C 
ATOM     28  C   UNL     1     -34.566  21.628   0.502  0.00  0.00    -0.003 C 
ATOM     29  C   UNL     1     -34.464  19.429   1.497  0.00  0.00    -0.003 C 
ATOM     30  C   UNL     1     -33.242  21.498   0.080  0.00  0.00    +0.037 C 
ATOM     31  C   UNL     1     -33.141  19.299   1.075  0.00  0.00    +0.037 C 
ATOM     32  C   UNL     1     -32.529  20.334   0.367  0.00  0.00    +0.139 C 
BRANCH  32  33
ATOM     33  O   UNL     1     -31.239  20.206  -0.045  0.00  0.00    -0.471 OA
ATOM     34  C   UNL     1     -30.816  21.038  -1.125  0.00  0.00    +0.252 C 
ENDBRANCH  32  33
ENDBRANCH  26  27
ENDBRANCH  23  26
ENDBRANCH  22  23
ENDBRANCH   6  22
TORSDOF 7
ENDMDL
MODEL 8
REMARK VINA RESULT:      -6.2      4.063      8.252
REMARK  Name = 54887
REMARK  7 active torsions:
REMARK  status: ('A' for Active; 'I' for Inactive)
REMARK    1  A    between atoms: C_6  and  C_22
REMARK    2  A    between atoms: C_13  and  O_19
REMARK    3  A    between atoms: O_19  and  C_20
REMARK    4  A    between atoms: C_22  and  N_23
REMARK    5  A    between atoms: N_23  and  C_26
REMARK    6  A    between atoms: C_26  and  C_27
REMARK    7  A    between atoms: C_32  and  O_33
REMARK                            x       y       z     vdW  Elec       q    Type
REMARK                         _______ _______ _______ _____ _____    ______ ____
ROOT
ATOM      1  O   UNL     1     -32.987  18.252   1.891  0.00  0.00    -0.226 OA
ATOM      2  N   UNL     1     -38.547  21.547   0.285  0.00  0.00    -0.325 N 
ATOM      3  N   UNL     1     -37.723  22.623   2.770  0.00  0.00    -0.406 NA
ATOM      4  N   UNL     1     -35.099  20.103   2.186  0.00  0.00    -0.370 NA
ATOM      5  N   UNL     1     -34.739  18.624   0.379  0.00  0.00    -0.225 N 
ATOM      6  C   UNL     1     -38.848  23.002   2.246  0.00  0.00    +0.085 C 
ATOM      7  C   UNL     1     -39.482  22.356   1.033  0.00  0.00    +0.140 C 
ATOM      8  C   UNL     1     -37.414  21.059   0.912  0.00  0.00    +0.083 C 
ATOM      9  C   UNL     1     -37.017  21.585   2.145  0.00  0.00    +0.187 C 
ATOM     10  C   UNL     1     -36.631  20.069   0.317  0.00  0.00    +0.065 C 
ATOM     11  C   UNL     1     -35.865  21.073   2.730  0.00  0.00    +0.210 C 
ATOM     12  C   UNL     1     -35.501  19.627   0.989  0.00  0.00    +0.191 C 
ATOM     13  C   UNL     1     -33.576  18.019   0.843  0.00  0.00    +0.407 C 
ATOM     14  H   UNL     1     -38.714  21.345  -0.664  0.00  0.00    +0.147 HD
ATOM     15  H   UNL     1     -35.069  18.304  -0.492  0.00  0.00    +0.161 HD
ATOM     16  N   UNL     1     -35.464  21.598   3.986  0.00  0.00    -0.331 N 
ATOM     17  H   UNL     1     -34.653  21.256   4.426  0.00  0.00    +0.145 HD
ATOM     18  H   UNL     1     -35.997  22.304   4.418  0.00  0.00    +0.145 HD
ENDROOT
BRANCH  13  19
ATOM     19  O   UNL     1     -33.159  17.088  -0.069  0.00  0.00    -0.434 OA
BRANCH  19  20
ATOM     20  C   UNL     1     -34.044  16.844  -1.169  0.00  0.00    +0.210 C 
ATOM     21  C   UNL     1     -34.290  15.355  -1.284  0.00  0.00    +0.051 C 
ENDBRANCH  19  20
ENDBRANCH  13  19
BRANCH   6  22
ATOM     22  C   UNL     1     -39.612  24.116   2.911  0.00  0.00    -0.023 C 
BRANCH  22  23
ATOM     23  N   UNL     1     -38.685  24.762   3.815  0.00  0.00    +0.391 N 
ATOM     24  H   UNL     1     -38.050  24.061   4.198  0.00  0.00    -0.083 HD
ATOM     25  H   UNL     1     -39.220  25.208   4.560  0.00  0.00    -0.083 HD
BRANCH  23  26
ATOM     26  C   UNL     1     -37.903  25.788   3.131  0.00  0.00    -0.054 C 
BRANCH  26  27
ATOM     27  C   UNL     1     -36.556  25.988   3.773  0.00  0.00    -0.044 C 
ATOM     28  C   UNL     1     -36.296  25.412   5.008  0.00  0.00    -0.003 C 
ATOM     29  C   UNL     1     -35.595  26.747   3.121  0.00  0.00    -0.003 C 
ATOM     30  C   UNL     1     -35.048  25.598   5.602  0.00  0.00    +0.037 C 
ATOM     31  C   UNL     1     -34.347  26.932   3.715  0.00  0.00    +0.037 C 
ATOM     32  C   UNL     1     -34.073  26.358   4.956  0.00  0.00    +0.139 C 
BRANCH  32  33
ATOM     33  O   UNL     1     -32.856  26.540   5.536  0.00  0.00    -0.471 OA
ATOM     34  C   UNL     1     -32.840  27.061   6.864  0.00  0.00    +0.252 C 
ENDBRANCH  32  33
ENDBRANCH  26  27
ENDBRANCH  23  26
ENDBRANCH  22  23
ENDBRANCH   6  22
TORSDOF 7
ENDMDL
MODEL 9
REMARK VINA RESULT:      -6.2      2.208      8.131
REMARK  Name = 54887
REMARK  7 active torsions:
REMARK  status: ('A' for Active; 'I' for Inactive)
REMARK    1  A    between atoms: C_6  and  C_22
REMARK    2  A    between atoms: C_13  and  O_19
REMARK    3  A    between atoms: O_19  and  C_20
REMARK    4  A    between atoms: C_22  and  N_23
REMARK    5  A    between atoms: N_23  and  C_26
REMARK    6  A    between atoms: C_26  and  C_27
REMARK    7  A    between atoms: C_32  and  O_33
REMARK                            x       y       z     vdW  Elec       q    Type
REMARK                         _______ _______ _______ _____ _____    ______ ____
ROOT
ATOM      1  O   UNL     1     -36.246  22.525   4.484  0.00  0.00    -0.226 OA
ATOM      2  N   UNL     1     -40.781  26.622   1.837  0.00  0.00    -0.325 N 
ATOM      3  N   UNL     1     -41.601  24.014   1.104  0.00  0.00    -0.406 NA
ATOM      4  N   UNL     1     -38.540  23.281   3.020  0.00  0.00    -0.370 NA
ATOM      5  N   UNL     1     -37.040  24.706   4.160  0.00  0.00    -0.225 N 
ATOM      6  C   UNL     1     -42.241  25.044   0.642  0.00  0.00    +0.085 C 
ATOM      7  C   UNL     1     -41.778  26.476   0.801  0.00  0.00    +0.140 C 
ATOM      8  C   UNL     1     -40.031  25.525   2.222  0.00  0.00    +0.083 C 
ATOM      9  C   UNL     1     -40.433  24.239   1.848  0.00  0.00    +0.187 C 
ATOM     10  C   UNL     1     -38.891  25.672   3.014  0.00  0.00    +0.065 C 
ATOM     11  C   UNL     1     -39.657  23.166   2.269  0.00  0.00    +0.210 C 
ATOM     12  C   UNL     1     -38.187  24.533   3.376  0.00  0.00    +0.191 C 
ATOM     13  C   UNL     1     -36.173  23.736   4.649  0.00  0.00    +0.407 C 
ATOM     14  H   UNL     1     -40.636  27.496   2.266  0.00  0.00    +0.147 HD
ATOM     15  H   UNL     1     -36.818  25.637   4.396  0.00  0.00    +0.161 HD
ATOM     16  N   UNL     1     -40.056  21.860   1.883  0.00  0.00    -0.331 N 
ATOM     17  H   UNL     1     -39.527  21.080   2.166  0.00  0.00    +0.145 HD
ATOM     18  H   UNL     1     -40.862  21.734   1.333  0.00  0.00    +0.145 HD
ENDROOT
BRANCH  13  19
ATOM     19  O   UNL     1     -35.180  24.343   5.370  0.00  0.00    -0.434 OA
BRANCH  19  20
ATOM     20  C   UNL     1     -35.274  25.767   5.496  0.00  0.00    +0.210 C 
ATOM     21  C   UNL     1     -33.928  26.381   5.178  0.00  0.00    +0.051 C 
ENDBRANCH  19  20
ENDBRANCH  13  19
BRANCH   6  22
ATOM     22  C   UNL     1     -43.495  24.811  -0.158  0.00  0.00    -0.023 C 
BRANCH  22  23
ATOM     23  N   UNL     1     -44.555  25.510   0.535  0.00  0.00    +0.391 N 
ATOM     24  H   UNL     1     -45.266  25.791  -0.141  0.00  0.00    -0.083 HD
ATOM     25  H   UNL     1     -44.154  26.326   0.997  0.00  0.00    -0.083 HD
BRANCH  23  26
ATOM     26  C   UNL     1     -45.175  24.663   1.551  0.00  0.00    -0.054 C 
BRANCH  26  27
ATOM     27  C   UNL     1     -45.325  25.382   2.864  0.00  0.00    -0.044 C 
ATOM     28  C   UNL     1     -46.373  25.047   3.711  0.00  0.00    -0.003 C 
ATOM     29  C   UNL     1     -44.415  26.370   3.211  0.00  0.00    -0.003 C 
ATOM     30  C   UNL     1     -46.511  25.713   4.928  0.00  0.00    +0.037 C 
ATOM     31  C   UNL     1     -44.554  27.036   4.428  0.00  0.00    +0.037 C 
ATOM     32  C   UNL     1     -45.602  26.708   5.288  0.00  0.00    +0.139 C 
BRANCH  32  33
ATOM     33  O   UNL     1     -45.738  27.359   6.475  0.00  0.00    -0.471 OA
ATOM     34  C   UNL     1     -45.969  26.557   7.632  0.00  0.00    +0.252 C 
ENDBRANCH  32  33
ENDBRANCH  26  27
ENDBRANCH  23  26
ENDBRANCH  22  23
ENDBRANCH   6  22
TORSDOF 7
ENDMDL
