MODEL 1
REMARK VINA RESULT:      -5.8      0.000      0.000
REMARK  Name = 5485188
REMARK  4 active torsions:
REMARK  status: ('A' for Active; 'I' for Inactive)
REMARK    1  A    between atoms: N_2  and  C_12
REMARK    2  A    between atoms: N_4  and  C_6
REMARK    3  A    between atoms: N_4  and  N_11
REMARK    4  A    between atoms: C_12  and  C_16
REMARK                            x       y       z     vdW  Elec       q    Type
REMARK                         _______ _______ _______ _____ _____    ______ ____
ROOT
ATOM      1  O   UNL     1     -38.634  23.786   3.028  0.00  0.00    -0.320 OA
ATOM      2  N   UNL     1     -36.786  24.382   4.428  0.00  0.00    -0.212 NA
ATOM      3  N   UNL     1     -36.642  22.473   3.034  0.00  0.00    -0.215 NA
ATOM      4  C   UNL     1     -37.914  24.858   3.630  0.00  0.00    +0.224 C 
ATOM      5  C   UNL     1     -36.110  23.195   4.111  0.00  0.00    +0.245 C 
ATOM      6  C   UNL     1     -37.757  22.981   2.244  0.00  0.00    +0.224 C 
ATOM      7  C   UNL     1     -35.978  21.279   2.522  0.00  0.00    +0.095 C 
ENDROOT
BRANCH   5   8
ATOM      8  N   UNL     1     -35.055  22.765   4.758  0.00  0.00    -0.058 NA
BRANCH   8  11
ATOM      9  O   UNL     1     -36.011  22.154   6.667  0.00  0.00    -0.108 OA
ATOM     10  O   UNL     1     -34.990  20.653   5.461  0.00  0.00    -0.108 OA
ATOM     11  N   UNL     1     -35.351  21.823   5.670  0.00  0.00    +0.142 N 
ENDBRANCH   8  11
ENDBRANCH   5   8
BRANCH   2  12
ATOM     12  C   UNL     1     -36.313  25.293   5.465  0.00  0.00    +0.112 C 
BRANCH  12  16
ATOM     13 CL   UNL     1     -32.521  28.332   2.885  0.00  0.00    -0.054 Cl
ATOM     14  S   UNL     1     -34.988  26.814   3.560  0.00  0.00    -0.058 S 
ATOM     15  N   UNL     1     -32.989  27.050   5.183  0.00  0.00    -0.226 NA
ATOM     16  C   UNL     1     -35.080  26.070   5.086  0.00  0.00    +0.045 C 
ATOM     17  C   UNL     1     -33.953  26.290   5.815  0.00  0.00    +0.104 C 
ATOM     18  C   UNL     1     -33.426  27.383   3.989  0.00  0.00    +0.168 C 
ENDBRANCH  12  16
ENDBRANCH   2  12
TORSDOF 4
ENDMDL
MODEL 2
REMARK VINA RESULT:      -5.5      3.910      6.267
REMARK  Name = 5485188
REMARK  4 active torsions:
REMARK  status: ('A' for Active; 'I' for Inactive)
REMARK    1  A    between atoms: N_2  and  C_12
REMARK    2  A    between atoms: N_4  and  C_6
REMARK    3  A    between atoms: N_4  and  N_11
REMARK    4  A    between atoms: C_12  and  C_16
REMARK                            x       y       z     vdW  Elec       q    Type
REMARK                         _______ _______ _______ _____ _____    ______ ____
ROOT
ATOM      1  O   UNL     1     -31.485  25.772   2.523  0.00  0.00    -0.320 OA
ATOM      2  N   UNL     1     -33.244  26.990   3.597  0.00  0.00    -0.212 NA
ATOM      3  N   UNL     1     -31.024  27.813   3.672  0.00  0.00    -0.215 NA
ATOM      4  C   UNL     1     -32.866  26.121   2.485  0.00  0.00    +0.224 C 
ATOM      5  C   UNL     1     -32.328  27.879   4.180  0.00  0.00    +0.245 C 
ATOM      6  C   UNL     1     -30.680  26.949   2.549  0.00  0.00    +0.224 C 
ATOM      7  C   UNL     1     -29.995  28.752   4.104  0.00  0.00    +0.095 C 
ENDROOT
BRANCH   5   8
ATOM      8  N   UNL     1     -32.641  28.721   5.133  0.00  0.00    -0.058 NA
BRANCH   8  11
ATOM      9  O   UNL     1     -31.790  29.212   7.125  0.00  0.00    -0.108 OA
ATOM     10  O   UNL     1     -32.220  27.132   6.634  0.00  0.00    -0.108 OA
ATOM     11  N   UNL     1     -32.187  28.337   6.338  0.00  0.00    +0.142 N 
ENDBRANCH   8  11
ENDBRANCH   5   8
BRANCH   2  12
ATOM     12  C   UNL     1     -34.660  26.990   3.950  0.00  0.00    +0.112 C 
BRANCH  12  16
ATOM     13 CL   UNL     1     -35.556  22.133   6.374  0.00  0.00    -0.054 Cl
ATOM     14  S   UNL     1     -34.446  24.789   5.625  0.00  0.00    -0.058 S 
ATOM     15  N   UNL     1     -36.484  23.727   4.440  0.00  0.00    -0.226 NA
ATOM     16  C   UNL     1     -35.192  25.642   4.358  0.00  0.00    +0.045 C 
ATOM     17  C   UNL     1     -36.244  24.949   3.844  0.00  0.00    +0.104 C 
ATOM     18  C   UNL     1     -35.597  23.538   5.392  0.00  0.00    +0.168 C 
ENDBRANCH  12  16
ENDBRANCH   2  12
TORSDOF 4
ENDMDL
MODEL 3
REMARK VINA RESULT:      -5.2      1.799      2.158
REMARK  Name = 5485188
REMARK  4 active torsions:
REMARK  status: ('A' for Active; 'I' for Inactive)
REMARK    1  A    between atoms: N_2  and  C_12
REMARK    2  A    between atoms: N_4  and  C_6
REMARK    3  A    between atoms: N_4  and  N_11
REMARK    4  A    between atoms: C_12  and  C_16
REMARK                            x       y       z     vdW  Elec       q    Type
REMARK                         _______ _______ _______ _____ _____    ______ ____
ROOT
ATOM      1  O   UNL     1     -38.903  21.944   2.098  0.00  0.00    -0.320 OA
ATOM      2  N   UNL     1     -37.492  23.442   3.322  0.00  0.00    -0.212 NA
ATOM      3  N   UNL     1     -36.593  21.442   2.428  0.00  0.00    -0.215 NA
ATOM      4  C   UNL     1     -38.640  23.305   2.429  0.00  0.00    +0.224 C 
ATOM      5  C   UNL     1     -36.431  22.524   3.302  0.00  0.00    +0.245 C 
ATOM      6  C   UNL     1     -37.741  21.341   1.534  0.00  0.00    +0.224 C 
ATOM      7  C   UNL     1     -35.525  20.471   2.219  0.00  0.00    +0.095 C 
ENDROOT
BRANCH   5   8
ATOM      8  N   UNL     1     -35.354  22.644   4.037  0.00  0.00    -0.058 NA
BRANCH   8  11
ATOM      9  O   UNL     1     -35.031  20.861   5.321  0.00  0.00    -0.108 OA
ATOM     10  O   UNL     1     -35.943  22.643   6.185  0.00  0.00    -0.108 OA
ATOM     11  N   UNL     1     -35.460  22.022   5.224  0.00  0.00    +0.142 N 
ENDBRANCH   8  11
ENDBRANCH   5   8
BRANCH   2  12
ATOM     12  C   UNL     1     -37.445  24.668   4.112  0.00  0.00    +0.112 C 
BRANCH  12  16
ATOM     13 CL   UNL     1     -33.758  28.576   2.931  0.00  0.00    -0.054 Cl
ATOM     14  S   UNL     1     -35.265  26.377   4.250  0.00  0.00    -0.058 S 
ATOM     15  N   UNL     1     -35.974  27.415   1.991  0.00  0.00    -0.226 NA
ATOM     16  C   UNL     1     -36.656  25.781   3.476  0.00  0.00    +0.045 C 
ATOM     17  C   UNL     1     -36.889  26.431   2.304  0.00  0.00    +0.104 C 
ATOM     18  C   UNL     1     -35.072  27.476   2.946  0.00  0.00    +0.168 C 
ENDBRANCH  12  16
ENDBRANCH   2  12
TORSDOF 4
ENDMDL
MODEL 4
REMARK VINA RESULT:      -5.2      1.694      3.298
REMARK  Name = 5485188
REMARK  4 active torsions:
REMARK  status: ('A' for Active; 'I' for Inactive)
REMARK    1  A    between atoms: N_2  and  C_12
REMARK    2  A    between atoms: N_4  and  C_6
REMARK    3  A    between atoms: N_4  and  N_11
REMARK    4  A    between atoms: C_12  and  C_16
REMARK                            x       y       z     vdW  Elec       q    Type
REMARK                         _______ _______ _______ _____ _____    ______ ____
ROOT
ATOM      1  O   UNL     1     -35.342  22.553   2.783  0.00  0.00    -0.320 OA
ATOM      2  N   UNL     1     -36.493  24.109   4.192  0.00  0.00    -0.212 NA
ATOM      3  N   UNL     1     -37.711  22.799   2.640  0.00  0.00    -0.215 NA
ATOM      4  C   UNL     1     -35.366  23.189   4.059  0.00  0.00    +0.224 C 
ATOM      5  C   UNL     1     -37.699  23.899   3.507  0.00  0.00    +0.245 C 
ATOM      6  C   UNL     1     -36.578  21.887   2.541  0.00  0.00    +0.224 C 
ATOM      7  C   UNL     1     -38.930  22.394   1.948  0.00  0.00    +0.095 C 
ENDROOT
BRANCH   5   8
ATOM      8  N   UNL     1     -38.755  24.661   3.648  0.00  0.00    -0.058 NA
BRANCH   8  11
ATOM      9  O   UNL     1     -37.828  25.813   1.991  0.00  0.00    -0.108 OA
ATOM     10  O   UNL     1     -39.695  26.521   2.865  0.00  0.00    -0.108 OA
ATOM     11  N   UNL     1     -38.754  25.714   2.813  0.00  0.00    +0.142 N 
ENDBRANCH   8  11
ENDBRANCH   5   8
BRANCH   2  12
ATOM     12  C   UNL     1     -36.340  25.158   5.195  0.00  0.00    +0.112 C 
BRANCH  12  16
ATOM     13 CL   UNL     1     -32.333  28.453   3.368  0.00  0.00    -0.054 Cl
ATOM     14  S   UNL     1     -34.825  26.848   3.601  0.00  0.00    -0.058 S 
ATOM     15  N   UNL     1     -33.054  26.984   5.480  0.00  0.00    -0.226 NA
ATOM     16  C   UNL     1     -35.090  25.982   5.040  0.00  0.00    +0.045 C 
ATOM     17  C   UNL     1     -34.070  26.160   5.921  0.00  0.00    +0.104 C 
ATOM     18  C   UNL     1     -33.346  27.405   4.268  0.00  0.00    +0.168 C 
ENDBRANCH  12  16
ENDBRANCH   2  12
TORSDOF 4
ENDMDL
MODEL 5
REMARK VINA RESULT:      -5.2      2.914      5.569
REMARK  Name = 5485188
REMARK  4 active torsions:
REMARK  status: ('A' for Active; 'I' for Inactive)
REMARK    1  A    between atoms: N_2  and  C_12
REMARK    2  A    between atoms: N_4  and  C_6
REMARK    3  A    between atoms: N_4  and  N_11
REMARK    4  A    between atoms: C_12  and  C_16
REMARK                            x       y       z     vdW  Elec       q    Type
REMARK                         _______ _______ _______ _____ _____    ______ ____
ROOT
ATOM      1  O   UNL     1     -35.928  22.586   5.967  0.00  0.00    -0.320 OA
ATOM      2  N   UNL     1     -36.554  22.781   3.664  0.00  0.00    -0.212 NA
ATOM      3  N   UNL     1     -36.114  24.730   4.935  0.00  0.00    -0.215 NA
ATOM      4  C   UNL     1     -35.862  21.985   4.676  0.00  0.00    +0.224 C 
ATOM      5  C   UNL     1     -36.653  24.176   3.767  0.00  0.00    +0.245 C 
ATOM      6  C   UNL     1     -35.412  23.915   5.919  0.00  0.00    +0.224 C 
ATOM      7  C   UNL     1     -36.045  26.175   5.126  0.00  0.00    +0.095 C 
ENDROOT
BRANCH   5   8
ATOM      8  N   UNL     1     -37.206  24.933   2.852  0.00  0.00    -0.058 NA
BRANCH   8  11
ATOM      9  O   UNL     1     -38.844  26.433   2.855  0.00  0.00    -0.108 OA
ATOM     10  O   UNL     1     -39.208  24.459   3.704  0.00  0.00    -0.108 OA
ATOM     11  N   UNL     1     -38.464  25.292   3.162  0.00  0.00    +0.142 N 
ENDBRANCH   8  11
ENDBRANCH   5   8
BRANCH   2  12
ATOM     12  C   UNL     1     -36.988  22.055   2.475  0.00  0.00    +0.112 C 
BRANCH  12  16
ATOM     13 CL   UNL     1     -32.446  20.633  -0.283  0.00  0.00    -0.054 Cl
ATOM     14  S   UNL     1     -34.586  22.173   1.092  0.00  0.00    -0.058 S 
ATOM     15  N   UNL     1     -34.614  19.596   0.885  0.00  0.00    -0.226 NA
ATOM     16  C   UNL     1     -35.885  21.311   1.771  0.00  0.00    +0.045 C 
ATOM     17  C   UNL     1     -35.748  19.972   1.576  0.00  0.00    +0.104 C 
ATOM     18  C   UNL     1     -33.926  20.674   0.579  0.00  0.00    +0.168 C 
ENDBRANCH  12  16
ENDBRANCH   2  12
TORSDOF 4
ENDMDL
MODEL 6
REMARK VINA RESULT:      -5.2      1.255      2.891
REMARK  Name = 5485188
REMARK  4 active torsions:
REMARK  status: ('A' for Active; 'I' for Inactive)
REMARK    1  A    between atoms: N_2  and  C_12
REMARK    2  A    between atoms: N_4  and  C_6
REMARK    3  A    between atoms: N_4  and  N_11
REMARK    4  A    between atoms: C_12  and  C_16
REMARK                            x       y       z     vdW  Elec       q    Type
REMARK                         _______ _______ _______ _____ _____    ______ ____
ROOT
ATOM      1  O   UNL     1     -34.549  21.839   5.984  0.00  0.00    -0.320 OA
ATOM      2  N   UNL     1     -35.647  23.734   5.019  0.00  0.00    -0.212 NA
ATOM      3  N   UNL     1     -35.509  21.706   3.804  0.00  0.00    -0.215 NA
ATOM      4  C   UNL     1     -35.329  23.003   6.243  0.00  0.00    +0.224 C 
ATOM      5  C   UNL     1     -35.779  23.081   3.784  0.00  0.00    +0.245 C 
ATOM      6  C   UNL     1     -35.213  20.999   5.043  0.00  0.00    +0.224 C 
ATOM      7  C   UNL     1     -35.714  20.879   2.620  0.00  0.00    +0.095 C 
ENDROOT
BRANCH   5   8
ATOM      8  N   UNL     1     -36.126  23.687   2.676  0.00  0.00    -0.058 NA
BRANCH   8  11
ATOM      9  O   UNL     1     -37.734  25.140   2.193  0.00  0.00    -0.108 OA
ATOM     10  O   UNL     1     -38.268  23.212   3.056  0.00  0.00    -0.108 OA
ATOM     11  N   UNL     1     -37.426  24.030   2.655  0.00  0.00    +0.142 N 
ENDBRANCH   8  11
ENDBRANCH   5   8
BRANCH   2  12
ATOM     12  C   UNL     1     -35.974  25.146   5.190  0.00  0.00    +0.112 C 
BRANCH  12  16
ATOM     13 CL   UNL     1     -32.212  28.743   3.407  0.00  0.00    -0.054 Cl
ATOM     14  S   UNL     1     -34.564  26.933   3.604  0.00  0.00    -0.058 S 
ATOM     15  N   UNL     1     -32.866  27.253   5.527  0.00  0.00    -0.226 NA
ATOM     16  C   UNL     1     -34.795  26.072   5.052  0.00  0.00    +0.045 C 
ATOM     17  C   UNL     1     -33.819  26.352   5.958  0.00  0.00    +0.104 C 
ATOM     18  C   UNL     1     -33.157  27.626   4.301  0.00  0.00    +0.168 C 
ENDBRANCH  12  16
ENDBRANCH   2  12
TORSDOF 4
ENDMDL
MODEL 7
REMARK VINA RESULT:      -5.1      3.542      4.596
REMARK  Name = 5485188
REMARK  4 active torsions:
REMARK  status: ('A' for Active; 'I' for Inactive)
REMARK    1  A    between atoms: N_2  and  C_12
REMARK    2  A    between atoms: N_4  and  C_6
REMARK    3  A    between atoms: N_4  and  N_11
REMARK    4  A    between atoms: C_12  and  C_16
REMARK                            x       y       z     vdW  Elec       q    Type
REMARK                         _______ _______ _______ _____ _____    ______ ____
ROOT
ATOM      1  O   UNL     1     -36.538  21.839   2.320  0.00  0.00    -0.320 OA
ATOM      2  N   UNL     1     -36.158  24.096   3.021  0.00  0.00    -0.212 NA
ATOM      3  N   UNL     1     -35.601  22.304   4.465  0.00  0.00    -0.215 NA
ATOM      4  C   UNL     1     -36.201  23.159   1.901  0.00  0.00    +0.224 C 
ATOM      5  C   UNL     1     -35.818  23.680   4.316  0.00  0.00    +0.245 C 
ATOM      6  C   UNL     1     -35.631  21.394   3.326  0.00  0.00    +0.224 C 
ATOM      7  C   UNL     1     -35.132  21.744   5.727  0.00  0.00    +0.095 C 
ENDROOT
BRANCH   5   8
ATOM      8  N   UNL     1     -35.704  24.496   5.334  0.00  0.00    -0.058 NA
BRANCH   8  11
ATOM      9  O   UNL     1     -34.641  26.406   5.727  0.00  0.00    -0.108 OA
ATOM     10  O   UNL     1     -33.554  24.751   4.816  0.00  0.00    -0.108 OA
ATOM     11  N   UNL     1     -34.592  25.250   5.277  0.00  0.00    +0.142 N 
ENDBRANCH   8  11
ENDBRANCH   5   8
BRANCH   2  12
ATOM     12  C   UNL     1     -36.333  25.504   2.676  0.00  0.00    +0.112 C 
BRANCH  12  16
ATOM     13 CL   UNL     1     -41.801  25.966   2.283  0.00  0.00    -0.054 Cl
ATOM     14  S   UNL     1     -39.054  25.191   3.119  0.00  0.00    -0.058 S 
ATOM     15  N   UNL     1     -39.527  26.844   1.188  0.00  0.00    -0.226 NA
ATOM     16  C   UNL     1     -37.739  25.871   2.283  0.00  0.00    +0.045 C 
ATOM     17  C   UNL     1     -38.157  26.716   1.302  0.00  0.00    +0.104 C 
ATOM     18  C   UNL     1     -40.101  26.086   2.095  0.00  0.00    +0.168 C 
ENDBRANCH  12  16
ENDBRANCH   2  12
TORSDOF 4
ENDMDL
MODEL 8
REMARK VINA RESULT:      -5.1      3.352      5.192
REMARK  Name = 5485188
REMARK  4 active torsions:
REMARK  status: ('A' for Active; 'I' for Inactive)
REMARK    1  A    between atoms: N_2  and  C_12
REMARK    2  A    between atoms: N_4  and  C_6
REMARK    3  A    between atoms: N_4  and  N_11
REMARK    4  A    between atoms: C_12  and  C_16
REMARK                            x       y       z     vdW  Elec       q    Type
REMARK                         _______ _______ _______ _____ _____    ______ ____
ROOT
ATOM      1  O   UNL     1     -34.606  23.864   1.329  0.00  0.00    -0.320 OA
ATOM      2  N   UNL     1     -36.450  22.989   2.581  0.00  0.00    -0.212 NA
ATOM      3  N   UNL     1     -34.783  24.268   3.674  0.00  0.00    -0.215 NA
ATOM      4  C   UNL     1     -35.987  23.515   1.298  0.00  0.00    +0.224 C 
ATOM      5  C   UNL     1     -35.872  23.394   3.793  0.00  0.00    +0.245 C 
ATOM      6  C   UNL     1     -34.355  24.791   2.383  0.00  0.00    +0.224 C 
ATOM      7  C   UNL     1     -34.155  24.859   4.851  0.00  0.00    +0.095 C 
ENDROOT
BRANCH   5   8
ATOM      8  N   UNL     1     -36.297  23.000   4.967  0.00  0.00    -0.058 NA
BRANCH   8  11
ATOM      9  O   UNL     1     -35.233  22.111   6.702  0.00  0.00    -0.108 OA
ATOM     10  O   UNL     1     -35.192  21.075   4.785  0.00  0.00    -0.108 OA
ATOM     11  N   UNL     1     -35.532  22.030   5.500  0.00  0.00    +0.142 N 
ENDBRANCH   8  11
ENDBRANCH   5   8
BRANCH   2  12
ATOM     12  C   UNL     1     -37.642  22.151   2.530  0.00  0.00    +0.112 C 
BRANCH  12  16
ATOM     13 CL   UNL     1     -41.791  25.701   1.860  0.00  0.00    -0.054 Cl
ATOM     14  S   UNL     1     -39.327  24.336   2.814  0.00  0.00    -0.058 S 
ATOM     15  N   UNL     1     -40.815  23.398   0.920  0.00  0.00    -0.226 NA
ATOM     16  C   UNL     1     -38.883  22.871   2.074  0.00  0.00    +0.045 C 
ATOM     17  C   UNL     1     -39.766  22.519   1.102  0.00  0.00    +0.104 C 
ATOM     18  C   UNL     1     -40.686  24.394   1.768  0.00  0.00    +0.168 C 
ENDBRANCH  12  16
ENDBRANCH   2  12
TORSDOF 4
ENDMDL
MODEL 9
REMARK VINA RESULT:      -5.0      2.126      2.865
REMARK  Name = 5485188
REMARK  4 active torsions:
REMARK  status: ('A' for Active; 'I' for Inactive)
REMARK    1  A    between atoms: N_2  and  C_12
REMARK    2  A    between atoms: N_4  and  C_6
REMARK    3  A    between atoms: N_4  and  N_11
REMARK    4  A    between atoms: C_12  and  C_16
REMARK                            x       y       z     vdW  Elec       q    Type
REMARK                         _______ _______ _______ _____ _____    ______ ____
ROOT
ATOM      1  O   UNL     1     -37.413  27.329   1.881  0.00  0.00    -0.320 OA
ATOM      2  N   UNL     1     -36.005  25.641   2.828  0.00  0.00    -0.212 NA
ATOM      3  N   UNL     1     -38.359  25.417   2.949  0.00  0.00    -0.215 NA
ATOM      4  C   UNL     1     -36.170  26.638   1.774  0.00  0.00    +0.224 C 
ATOM      5  C   UNL     1     -37.105  24.988   3.403  0.00  0.00    +0.245 C 
ATOM      6  C   UNL     1     -38.495  26.401   1.882  0.00  0.00    +0.224 C 
ATOM      7  C   UNL     1     -39.586  24.752   3.375  0.00  0.00    +0.095 C 
ENDROOT
BRANCH   5   8
ATOM      8  N   UNL     1     -36.999  24.042   4.303  0.00  0.00    -0.058 NA
BRANCH   8  11
ATOM      9  O   UNL     1     -37.096  22.474   2.734  0.00  0.00    -0.108 OA
ATOM     10  O   UNL     1     -35.654  22.269   4.355  0.00  0.00    -0.108 OA
ATOM     11  N   UNL     1     -36.575  22.876   3.786  0.00  0.00    +0.142 N 
ENDBRANCH   8  11
ENDBRANCH   5   8
BRANCH   2  12
ATOM     12  C   UNL     1     -34.629  25.256   3.127  0.00  0.00    +0.112 C 
BRANCH  12  16
ATOM     13 CL   UNL     1     -31.812  28.898   6.137  0.00  0.00    -0.054 Cl
ATOM     14  S   UNL     1     -33.027  27.392   3.878  0.00  0.00    -0.058 S 
ATOM     15  N   UNL     1     -33.380  26.745   6.357  0.00  0.00    -0.226 NA
ATOM     16  C   UNL     1     -33.997  26.044   4.242  0.00  0.00    +0.045 C 
ATOM     17  C   UNL     1     -34.081  25.841   5.585  0.00  0.00    +0.104 C 
ATOM     18  C   UNL     1     -32.785  27.609   5.563  0.00  0.00    +0.168 C 
ENDBRANCH  12  16
ENDBRANCH   2  12
TORSDOF 4
ENDMDL
