MODEL 1
REMARK VINA RESULT:      -6.1      0.000      0.000
REMARK  Name = 196312
REMARK  13 active torsions:
REMARK  status: ('A' for Active; 'I' for Inactive)
REMARK    1  A    between atoms: N_2  and  C_5
REMARK    2  A    between atoms: C_3  and  C_20
REMARK    3  A    between atoms: C_6  and  C_13
REMARK    4  A    between atoms: N_12  and  C_15
REMARK    5  A    between atoms: C_15  and  C_17
REMARK    6  A    between atoms: C_17  and  O_18
REMARK    7  A    between atoms: C_20  and  N_21
REMARK    8  A    between atoms: N_21  and  C_23
REMARK    9  A    between atoms: N_21  and  C_28
REMARK   10  A    between atoms: C_23  and  C_25
REMARK   11  A    between atoms: C_25  and  O_26
REMARK   12  A    between atoms: C_28  and  C_30
REMARK   13  A    between atoms: C_30  and  O_31
REMARK                            x       y       z     vdW  Elec       q    Type
REMARK                         _______ _______ _______ _____ _____    ______ ____
ROOT
ATOM      1  O   UNL     1     -33.636  24.895   2.195  0.00  0.00    -0.277 OA
ATOM      2  N   UNL     1     -34.815  25.591   4.102  0.00  0.00    -0.286 N 
ATOM      3  C   UNL     1     -34.629  24.885   2.914  0.00  0.00    +0.205 C 
ATOM      4  H   UNL     1     -35.683  25.467   4.549  0.00  0.00    +0.155 HD
ENDROOT
BRANCH   2   5
ATOM      5  C   UNL     1     -33.902  26.464   4.738  0.00  0.00    +0.050 C 
ATOM      6  C   UNL     1     -32.116  28.175   5.983  0.00  0.00    +0.053 C 
ATOM      7  C   UNL     1     -33.260  27.436   3.988  0.00  0.00    +0.015 C 
ATOM      8  C   UNL     1     -33.669  26.330   6.096  0.00  0.00    +0.015 C 
ATOM      9  C   UNL     1     -32.361  28.297   4.615  0.00  0.00    +0.006 C 
ATOM     10  C   UNL     1     -32.771  27.192   6.723  0.00  0.00    +0.006 C 
BRANCH   6  13
ATOM     11  O   UNL     1     -31.554  29.812   7.567  0.00  0.00    -0.270 OA
ATOM     12  N   UNL     1     -29.853  29.050   6.186  0.00  0.00    -0.291 N 
ATOM     13  C   UNL     1     -31.179  29.075   6.637  0.00  0.00    +0.246 C 
ATOM     14  H   UNL     1     -29.626  28.443   5.445  0.00  0.00    +0.150 HD
BRANCH  12  15
ATOM     15  C   UNL     1     -28.802  29.866   6.748  0.00  0.00    +0.201 C 
BRANCH  15  17
ATOM     16  O   UNL     1     -27.700  28.033   7.854  0.00  0.00    -0.248 OA
ATOM     17  C   UNL     1     -28.087  29.195   7.893  0.00  0.00    +0.334 C 
BRANCH  17  18
ATOM     18  O   UNL     1     -27.916  29.997   8.969  0.00  0.00    -0.479 OA
ATOM     19  H   UNL     1     -28.557  30.650   9.173  0.00  0.00    +0.295 HD
ENDBRANCH  17  18
ENDBRANCH  15  17
ENDBRANCH  12  15
ENDBRANCH   6  13
ENDBRANCH   2   5
BRANCH   3  20
ATOM     20  C   UNL     1     -35.866  24.064   2.591  0.00  0.00    +0.012 C 
BRANCH  20  21
ATOM     21  N   UNL     1     -35.625  22.664   2.937  0.00  0.00    +0.407 N 
ATOM     22  H   UNL     1     -34.625  22.537   3.089  0.00  0.00    -0.077 HD
BRANCH  21  23
ATOM     23  C   UNL     1     -36.041  21.789   1.842  0.00  0.00    +0.036 C 
BRANCH  23  25
ATOM     24  O   UNL     1     -34.750  19.914   2.624  0.00  0.00    -0.253 OA
ATOM     25  C   UNL     1     -35.790  20.330   2.130  0.00  0.00    +0.293 C 
BRANCH  25  26
ATOM     26  O   UNL     1     -36.823  19.526   1.787  0.00  0.00    -0.482 OA
ATOM     27  H   UNL     1     -37.643  19.900   1.529  0.00  0.00    +0.295 HD
ENDBRANCH  25  26
ENDBRANCH  23  25
ENDBRANCH  21  23
BRANCH  21  28
ATOM     28  C   UNL     1     -36.331  22.313   4.169  0.00  0.00    +0.036 C 
BRANCH  28  30
ATOM     29  O   UNL     1     -34.876  23.019   5.952  0.00  0.00    -0.253 OA
ATOM     30  C   UNL     1     -35.402  22.100   5.337  0.00  0.00    +0.293 C 
BRANCH  30  31
ATOM     31  O   UNL     1     -35.204  20.796   5.639  0.00  0.00    -0.482 OA
ATOM     32  H   UNL     1     -35.685  20.131   5.187  0.00  0.00    +0.295 HD
ENDBRANCH  30  31
ENDBRANCH  28  30
ENDBRANCH  21  28
ENDBRANCH  20  21
ENDBRANCH   3  20
TORSDOF 13
ENDMDL
MODEL 2
REMARK VINA RESULT:      -5.9      2.153      8.883
REMARK  Name = 196312
REMARK  13 active torsions:
REMARK  status: ('A' for Active; 'I' for Inactive)
REMARK    1  A    between atoms: N_2  and  C_5
REMARK    2  A    between atoms: C_3  and  C_20
REMARK    3  A    between atoms: C_6  and  C_13
REMARK    4  A    between atoms: N_12  and  C_15
REMARK    5  A    between atoms: C_15  and  C_17
REMARK    6  A    between atoms: C_17  and  O_18
REMARK    7  A    between atoms: C_20  and  N_21
REMARK    8  A    between atoms: N_21  and  C_23
REMARK    9  A    between atoms: N_21  and  C_28
REMARK   10  A    between atoms: C_23  and  C_25
REMARK   11  A    between atoms: C_25  and  O_26
REMARK   12  A    between atoms: C_28  and  C_30
REMARK   13  A    between atoms: C_30  and  O_31
REMARK                            x       y       z     vdW  Elec       q    Type
REMARK                         _______ _______ _______ _____ _____    ______ ____
ROOT
ATOM      1  O   UNL     1     -33.112  30.094   4.550  0.00  0.00    -0.277 OA
ATOM      2  N   UNL     1     -32.004  28.149   5.258  0.00  0.00    -0.286 N 
ATOM      3  C   UNL     1     -32.152  29.520   5.054  0.00  0.00    +0.205 C 
ATOM      4  H   UNL     1     -31.161  27.860   5.674  0.00  0.00    +0.155 HD
ENDROOT
BRANCH   2   5
ATOM      5  C   UNL     1     -32.925  27.124   4.935  0.00  0.00    +0.050 C 
ATOM      6  C   UNL     1     -34.729  25.119   4.306  0.00  0.00    +0.053 C 
ATOM      7  C   UNL     1     -33.678  26.548   5.946  0.00  0.00    +0.015 C 
ATOM      8  C   UNL     1     -33.055  26.719   3.618  0.00  0.00    +0.015 C 
ATOM      9  C   UNL     1     -34.586  25.539   5.629  0.00  0.00    +0.006 C 
ATOM     10  C   UNL     1     -33.963  25.710   3.301  0.00  0.00    +0.006 C 
BRANCH   6  13
ATOM     11  O   UNL     1     -36.714  23.917   4.647  0.00  0.00    -0.270 OA
ATOM     12  N   UNL     1     -35.376  23.265   2.868  0.00  0.00    -0.291 N 
ATOM     13  C   UNL     1     -35.677  24.067   3.976  0.00  0.00    +0.246 C 
ATOM     14  H   UNL     1     -34.538  23.439   2.382  0.00  0.00    +0.150 HD
BRANCH  12  15
ATOM     15  C   UNL     1     -36.228  22.196   2.401  0.00  0.00    +0.201 C 
BRANCH  15  17
ATOM     16  O   UNL     1     -35.091  20.740   3.946  0.00  0.00    -0.248 OA
ATOM     17  C   UNL     1     -35.916  20.871   3.051  0.00  0.00    +0.334 C 
BRANCH  17  18
ATOM     18  O   UNL     1     -36.632  19.839   2.546  0.00  0.00    -0.479 OA
ATOM     19  H   UNL     1     -36.748  19.759   1.620  0.00  0.00    +0.295 HD
ENDBRANCH  17  18
ENDBRANCH  15  17
ENDBRANCH  12  15
ENDBRANCH   6  13
ENDBRANCH   2   5
BRANCH   3  20
ATOM     20  C   UNL     1     -30.921  30.260   5.547  0.00  0.00    +0.012 C 
BRANCH  20  21
ATOM     21  N   UNL     1     -29.756  29.382   5.455  0.00  0.00    +0.407 N 
ATOM     22  H   UNL     1     -30.079  28.415   5.463  0.00  0.00    -0.077 HD
BRANCH  21  23
ATOM     23  C   UNL     1     -28.871  29.584   6.601  0.00  0.00    +0.036 C 
BRANCH  23  25
ATOM     24  O   UNL     1     -27.564  28.206   8.079  0.00  0.00    -0.253 OA
ATOM     25  C   UNL     1     -28.489  28.294   7.281  0.00  0.00    +0.293 C 
BRANCH  25  26
ATOM     26  O   UNL     1     -29.264  27.244   6.924  0.00  0.00    -0.482 OA
ATOM     27  H   UNL     1     -29.550  27.153   6.036  0.00  0.00    +0.295 HD
ENDBRANCH  25  26
ENDBRANCH  23  25
ENDBRANCH  21  23
BRANCH  21  28
ATOM     28  C   UNL     1     -29.035  29.620   4.204  0.00  0.00    +0.036 C 
BRANCH  28  30
ATOM     29  O   UNL     1     -28.666  28.450   2.133  0.00  0.00    -0.253 OA
ATOM     30  C   UNL     1     -28.985  28.405   3.315  0.00  0.00    +0.293 C 
BRANCH  30  31
ATOM     31  O   UNL     1     -29.329  27.259   3.945  0.00  0.00    -0.482 OA
ATOM     32  H   UNL     1     -28.753  26.520   3.923  0.00  0.00    +0.295 HD
ENDBRANCH  30  31
ENDBRANCH  28  30
ENDBRANCH  21  28
ENDBRANCH  20  21
ENDBRANCH   3  20
TORSDOF 13
ENDMDL
MODEL 3
REMARK VINA RESULT:      -5.8      1.556      2.567
REMARK  Name = 196312
REMARK  13 active torsions:
REMARK  status: ('A' for Active; 'I' for Inactive)
REMARK    1  A    between atoms: N_2  and  C_5
REMARK    2  A    between atoms: C_3  and  C_20
REMARK    3  A    between atoms: C_6  and  C_13
REMARK    4  A    between atoms: N_12  and  C_15
REMARK    5  A    between atoms: C_15  and  C_17
REMARK    6  A    between atoms: C_17  and  O_18
REMARK    7  A    between atoms: C_20  and  N_21
REMARK    8  A    between atoms: N_21  and  C_23
REMARK    9  A    between atoms: N_21  and  C_28
REMARK   10  A    between atoms: C_23  and  C_25
REMARK   11  A    between atoms: C_25  and  O_26
REMARK   12  A    between atoms: C_28  and  C_30
REMARK   13  A    between atoms: C_30  and  O_31
REMARK                            x       y       z     vdW  Elec       q    Type
REMARK                         _______ _______ _______ _____ _____    ______ ____
ROOT
ATOM      1  O   UNL     1     -33.572  25.503   1.616  0.00  0.00    -0.277 OA
ATOM      2  N   UNL     1     -34.500  25.503   3.772  0.00  0.00    -0.286 N 
ATOM      3  C   UNL     1     -34.399  25.118   2.436  0.00  0.00    +0.205 C 
ATOM      4  H   UNL     1     -35.233  25.095   4.287  0.00  0.00    +0.155 HD
ENDROOT
BRANCH   2   5
ATOM      5  C   UNL     1     -33.672  26.411   4.474  0.00  0.00    +0.050 C 
ATOM      6  C   UNL     1     -32.054  28.190   5.846  0.00  0.00    +0.053 C 
ATOM      7  C   UNL     1     -32.962  27.366   3.765  0.00  0.00    +0.015 C 
ATOM      8  C   UNL     1     -33.590  26.327   5.853  0.00  0.00    +0.015 C 
ATOM      9  C   UNL     1     -32.147  28.261   4.456  0.00  0.00    +0.006 C 
ATOM     10  C   UNL     1     -32.776  27.223   6.544  0.00  0.00    +0.006 C 
BRANCH   6  13
ATOM     11  O   UNL     1     -31.661  29.798   7.508  0.00  0.00    -0.270 OA
ATOM     12  N   UNL     1     -29.865  29.208   6.164  0.00  0.00    -0.291 N 
ATOM     13  C   UNL     1     -31.204  29.126   6.566  0.00  0.00    +0.246 C 
ATOM     14  H   UNL     1     -29.571  28.647   5.410  0.00  0.00    +0.150 HD
BRANCH  12  15
ATOM     15  C   UNL     1     -28.894  30.071   6.794  0.00  0.00    +0.201 C 
BRANCH  15  17
ATOM     16  O   UNL     1     -27.726  30.067   8.900  0.00  0.00    -0.248 OA
ATOM     17  C   UNL     1     -28.217  29.428   7.978  0.00  0.00    +0.334 C 
BRANCH  17  18
ATOM     18  O   UNL     1     -28.201  28.076   7.923  0.00  0.00    -0.479 OA
ATOM     19  H   UNL     1     -27.390  27.621   7.802  0.00  0.00    +0.295 HD
ENDBRANCH  17  18
ENDBRANCH  15  17
ENDBRANCH  12  15
ENDBRANCH   6  13
ENDBRANCH   2   5
BRANCH   3  20
ATOM     20  C   UNL     1     -35.492  24.122   2.092  0.00  0.00    +0.012 C 
BRANCH  20  21
ATOM     21  N   UNL     1     -36.290  23.843   3.286  0.00  0.00    +0.407 N 
ATOM     22  H   UNL     1     -35.922  24.399   4.057  0.00  0.00    -0.077 HD
BRANCH  21  23
ATOM     23  C   UNL     1     -36.191  22.429   3.647  0.00  0.00    +0.036 C 
BRANCH  23  25
ATOM     24  O   UNL     1     -35.109  21.124   5.355  0.00  0.00    -0.253 OA
ATOM     25  C   UNL     1     -35.537  22.211   4.987  0.00  0.00    +0.293 C 
BRANCH  25  26
ATOM     26  O   UNL     1     -35.471  23.330   5.746  0.00  0.00    -0.482 OA
ATOM     27  H   UNL     1     -35.888  23.353   6.585  0.00  0.00    +0.295 HD
ENDBRANCH  25  26
ENDBRANCH  23  25
ENDBRANCH  21  23
BRANCH  21  28
ATOM     28  C   UNL     1     -37.687  24.219   3.066  0.00  0.00    +0.036 C 
BRANCH  28  30
ATOM     29  O   UNL     1     -38.729  26.360   2.716  0.00  0.00    -0.253 OA
ATOM     30  C   UNL     1     -37.958  25.669   3.371  0.00  0.00    +0.293 C 
BRANCH  30  31
ATOM     31  O   UNL     1     -37.268  26.136   4.437  0.00  0.00    -0.482 OA
ATOM     32  H   UNL     1     -36.668  25.576   4.889  0.00  0.00    +0.295 HD
ENDBRANCH  30  31
ENDBRANCH  28  30
ENDBRANCH  21  28
ENDBRANCH  20  21
ENDBRANCH   3  20
TORSDOF 13
ENDMDL
MODEL 4
REMARK VINA RESULT:      -5.7      2.091      9.086
REMARK  Name = 196312
REMARK  13 active torsions:
REMARK  status: ('A' for Active; 'I' for Inactive)
REMARK    1  A    between atoms: N_2  and  C_5
REMARK    2  A    between atoms: C_3  and  C_20
REMARK    3  A    between atoms: C_6  and  C_13
REMARK    4  A    between atoms: N_12  and  C_15
REMARK    5  A    between atoms: C_15  and  C_17
REMARK    6  A    between atoms: C_17  and  O_18
REMARK    7  A    between atoms: C_20  and  N_21
REMARK    8  A    between atoms: N_21  and  C_23
REMARK    9  A    between atoms: N_21  and  C_28
REMARK   10  A    between atoms: C_23  and  C_25
REMARK   11  A    between atoms: C_25  and  O_26
REMARK   12  A    between atoms: C_28  and  C_30
REMARK   13  A    between atoms: C_30  and  O_31
REMARK                            x       y       z     vdW  Elec       q    Type
REMARK                         _______ _______ _______ _____ _____    ______ ____
ROOT
ATOM      1  O   UNL     1     -32.034  26.784   7.130  0.00  0.00    -0.277 OA
ATOM      2  N   UNL     1     -33.161  27.704   5.288  0.00  0.00    -0.286 N 
ATOM      3  C   UNL     1     -32.313  27.725   6.394  0.00  0.00    +0.205 C 
ATOM      4  H   UNL     1     -33.276  28.558   4.813  0.00  0.00    +0.155 HD
ENDROOT
BRANCH   2   5
ATOM      5  C   UNL     1     -33.876  26.599   4.769  0.00  0.00    +0.050 C 
ATOM      6  C   UNL     1     -35.277  24.437   3.753  0.00  0.00    +0.053 C 
ATOM      7  C   UNL     1     -34.884  26.028   5.528  0.00  0.00    +0.015 C 
ATOM      8  C   UNL     1     -33.554  26.112   3.514  0.00  0.00    +0.015 C 
ATOM      9  C   UNL     1     -35.589  24.939   5.017  0.00  0.00    +0.006 C 
ATOM     10  C   UNL     1     -34.260  25.024   3.002  0.00  0.00    +0.006 C 
BRANCH   6  13
ATOM     11  O   UNL     1     -37.051  22.903   3.779  0.00  0.00    -0.270 OA
ATOM     12  N   UNL     1     -35.514  22.712   2.052  0.00  0.00    -0.291 N 
ATOM     13  C   UNL     1     -36.014  23.302   3.220  0.00  0.00    +0.246 C 
ATOM     14  H   UNL     1     -34.688  23.079   1.663  0.00  0.00    +0.150 HD
BRANCH  12  15
ATOM     15  C   UNL     1     -36.144  21.594   1.390  0.00  0.00    +0.201 C 
BRANCH  15  17
ATOM     16  O   UNL     1     -34.649  19.804   1.990  0.00  0.00    -0.248 OA
ATOM     17  C   UNL     1     -35.783  20.266   2.007  0.00  0.00    +0.334 C 
BRANCH  17  18
ATOM     18  O   UNL     1     -36.833  19.632   2.579  0.00  0.00    -0.479 OA
ATOM     19  H   UNL     1     -37.013  18.738   2.365  0.00  0.00    +0.295 HD
ENDBRANCH  17  18
ENDBRANCH  15  17
ENDBRANCH  12  15
ENDBRANCH   6  13
ENDBRANCH   2   5
BRANCH   3  20
ATOM     20  C   UNL     1     -31.753  29.121   6.601  0.00  0.00    +0.012 C 
BRANCH  20  21
ATOM     21  N   UNL     1     -30.583  29.308   5.744  0.00  0.00    +0.407 N 
ATOM     22  H   UNL     1     -30.557  28.549   5.064  0.00  0.00    -0.077 HD
BRANCH  21  23
ATOM     23  C   UNL     1     -29.356  29.261   6.536  0.00  0.00    +0.036 C 
BRANCH  23  25
ATOM     24  O   UNL     1     -27.671  27.879   5.516  0.00  0.00    -0.253 OA
ATOM     25  C   UNL     1     -28.575  27.988   6.334  0.00  0.00    +0.293 C 
BRANCH  25  26
ATOM     26  O   UNL     1     -28.970  26.977   7.143  0.00  0.00    -0.482 OA
ATOM     27  H   UNL     1     -29.755  27.060   7.648  0.00  0.00    +0.295 HD
ENDBRANCH  25  26
ENDBRANCH  23  25
ENDBRANCH  21  23
BRANCH  21  28
ATOM     28  C   UNL     1     -30.678  30.576   5.020  0.00  0.00    +0.036 C 
BRANCH  28  30
ATOM     29  O   UNL     1     -32.141  29.850   3.253  0.00  0.00    -0.253 OA
ATOM     30  C   UNL     1     -31.099  30.402   3.584  0.00  0.00    +0.293 C 
BRANCH  30  31
ATOM     31  O   UNL     1     -30.217  30.913   2.696  0.00  0.00    -0.482 OA
ATOM     32  H   UNL     1     -30.493  31.566   2.083  0.00  0.00    +0.295 HD
ENDBRANCH  30  31
ENDBRANCH  28  30
ENDBRANCH  21  28
ENDBRANCH  20  21
ENDBRANCH   3  20
TORSDOF 13
ENDMDL
MODEL 5
REMARK VINA RESULT:      -5.7      0.951      2.422
REMARK  Name = 196312
REMARK  13 active torsions:
REMARK  status: ('A' for Active; 'I' for Inactive)
REMARK    1  A    between atoms: N_2  and  C_5
REMARK    2  A    between atoms: C_3  and  C_20
REMARK    3  A    between atoms: C_6  and  C_13
REMARK    4  A    between atoms: N_12  and  C_15
REMARK    5  A    between atoms: C_15  and  C_17
REMARK    6  A    between atoms: C_17  and  O_18
REMARK    7  A    between atoms: C_20  and  N_21
REMARK    8  A    between atoms: N_21  and  C_23
REMARK    9  A    between atoms: N_21  and  C_28
REMARK   10  A    between atoms: C_23  and  C_25
REMARK   11  A    between atoms: C_25  and  O_26
REMARK   12  A    between atoms: C_28  and  C_30
REMARK   13  A    between atoms: C_30  and  O_31
REMARK                            x       y       z     vdW  Elec       q    Type
REMARK                         _______ _______ _______ _____ _____    ______ ____
ROOT
ATOM      1  O   UNL     1     -34.815  24.657   2.532  0.00  0.00    -0.277 OA
ATOM      2  N   UNL     1     -35.563  25.592   4.551  0.00  0.00    -0.286 N 
ATOM      3  C   UNL     1     -35.670  24.819   3.396  0.00  0.00    +0.205 C 
ATOM      4  H   UNL     1     -36.355  25.613   5.135  0.00  0.00    +0.155 HD
ENDROOT
BRANCH   2   5
ATOM      5  C   UNL     1     -34.448  26.350   4.982  0.00  0.00    +0.050 C 
ATOM      6  C   UNL     1     -32.266  27.832   5.826  0.00  0.00    +0.053 C 
ATOM      7  C   UNL     1     -34.002  26.216   6.286  0.00  0.00    +0.015 C 
ATOM      8  C   UNL     1     -33.828  27.210   4.091  0.00  0.00    +0.015 C 
ATOM      9  C   UNL     1     -32.903  26.962   6.711  0.00  0.00    +0.006 C 
ATOM     10  C   UNL     1     -32.729  27.955   4.516  0.00  0.00    +0.006 C 
BRANCH   6  13
ATOM     11  O   UNL     1     -31.278  29.627   6.967  0.00  0.00    -0.270 OA
ATOM     12  N   UNL     1     -29.853  28.144   5.893  0.00  0.00    -0.291 N 
ATOM     13  C   UNL     1     -31.120  28.609   6.269  0.00  0.00    +0.246 C 
ATOM     14  H   UNL     1     -29.802  27.333   5.339  0.00  0.00    +0.150 HD
BRANCH  12  15
ATOM     15  C   UNL     1     -28.619  28.792   6.274  0.00  0.00    +0.201 C 
BRANCH  15  17
ATOM     16  O   UNL     1     -27.458  27.123   7.563  0.00  0.00    -0.248 OA
ATOM     17  C   UNL     1     -28.015  28.213   7.528  0.00  0.00    +0.334 C 
BRANCH  17  18
ATOM     18  O   UNL     1     -28.151  29.011   8.612  0.00  0.00    -0.479 OA
ATOM     19  H   UNL     1     -28.974  29.421   8.792  0.00  0.00    +0.295 HD
ENDBRANCH  17  18
ENDBRANCH  15  17
ENDBRANCH  12  15
ENDBRANCH   6  13
ENDBRANCH   2   5
BRANCH   3  20
ATOM     20  C   UNL     1     -37.043  24.173   3.322  0.00  0.00    +0.012 C 
BRANCH  20  21
ATOM     21  N   UNL     1     -36.923  22.742   3.600  0.00  0.00    +0.407 N 
ATOM     22  H   UNL     1     -37.534  22.513   4.383  0.00  0.00    -0.077 HD
BRANCH  21  23
ATOM     23  C   UNL     1     -35.549  22.408   3.972  0.00  0.00    +0.036 C 
BRANCH  23  25
ATOM     24  O   UNL     1     -35.349  22.795   6.339  0.00  0.00    -0.253 OA
ATOM     25  C   UNL     1     -35.416  21.994   5.416  0.00  0.00    +0.293 C 
BRANCH  25  26
ATOM     26  O   UNL     1     -35.377  20.653   5.593  0.00  0.00    -0.482 OA
ATOM     27  H   UNL     1     -35.142  20.297   6.427  0.00  0.00    +0.295 HD
ENDBRANCH  25  26
ENDBRANCH  23  25
ENDBRANCH  21  23
BRANCH  21  28
ATOM     28  C   UNL     1     -37.343  21.959   2.438  0.00  0.00    +0.036 C 
BRANCH  28  30
ATOM     29  O   UNL     1     -35.470  20.918   1.344  0.00  0.00    -0.253 OA
ATOM     30  C   UNL     1     -36.406  20.821   2.127  0.00  0.00    +0.293 C 
BRANCH  30  31
ATOM     31  O   UNL     1     -36.699  19.682   2.794  0.00  0.00    -0.482 OA
ATOM     32  H   UNL     1     -36.019  19.070   3.000  0.00  0.00    +0.295 HD
ENDBRANCH  30  31
ENDBRANCH  28  30
ENDBRANCH  21  28
ENDBRANCH  20  21
ENDBRANCH   3  20
TORSDOF 13
ENDMDL
MODEL 6
REMARK VINA RESULT:      -5.7      5.890     10.117
REMARK  Name = 196312
REMARK  13 active torsions:
REMARK  status: ('A' for Active; 'I' for Inactive)
REMARK    1  A    between atoms: N_2  and  C_5
REMARK    2  A    between atoms: C_3  and  C_20
REMARK    3  A    between atoms: C_6  and  C_13
REMARK    4  A    between atoms: N_12  and  C_15
REMARK    5  A    between atoms: C_15  and  C_17
REMARK    6  A    between atoms: C_17  and  O_18
REMARK    7  A    between atoms: C_20  and  N_21
REMARK    8  A    between atoms: N_21  and  C_23
REMARK    9  A    between atoms: N_21  and  C_28
REMARK   10  A    between atoms: C_23  and  C_25
REMARK   11  A    between atoms: C_25  and  O_26
REMARK   12  A    between atoms: C_28  and  C_30
REMARK   13  A    between atoms: C_30  and  O_31
REMARK                            x       y       z     vdW  Elec       q    Type
REMARK                         _______ _______ _______ _____ _____    ______ ____
ROOT
ATOM      1  O   UNL     1     -33.849  22.575   0.239  0.00  0.00    -0.277 OA
ATOM      2  N   UNL     1     -35.209  21.081   1.434  0.00  0.00    -0.286 N 
ATOM      3  C   UNL     1     -34.751  22.336   1.035  0.00  0.00    +0.205 C 
ATOM      4  H   UNL     1     -35.943  21.076   2.090  0.00  0.00    +0.155 HD
ENDROOT
BRANCH   2   5
ATOM      5  C   UNL     1     -34.743  19.816   1.006  0.00  0.00    +0.050 C 
ATOM      6  C   UNL     1     -33.832  17.339   0.166  0.00  0.00    +0.053 C 
ATOM      7  C   UNL     1     -35.466  19.116   0.053  0.00  0.00    +0.015 C 
ATOM      8  C   UNL     1     -33.577  19.304   1.547  0.00  0.00    +0.015 C 
ATOM      9  C   UNL     1     -35.007  17.869  -0.369  0.00  0.00    +0.006 C 
ATOM     10  C   UNL     1     -33.117  18.058   1.124  0.00  0.00    +0.006 C 
BRANCH   6  13
ATOM     11  O   UNL     1     -34.154  15.113  -0.499  0.00  0.00    -0.270 OA
ATOM     12  N   UNL     1     -31.971  15.898  -0.456  0.00  0.00    -0.291 N 
ATOM     13  C   UNL     1     -33.353  16.039  -0.276  0.00  0.00    +0.246 C 
ATOM     14  H   UNL     1     -31.396  16.672  -0.260  0.00  0.00    +0.150 HD
BRANCH  12  15
ATOM     15  C   UNL     1     -31.345  14.679  -0.911  0.00  0.00    +0.201 C 
BRANCH  15  17
ATOM     16  O   UNL     1     -29.260  14.379   0.255  0.00  0.00    -0.248 OA
ATOM     17  C   UNL     1     -30.436  14.064   0.123  0.00  0.00    +0.334 C 
BRANCH  17  18
ATOM     18  O   UNL     1     -31.044  13.127   0.888  0.00  0.00    -0.479 OA
ATOM     19  H   UNL     1     -30.832  13.057   1.799  0.00  0.00    +0.295 HD
ENDBRANCH  17  18
ENDBRANCH  15  17
ENDBRANCH  12  15
ENDBRANCH   6  13
ENDBRANCH   2   5
BRANCH   3  20
ATOM     20  C   UNL     1     -35.531  23.430   1.743  0.00  0.00    +0.012 C 
BRANCH  20  21
ATOM     21  N   UNL     1     -36.404  22.831   2.752  0.00  0.00    +0.407 N 
ATOM     22  H   UNL     1     -36.309  21.817   2.699  0.00  0.00    -0.077 HD
BRANCH  21  23
ATOM     23  C   UNL     1     -37.799  23.180   2.492  0.00  0.00    +0.036 C 
BRANCH  23  25
ATOM     24  O   UNL     1     -39.879  22.046   2.065  0.00  0.00    -0.253 OA
ATOM     25  C   UNL     1     -38.676  21.972   2.281  0.00  0.00    +0.293 C 
BRANCH  25  26
ATOM     26  O   UNL     1     -38.007  20.798   2.354  0.00  0.00    -0.482 OA
ATOM     27  H   UNL     1     -37.138  20.731   2.009  0.00  0.00    +0.295 HD
ENDBRANCH  25  26
ENDBRANCH  23  25
ENDBRANCH  21  23
BRANCH  21  28
ATOM     28  C   UNL     1     -36.008  23.265   4.092  0.00  0.00    +0.036 C 
BRANCH  28  30
ATOM     29  O   UNL     1     -35.858  22.229   6.259  0.00  0.00    -0.253 OA
ATOM     30  C   UNL     1     -35.792  22.115   5.041  0.00  0.00    +0.293 C 
BRANCH  30  31
ATOM     31  O   UNL     1     -35.516  20.946   4.420  0.00  0.00    -0.482 OA
ATOM     32  H   UNL     1     -35.795  20.136   4.800  0.00  0.00    +0.295 HD
ENDBRANCH  30  31
ENDBRANCH  28  30
ENDBRANCH  21  28
ENDBRANCH  20  21
ENDBRANCH   3  20
TORSDOF 13
ENDMDL
MODEL 7
REMARK VINA RESULT:      -5.6      5.902      9.337
REMARK  Name = 196312
REMARK  13 active torsions:
REMARK  status: ('A' for Active; 'I' for Inactive)
REMARK    1  A    between atoms: N_2  and  C_5
REMARK    2  A    between atoms: C_3  and  C_20
REMARK    3  A    between atoms: C_6  and  C_13
REMARK    4  A    between atoms: N_12  and  C_15
REMARK    5  A    between atoms: C_15  and  C_17
REMARK    6  A    between atoms: C_17  and  O_18
REMARK    7  A    between atoms: C_20  and  N_21
REMARK    8  A    between atoms: N_21  and  C_23
REMARK    9  A    between atoms: N_21  and  C_28
REMARK   10  A    between atoms: C_23  and  C_25
REMARK   11  A    between atoms: C_25  and  O_26
REMARK   12  A    between atoms: C_28  and  C_30
REMARK   13  A    between atoms: C_30  and  O_31
REMARK                            x       y       z     vdW  Elec       q    Type
REMARK                         _______ _______ _______ _____ _____    ______ ____
ROOT
ATOM      1  O   UNL     1     -35.676  22.923  -0.929  0.00  0.00    -0.277 OA
ATOM      2  N   UNL     1     -35.332  22.166   1.267  0.00  0.00    -0.286 N 
ATOM      3  C   UNL     1     -35.893  22.973   0.278  0.00  0.00    +0.205 C 
ATOM      4  H   UNL     1     -35.617  22.350   2.190  0.00  0.00    +0.155 HD
ENDROOT
BRANCH   2   5
ATOM      5  C   UNL     1     -34.401  21.114   1.097  0.00  0.00    +0.050 C 
ATOM      6  C   UNL     1     -32.577  19.057   0.766  0.00  0.00    +0.053 C 
ATOM      7  C   UNL     1     -33.294  21.314   0.289  0.00  0.00    +0.015 C 
ATOM      8  C   UNL     1     -34.615  19.909   1.743  0.00  0.00    +0.015 C 
ATOM      9  C   UNL     1     -32.376  20.278   0.122  0.00  0.00    +0.006 C 
ATOM     10  C   UNL     1     -33.697  18.873   1.576  0.00  0.00    +0.006 C 
BRANCH   6  13
ATOM     11  O   UNL     1     -30.748  17.761   1.455  0.00  0.00    -0.270 OA
ATOM     12  N   UNL     1     -31.743  17.196  -0.563  0.00  0.00    -0.291 N 
ATOM     13  C   UNL     1     -31.618  17.977   0.593  0.00  0.00    +0.246 C 
ATOM     14  H   UNL     1     -32.454  17.424  -1.203  0.00  0.00    +0.150 HD
BRANCH  12  15
ATOM     15  C   UNL     1     -30.882  16.076  -0.866  0.00  0.00    +0.201 C 
BRANCH  15  17
ATOM     16  O   UNL     1     -30.671  14.102   0.496  0.00  0.00    -0.248 OA
ATOM     17  C   UNL     1     -31.361  14.785  -0.250  0.00  0.00    +0.334 C 
BRANCH  17  18
ATOM     18  O   UNL     1     -32.624  14.452  -0.604  0.00  0.00    -0.479 OA
ATOM     19  H   UNL     1     -33.352  14.838  -0.159  0.00  0.00    +0.295 HD
ENDBRANCH  17  18
ENDBRANCH  15  17
ENDBRANCH  12  15
ENDBRANCH   6  13
ENDBRANCH   2   5
BRANCH   3  20
ATOM     20  C   UNL     1     -36.846  23.980   0.898  0.00  0.00    +0.012 C 
BRANCH  20  21
ATOM     21  N   UNL     1     -37.446  23.404   2.101  0.00  0.00    +0.407 N 
ATOM     22  H   UNL     1     -36.968  22.528   2.313  0.00  0.00    -0.077 HD
BRANCH  21  23
ATOM     23  C   UNL     1     -38.862  23.117   1.879  0.00  0.00    +0.036 C 
BRANCH  23  25
ATOM     24  O   UNL     1     -40.277  21.182   1.661  0.00  0.00    -0.253 OA
ATOM     25  C   UNL     1     -39.180  21.645   1.948  0.00  0.00    +0.293 C 
BRANCH  25  26
ATOM     26  O   UNL     1     -38.138  20.885   2.359  0.00  0.00    -0.482 OA
ATOM     27  H   UNL     1     -37.686  21.099   3.152  0.00  0.00    +0.295 HD
ENDBRANCH  25  26
ENDBRANCH  23  25
ENDBRANCH  21  23
BRANCH  21  28
ATOM     28  C   UNL     1     -37.279  24.310   3.238  0.00  0.00    +0.036 C 
BRANCH  28  30
ATOM     29  O   UNL     1     -36.222  24.280   5.400  0.00  0.00    -0.253 OA
ATOM     30  C   UNL     1     -36.590  23.660   4.410  0.00  0.00    +0.293 C 
BRANCH  30  31
ATOM     31  O   UNL     1     -36.414  22.327   4.263  0.00  0.00    -0.482 OA
ATOM     32  H   UNL     1     -36.607  21.747   4.973  0.00  0.00    +0.295 HD
ENDBRANCH  30  31
ENDBRANCH  28  30
ENDBRANCH  21  28
ENDBRANCH  20  21
ENDBRANCH   3  20
TORSDOF 13
ENDMDL
MODEL 8
REMARK VINA RESULT:      -5.6      5.922     10.800
REMARK  Name = 196312
REMARK  13 active torsions:
REMARK  status: ('A' for Active; 'I' for Inactive)
REMARK    1  A    between atoms: N_2  and  C_5
REMARK    2  A    between atoms: C_3  and  C_20
REMARK    3  A    between atoms: C_6  and  C_13
REMARK    4  A    between atoms: N_12  and  C_15
REMARK    5  A    between atoms: C_15  and  C_17
REMARK    6  A    between atoms: C_17  and  O_18
REMARK    7  A    between atoms: C_20  and  N_21
REMARK    8  A    between atoms: N_21  and  C_23
REMARK    9  A    between atoms: N_21  and  C_28
REMARK   10  A    between atoms: C_23  and  C_25
REMARK   11  A    between atoms: C_25  and  O_26
REMARK   12  A    between atoms: C_28  and  C_30
REMARK   13  A    between atoms: C_30  and  O_31
REMARK                            x       y       z     vdW  Elec       q    Type
REMARK                         _______ _______ _______ _____ _____    ______ ____
ROOT
ATOM      1  O   UNL     1     -33.888  22.621   0.512  0.00  0.00    -0.277 OA
ATOM      2  N   UNL     1     -35.385  21.076   1.450  0.00  0.00    -0.286 N 
ATOM      3  C   UNL     1     -34.881  22.347   1.178  0.00  0.00    +0.205 C 
ATOM      4  H   UNL     1     -36.194  21.041   2.009  0.00  0.00    +0.155 HD
ENDROOT
BRANCH   2   5
ATOM      5  C   UNL     1     -34.871  19.831   1.016  0.00  0.00    +0.050 C 
ATOM      6  C   UNL     1     -33.862  17.395   0.170  0.00  0.00    +0.053 C 
ATOM      7  C   UNL     1     -33.679  19.369   1.550  0.00  0.00    +0.015 C 
ATOM      8  C   UNL     1     -35.568  19.102   0.069  0.00  0.00    +0.015 C 
ATOM      9  C   UNL     1     -33.171  18.143   1.123  0.00  0.00    +0.006 C 
ATOM     10  C   UNL     1     -35.061  17.875  -0.357  0.00  0.00    +0.006 C 
BRANCH   6  13
ATOM     11  O   UNL     1     -32.375  15.588   0.319  0.00  0.00    -0.270 OA
ATOM     12  N   UNL     1     -33.964  15.511  -1.368  0.00  0.00    -0.291 N 
ATOM     13  C   UNL     1     -33.333  16.115  -0.274  0.00  0.00    +0.246 C 
ATOM     14  H   UNL     1     -34.717  15.985  -1.791  0.00  0.00    +0.150 HD
BRANCH  12  15
ATOM     15  C   UNL     1     -33.571  14.232  -1.912  0.00  0.00    +0.201 C 
BRANCH  15  17
ATOM     16  O   UNL     1     -35.694  13.179  -1.490  0.00  0.00    -0.248 OA
ATOM     17  C   UNL     1     -34.472  13.105  -1.473  0.00  0.00    +0.334 C 
BRANCH  17  18
ATOM     18  O   UNL     1     -33.801  12.007  -1.054  0.00  0.00    -0.479 OA
ATOM     19  H   UNL     1     -34.271  11.280  -0.696  0.00  0.00    +0.295 HD
ENDBRANCH  17  18
ENDBRANCH  15  17
ENDBRANCH  12  15
ENDBRANCH   6  13
ENDBRANCH   2   5
BRANCH   3  20
ATOM     20  C   UNL     1     -35.742  23.407   1.841  0.00  0.00    +0.012 C 
BRANCH  20  21
ATOM     21  N   UNL     1     -36.542  22.793   2.899  0.00  0.00    +0.407 N 
ATOM     22  H   UNL     1     -36.456  21.780   2.822  0.00  0.00    -0.077 HD
BRANCH  21  23
ATOM     23  C   UNL     1     -37.952  23.150   2.747  0.00  0.00    +0.036 C 
BRANCH  23  25
ATOM     24  O   UNL     1     -39.974  22.119   1.948  0.00  0.00    -0.253 OA
ATOM     25  C   UNL     1     -38.802  21.996   2.280  0.00  0.00    +0.293 C 
BRANCH  25  26
ATOM     26  O   UNL     1     -38.147  20.812   2.267  0.00  0.00    -0.482 OA
ATOM     27  H   UNL     1     -38.162  20.259   3.023  0.00  0.00    +0.295 HD
ENDBRANCH  25  26
ENDBRANCH  23  25
ENDBRANCH  21  23
BRANCH  21  28
ATOM     28  C   UNL     1     -36.050  23.202   4.215  0.00  0.00    +0.036 C 
BRANCH  28  30
ATOM     29  O   UNL     1     -35.859  22.090   6.341  0.00  0.00    -0.253 OA
ATOM     30  C   UNL     1     -35.759  22.034   5.121  0.00  0.00    +0.293 C 
BRANCH  30  31
ATOM     31  O   UNL     1     -35.374  20.919   4.460  0.00  0.00    -0.482 OA
ATOM     32  H   UNL     1     -34.750  20.978   3.763  0.00  0.00    +0.295 HD
ENDBRANCH  30  31
ENDBRANCH  28  30
ENDBRANCH  21  28
ENDBRANCH  20  21
ENDBRANCH   3  20
TORSDOF 13
ENDMDL
MODEL 9
REMARK VINA RESULT:      -5.6      2.027      8.997
REMARK  Name = 196312
REMARK  13 active torsions:
REMARK  status: ('A' for Active; 'I' for Inactive)
REMARK    1  A    between atoms: N_2  and  C_5
REMARK    2  A    between atoms: C_3  and  C_20
REMARK    3  A    between atoms: C_6  and  C_13
REMARK    4  A    between atoms: N_12  and  C_15
REMARK    5  A    between atoms: C_15  and  C_17
REMARK    6  A    between atoms: C_17  and  O_18
REMARK    7  A    between atoms: C_20  and  N_21
REMARK    8  A    between atoms: N_21  and  C_23
REMARK    9  A    between atoms: N_21  and  C_28
REMARK   10  A    between atoms: C_23  and  C_25
REMARK   11  A    between atoms: C_25  and  O_26
REMARK   12  A    between atoms: C_28  and  C_30
REMARK   13  A    between atoms: C_30  and  O_31
REMARK                            x       y       z     vdW  Elec       q    Type
REMARK                         _______ _______ _______ _____ _____    ______ ____
ROOT
ATOM      1  O   UNL     1     -31.631  30.931   4.122  0.00  0.00    -0.277 OA
ATOM      2  N   UNL     1     -30.728  29.060   5.214  0.00  0.00    -0.286 N 
ATOM      3  C   UNL     1     -30.703  30.341   4.666  0.00  0.00    +0.205 C 
ATOM      4  H   UNL     1     -29.885  28.740   5.609  0.00  0.00    +0.155 HD
ENDROOT
BRANCH   2   5
ATOM      5  C   UNL     1     -31.823  28.165   5.269  0.00  0.00    +0.050 C 
ATOM      6  C   UNL     1     -33.967  26.416   5.379  0.00  0.00    +0.053 C 
ATOM      7  C   UNL     1     -32.208  27.642   6.493  0.00  0.00    +0.015 C 
ATOM      8  C   UNL     1     -32.486  27.832   4.101  0.00  0.00    +0.015 C 
ATOM      9  C   UNL     1     -33.287  26.761   6.548  0.00  0.00    +0.006 C 
ATOM     10  C   UNL     1     -33.565  26.952   4.156  0.00  0.00    +0.006 C 
BRANCH   6  13
ATOM     11  O   UNL     1     -36.208  25.890   5.826  0.00  0.00    -0.270 OA
ATOM     12  N   UNL     1     -34.863  24.182   5.018  0.00  0.00    -0.291 N 
ATOM     13  C   UNL     1     -35.093  25.498   5.437  0.00  0.00    +0.246 C 
ATOM     14  H   UNL     1     -33.955  23.940   4.723  0.00  0.00    +0.150 HD
BRANCH  12  15
ATOM     15  C   UNL     1     -35.884  23.160   4.996  0.00  0.00    +0.201 C 
BRANCH  15  17
ATOM     16  O   UNL     1     -34.804  21.457   6.311  0.00  0.00    -0.248 OA
ATOM     17  C   UNL     1     -35.338  21.779   5.257  0.00  0.00    +0.334 C 
BRANCH  17  18
ATOM     18  O   UNL     1     -35.492  20.930   4.214  0.00  0.00    -0.479 OA
ATOM     19  H   UNL     1     -35.577  20.010   4.368  0.00  0.00    +0.295 HD
ENDBRANCH  17  18
ENDBRANCH  15  17
ENDBRANCH  12  15
ENDBRANCH   6  13
ENDBRANCH   2   5
BRANCH   3  20
ATOM     20  C   UNL     1     -29.321  30.953   4.820  0.00  0.00    +0.012 C 
BRANCH  20  21
ATOM     21  N   UNL     1     -28.427  29.982   5.451  0.00  0.00    +0.407 N 
ATOM     22  H   UNL     1     -28.980  29.176   5.742  0.00  0.00    -0.077 HD
BRANCH  21  23
ATOM     23  C   UNL     1     -27.796  30.562   6.635  0.00  0.00    +0.036 C 
BRANCH  23  25
ATOM     24  O   UNL     1     -27.684  30.126   8.999  0.00  0.00    -0.253 OA
ATOM     25  C   UNL     1     -28.144  29.827   7.905  0.00  0.00    +0.293 C 
BRANCH  25  26
ATOM     26  O   UNL     1     -29.012  28.806   7.718  0.00  0.00    -0.482 OA
ATOM     27  H   UNL     1     -28.705  27.985   7.384  0.00  0.00    +0.295 HD
ENDBRANCH  25  26
ENDBRANCH  23  25
ENDBRANCH  21  23
BRANCH  21  28
ATOM     28  C   UNL     1     -27.412  29.530   4.499  0.00  0.00    +0.036 C 
BRANCH  28  30
ATOM     29  O   UNL     1     -26.945  27.524   3.254  0.00  0.00    -0.253 OA
ATOM     30  C   UNL     1     -27.493  28.053   4.213  0.00  0.00    +0.293 C 
BRANCH  30  31
ATOM     31  O   UNL     1     -28.229  27.366   5.116  0.00  0.00    -0.482 OA
ATOM     32  H   UNL     1     -29.121  27.606   5.274  0.00  0.00    +0.295 HD
ENDBRANCH  30  31
ENDBRANCH  28  30
ENDBRANCH  21  28
ENDBRANCH  20  21
ENDBRANCH   3  20
TORSDOF 13
ENDMDL
