MODEL 1
REMARK VINA RESULT:      -6.3      0.000      0.000
REMARK  Name = 194940
REMARK  9 active torsions:
REMARK  status: ('A' for Active; 'I' for Inactive)
REMARK    1  A    between atoms: S_1  and  C_4
REMARK    2  A    between atoms: S_1  and  N_17
REMARK    3  A    between atoms: C_7  and  N_14
REMARK    4  A    between atoms: N_17  and  C_19
REMARK    5  A    between atoms: C_19  and  C_21
REMARK    6  A    between atoms: C_19  and  C_24
REMARK    7  A    between atoms: C_21  and  O_22
REMARK    8  A    between atoms: C_24  and  C_25
REMARK    9  A    between atoms: C_25  and  O_26
REMARK                            x       y       z     vdW  Elec       q    Type
REMARK                         _______ _______ _______ _____ _____    ______ ____
ROOT
ATOM      1  S   UNL     1     -35.974  25.286   4.195  0.00  0.00    +0.061 S 
ATOM      2  O   UNL     1     -36.374  25.522   5.573  0.00  0.00    -0.153 OA
ATOM      3  O   UNL     1     -36.975  25.293   3.141  0.00  0.00    -0.153 OA
ENDROOT
BRANCH   1   4
ATOM      4  C   UNL     1     -34.750  26.471   3.764  0.00  0.00    +0.122 C 
ATOM      5  C   UNL     1     -33.800  26.951   4.681  0.00  0.00    +0.020 C 
ATOM      6  C   UNL     1     -32.848  27.907   4.254  0.00  0.00    +0.015 C 
ATOM      7  C   UNL     1     -31.898  28.386   5.170  0.00  0.00    +0.048 C 
ATOM      8  C   UNL     1     -34.761  26.929   2.446  0.00  0.00    +0.020 C 
ATOM      9  C   UNL     1     -33.773  26.502   6.011  0.00  0.00    +0.001 C 
ATOM     10  C   UNL     1     -32.874  28.355   2.924  0.00  0.00    +0.001 C 
ATOM     11  C   UNL     1     -33.825  27.869   2.027  0.00  0.00    +0.001 C 
ATOM     12  C   UNL     1     -31.886  27.930   6.489  0.00  0.00    +0.015 C 
ATOM     13  C   UNL     1     -32.822  26.988   6.908  0.00  0.00    +0.001 C 
BRANCH   7  14
ATOM     14  N   UNL     1     -30.924  29.344   4.797  0.00  0.00    -0.304 N 
ATOM     15  C   UNL     1     -31.189  30.756   4.967  0.00  0.00    +0.112 C 
ATOM     16  C   UNL     1     -29.652  28.917   4.257  0.00  0.00    +0.112 C 
ENDBRANCH   7  14
ENDBRANCH   1   4
BRANCH   1  17
ATOM     17  N   UNL     1     -35.098  23.823   4.115  0.00  0.00    -0.170 NA
ATOM     18  H   UNL     1     -34.481  23.806   4.928  0.00  0.00    +0.149 HD
BRANCH  17  19
ATOM     19  C   UNL     1     -35.810  22.538   4.096  0.00  0.00    +0.176 C 
BRANCH  19  21
ATOM     20  O   UNL     1     -35.841  22.344   6.521  0.00  0.00    -0.249 OA
ATOM     21  C   UNL     1     -35.583  21.860   5.426  0.00  0.00    +0.330 C 
BRANCH  21  22
ATOM     22  O   UNL     1     -35.049  20.619   5.280  0.00  0.00    -0.479 OA
ATOM     23  H   UNL     1     -34.239  20.405   5.701  0.00  0.00    +0.295 HD
ENDBRANCH  21  22
ENDBRANCH  19  21
BRANCH  19  24
ATOM     24  C   UNL     1     -35.359  21.696   2.904  0.00  0.00    +0.061 C 
BRANCH  24  25
ATOM     25  C   UNL     1     -36.488  21.018   2.133  0.00  0.00    +0.139 C 
BRANCH  25  26
ATOM     26  O   UNL     1     -36.784  19.774   2.759  0.00  0.00    -0.382 OA
ATOM     27  H   UNL     1     -37.136  19.156   2.100  0.00  0.00    +0.210 HD
ENDBRANCH  25  26
ENDBRANCH  24  25
ENDBRANCH  19  24
ENDBRANCH  17  19
ENDBRANCH   1  17
TORSDOF 9
ENDMDL
MODEL 2
REMARK VINA RESULT:      -6.2      4.542      7.482
REMARK  Name = 194940
REMARK  9 active torsions:
REMARK  status: ('A' for Active; 'I' for Inactive)
REMARK    1  A    between atoms: S_1  and  C_4
REMARK    2  A    between atoms: S_1  and  N_17
REMARK    3  A    between atoms: C_7  and  N_14
REMARK    4  A    between atoms: N_17  and  C_19
REMARK    5  A    between atoms: C_19  and  C_21
REMARK    6  A    between atoms: C_19  and  C_24
REMARK    7  A    between atoms: C_21  and  O_22
REMARK    8  A    between atoms: C_24  and  C_25
REMARK    9  A    between atoms: C_25  and  O_26
REMARK                            x       y       z     vdW  Elec       q    Type
REMARK                         _______ _______ _______ _____ _____    ______ ____
ROOT
ATOM      1  S   UNL     1     -35.475  21.347   1.969  0.00  0.00    +0.061 S 
ATOM      2  O   UNL     1     -36.649  21.499   1.124  0.00  0.00    -0.153 OA
ATOM      3  O   UNL     1     -35.354  20.187   2.836  0.00  0.00    -0.153 OA
ENDROOT
BRANCH   1   4
ATOM      4  C   UNL     1     -34.048  21.386   0.943  0.00  0.00    +0.122 C 
ATOM      5  C   UNL     1     -33.184  20.287   0.799  0.00  0.00    +0.020 C 
ATOM      6  C   UNL     1     -32.055  20.401  -0.046  0.00  0.00    +0.015 C 
ATOM      7  C   UNL     1     -31.192  19.303  -0.191  0.00  0.00    +0.048 C 
ATOM      8  C   UNL     1     -33.801  22.579   0.263  0.00  0.00    +0.020 C 
ATOM      9  C   UNL     1     -33.417  19.078   1.475  0.00  0.00    +0.001 C 
ATOM     10  C   UNL     1     -31.823  21.609  -0.724  0.00  0.00    +0.001 C 
ATOM     11  C   UNL     1     -32.691  22.690  -0.569  0.00  0.00    +0.001 C 
ATOM     12  C   UNL     1     -31.438  18.109   0.489  0.00  0.00    +0.015 C 
ATOM     13  C   UNL     1     -32.549  17.997   1.320  0.00  0.00    +0.001 C 
BRANCH   7  14
ATOM     14  N   UNL     1     -30.048  19.363  -1.023  0.00  0.00    -0.304 N 
ATOM     15  C   UNL     1     -30.142  18.992  -2.418  0.00  0.00    +0.112 C 
ATOM     16  C   UNL     1     -28.781  19.809  -0.488  0.00  0.00    +0.112 C 
ENDBRANCH   7  14
ENDBRANCH   1   4
BRANCH   1  17
ATOM     17  N   UNL     1     -35.280  22.760   2.905  0.00  0.00    -0.170 NA
ATOM     18  H   UNL     1     -35.341  23.550   2.262  0.00  0.00    +0.149 HD
BRANCH  17  19
ATOM     19  C   UNL     1     -36.204  23.043   4.013  0.00  0.00    +0.176 C 
BRANCH  19  21
ATOM     20  O   UNL     1     -37.417  24.499   2.487  0.00  0.00    -0.249 OA
ATOM     21  C   UNL     1     -37.045  24.235   3.623  0.00  0.00    +0.330 C 
BRANCH  21  22
ATOM     22  O   UNL     1     -37.361  25.008   4.695  0.00  0.00    -0.479 OA
ATOM     23  H   UNL     1     -38.245  25.290   4.826  0.00  0.00    +0.295 HD
ENDBRANCH  21  22
ENDBRANCH  19  21
BRANCH  19  24
ATOM     24  C   UNL     1     -35.430  23.250   5.314  0.00  0.00    +0.061 C 
BRANCH  24  25
ATOM     25  C   UNL     1     -35.507  22.086   6.298  0.00  0.00    +0.139 C 
BRANCH  25  26
ATOM     26  O   UNL     1     -35.194  20.883   5.606  0.00  0.00    -0.382 OA
ATOM     27  H   UNL     1     -34.232  20.796   5.526  0.00  0.00    +0.210 HD
ENDBRANCH  25  26
ENDBRANCH  24  25
ENDBRANCH  19  24
ENDBRANCH  17  19
ENDBRANCH   1  17
TORSDOF 9
ENDMDL
MODEL 3
REMARK VINA RESULT:      -6.2      3.726      8.422
REMARK  Name = 194940
REMARK  9 active torsions:
REMARK  status: ('A' for Active; 'I' for Inactive)
REMARK    1  A    between atoms: S_1  and  C_4
REMARK    2  A    between atoms: S_1  and  N_17
REMARK    3  A    between atoms: C_7  and  N_14
REMARK    4  A    between atoms: N_17  and  C_19
REMARK    5  A    between atoms: C_19  and  C_21
REMARK    6  A    between atoms: C_19  and  C_24
REMARK    7  A    between atoms: C_21  and  O_22
REMARK    8  A    between atoms: C_24  and  C_25
REMARK    9  A    between atoms: C_25  and  O_26
REMARK                            x       y       z     vdW  Elec       q    Type
REMARK                         _______ _______ _______ _____ _____    ______ ____
ROOT
ATOM      1  S   UNL     1     -37.046  23.548   2.453  0.00  0.00    +0.061 S 
ATOM      2  O   UNL     1     -37.098  24.475   1.333  0.00  0.00    -0.153 OA
ATOM      3  O   UNL     1     -38.229  23.338   3.271  0.00  0.00    -0.153 OA
ENDROOT
BRANCH   1   4
ATOM      4  C   UNL     1     -36.541  21.978   1.847  0.00  0.00    +0.122 C 
ATOM      5  C   UNL     1     -37.339  21.201   0.991  0.00  0.00    +0.020 C 
ATOM      6  C   UNL     1     -36.859  19.945   0.549  0.00  0.00    +0.015 C 
ATOM      7  C   UNL     1     -37.656  19.168  -0.308  0.00  0.00    +0.048 C 
ATOM      8  C   UNL     1     -35.289  21.523   2.261  0.00  0.00    +0.020 C 
ATOM      9  C   UNL     1     -38.602  21.642   0.564  0.00  0.00    +0.001 C 
ATOM     10  C   UNL     1     -35.595  19.504   0.974  0.00  0.00    +0.001 C 
ATOM     11  C   UNL     1     -34.817  20.289   1.825  0.00  0.00    +0.001 C 
ATOM     12  C   UNL     1     -38.908  19.622  -0.722  0.00  0.00    +0.015 C 
ATOM     13  C   UNL     1     -39.380  20.857  -0.287  0.00  0.00    +0.001 C 
BRANCH   7  14
ATOM     14  N   UNL     1     -37.224  17.904  -0.780  0.00  0.00    -0.304 N 
ATOM     15  C   UNL     1     -37.619  16.697  -0.089  0.00  0.00    +0.112 C 
ATOM     16  C   UNL     1     -36.399  17.812  -1.964  0.00  0.00    +0.112 C 
ENDBRANCH   7  14
ENDBRANCH   1   4
BRANCH   1  17
ATOM     17  N   UNL     1     -35.742  23.977   3.466  0.00  0.00    -0.170 NA
ATOM     18  H   UNL     1     -35.396  24.878   3.135  0.00  0.00    +0.149 HD
BRANCH  17  19
ATOM     19  C   UNL     1     -35.946  24.109   4.916  0.00  0.00    +0.176 C 
BRANCH  19  21
ATOM     20  O   UNL     1     -34.906  26.115   5.817  0.00  0.00    -0.249 OA
ATOM     21  C   UNL     1     -35.858  25.575   5.267  0.00  0.00    +0.330 C 
BRANCH  21  22
ATOM     22  O   UNL     1     -36.974  26.255   4.897  0.00  0.00    -0.479 OA
ATOM     23  H   UNL     1     -37.743  26.220   5.431  0.00  0.00    +0.295 HD
ENDBRANCH  21  22
ENDBRANCH  19  21
BRANCH  19  24
ATOM     24  C   UNL     1     -34.942  23.244   5.677  0.00  0.00    +0.061 C 
BRANCH  24  25
ATOM     25  C   UNL     1     -35.552  22.057   6.419  0.00  0.00    +0.139 C 
BRANCH  25  26
ATOM     26  O   UNL     1     -35.262  20.868   5.692  0.00  0.00    -0.382 OA
ATOM     27  H   UNL     1     -35.437  21.014   4.750  0.00  0.00    +0.210 HD
ENDBRANCH  25  26
ENDBRANCH  24  25
ENDBRANCH  19  24
ENDBRANCH  17  19
ENDBRANCH   1  17
TORSDOF 9
ENDMDL
MODEL 4
REMARK VINA RESULT:      -6.1      2.948      7.263
REMARK  Name = 194940
REMARK  9 active torsions:
REMARK  status: ('A' for Active; 'I' for Inactive)
REMARK    1  A    between atoms: S_1  and  C_4
REMARK    2  A    between atoms: S_1  and  N_17
REMARK    3  A    between atoms: C_7  and  N_14
REMARK    4  A    between atoms: N_17  and  C_19
REMARK    5  A    between atoms: C_19  and  C_21
REMARK    6  A    between atoms: C_19  and  C_24
REMARK    7  A    between atoms: C_21  and  O_22
REMARK    8  A    between atoms: C_24  and  C_25
REMARK    9  A    between atoms: C_25  and  O_26
REMARK                            x       y       z     vdW  Elec       q    Type
REMARK                         _______ _______ _______ _____ _____    ______ ____
ROOT
ATOM      1  S   UNL     1     -34.375  26.191   4.915  0.00  0.00    +0.061 S 
ATOM      2  O   UNL     1     -35.325  27.027   4.199  0.00  0.00    -0.153 OA
ATOM      3  O   UNL     1     -34.223  26.339   6.353  0.00  0.00    -0.153 OA
ENDROOT
BRANCH   1   4
ATOM      4  C   UNL     1     -34.773  24.508   4.601  0.00  0.00    +0.122 C 
ATOM      5  C   UNL     1     -34.791  23.960   3.307  0.00  0.00    +0.020 C 
ATOM      6  C   UNL     1     -35.124  22.595   3.139  0.00  0.00    +0.015 C 
ATOM      7  C   UNL     1     -35.141  22.046   1.846  0.00  0.00    +0.048 C 
ATOM      8  C   UNL     1     -35.080  23.721   5.711  0.00  0.00    +0.020 C 
ATOM      9  C   UNL     1     -34.485  24.736   2.178  0.00  0.00    +0.001 C 
ATOM     10  C   UNL     1     -35.429  21.818   4.268  0.00  0.00    +0.001 C 
ATOM     11  C   UNL     1     -35.407  22.379   5.545  0.00  0.00    +0.001 C 
ATOM     12  C   UNL     1     -34.835  22.832   0.735  0.00  0.00    +0.015 C 
ATOM     13  C   UNL     1     -34.506  24.175   0.901  0.00  0.00    +0.001 C 
BRANCH   7  14
ATOM     14  N   UNL     1     -35.468  20.687   1.621  0.00  0.00    -0.304 N 
ATOM     15  C   UNL     1     -36.845  20.295   1.416  0.00  0.00    +0.112 C 
ATOM     16  C   UNL     1     -34.427  19.684   1.580  0.00  0.00    +0.112 C 
ENDBRANCH   7  14
ENDBRANCH   1   4
BRANCH   1  17
ATOM     17  N   UNL     1     -32.842  26.338   4.179  0.00  0.00    -0.170 NA
ATOM     18  H   UNL     1     -32.796  25.625   3.451  0.00  0.00    +0.149 HD
BRANCH  17  19
ATOM     19  C   UNL     1     -32.444  27.608   3.555  0.00  0.00    +0.176 C 
BRANCH  19  21
ATOM     20  O   UNL     1     -30.642  28.179   2.023  0.00  0.00    -0.249 OA
ATOM     21  C   UNL     1     -31.264  27.333   2.653  0.00  0.00    +0.330 C 
BRANCH  21  22
ATOM     22  O   UNL     1     -30.951  26.012   2.613  0.00  0.00    -0.479 OA
ATOM     23  H   UNL     1     -30.392  25.642   3.269  0.00  0.00    +0.295 HD
ENDBRANCH  21  22
ENDBRANCH  19  21
BRANCH  19  24
ATOM     24  C   UNL     1     -32.155  28.661   4.624  0.00  0.00    +0.061 C 
BRANCH  24  25
ATOM     25  C   UNL     1     -30.986  28.331   5.548  0.00  0.00    +0.139 C 
BRANCH  25  26
ATOM     26  O   UNL     1     -31.468  27.538   6.627  0.00  0.00    -0.382 OA
ATOM     27  H   UNL     1     -30.979  27.757   7.434  0.00  0.00    +0.210 HD
ENDBRANCH  25  26
ENDBRANCH  24  25
ENDBRANCH  19  24
ENDBRANCH  17  19
ENDBRANCH   1  17
TORSDOF 9
ENDMDL
MODEL 5
REMARK VINA RESULT:      -6.1      4.526      7.262
REMARK  Name = 194940
REMARK  9 active torsions:
REMARK  status: ('A' for Active; 'I' for Inactive)
REMARK    1  A    between atoms: S_1  and  C_4
REMARK    2  A    between atoms: S_1  and  N_17
REMARK    3  A    between atoms: C_7  and  N_14
REMARK    4  A    between atoms: N_17  and  C_19
REMARK    5  A    between atoms: C_19  and  C_21
REMARK    6  A    between atoms: C_19  and  C_24
REMARK    7  A    between atoms: C_21  and  O_22
REMARK    8  A    between atoms: C_24  and  C_25
REMARK    9  A    between atoms: C_25  and  O_26
REMARK                            x       y       z     vdW  Elec       q    Type
REMARK                         _______ _______ _______ _____ _____    ______ ____
ROOT
ATOM      1  S   UNL     1     -35.615  21.113   1.817  0.00  0.00    +0.061 S 
ATOM      2  O   UNL     1     -36.382  21.634   0.696  0.00  0.00    -0.153 OA
ATOM      3  O   UNL     1     -36.190  20.089   2.672  0.00  0.00    -0.153 OA
ENDROOT
BRANCH   1   4
ATOM      4  C   UNL     1     -34.093  20.488   1.201  0.00  0.00    +0.122 C 
ATOM      5  C   UNL     1     -33.253  21.230   0.353  0.00  0.00    +0.020 C 
ATOM      6  C   UNL     1     -32.043  20.652  -0.101  0.00  0.00    +0.015 C 
ATOM      7  C   UNL     1     -31.203  21.394  -0.947  0.00  0.00    +0.048 C 
ATOM      8  C   UNL     1     -33.744  19.195   1.594  0.00  0.00    +0.020 C 
ATOM      9  C   UNL     1     -33.587  22.532  -0.053  0.00  0.00    +0.001 C 
ATOM     10  C   UNL     1     -31.708  19.351   0.307  0.00  0.00    +0.001 C 
ATOM     11  C   UNL     1     -32.554  18.628   1.148  0.00  0.00    +0.001 C 
ATOM     12  C   UNL     1     -31.551  22.686  -1.341  0.00  0.00    +0.015 C 
ATOM     13  C   UNL     1     -32.741  23.255  -0.894  0.00  0.00    +0.001 C 
BRANCH   7  14
ATOM     14  N   UNL     1     -29.982  20.864  -1.431  0.00  0.00    -0.304 N 
ATOM     15  C   UNL     1     -29.971  20.017  -2.603  0.00  0.00    +0.112 C 
ATOM     16  C   UNL     1     -28.737  21.178  -0.766  0.00  0.00    +0.112 C 
ENDBRANCH   7  14
ENDBRANCH   1   4
BRANCH   1  17
ATOM     17  N   UNL     1     -35.098  22.419   2.787  0.00  0.00    -0.170 NA
ATOM     18  H   UNL     1     -34.983  23.220   2.165  0.00  0.00    +0.149 HD
BRANCH  17  19
ATOM     19  C   UNL     1     -35.926  22.872   3.914  0.00  0.00    +0.176 C 
BRANCH  19  21
ATOM     20  O   UNL     1     -36.517  24.684   2.401  0.00  0.00    -0.249 OA
ATOM     21  C   UNL     1     -36.621  24.147   3.497  0.00  0.00    +0.330 C 
BRANCH  21  22
ATOM     22  O   UNL     1     -37.398  24.651   4.490  0.00  0.00    -0.479 OA
ATOM     23  H   UNL     1     -38.269  24.942   4.302  0.00  0.00    +0.295 HD
ENDBRANCH  21  22
ENDBRANCH  19  21
BRANCH  19  24
ATOM     24  C   UNL     1     -35.073  23.033   5.171  0.00  0.00    +0.061 C 
BRANCH  24  25
ATOM     25  C   UNL     1     -35.163  21.874   6.160  0.00  0.00    +0.139 C 
BRANCH  25  26
ATOM     26  O   UNL     1     -35.186  20.653   5.428  0.00  0.00    -0.382 OA
ATOM     27  H   UNL     1     -34.494  20.062   5.763  0.00  0.00    +0.210 HD
ENDBRANCH  25  26
ENDBRANCH  24  25
ENDBRANCH  19  24
ENDBRANCH  17  19
ENDBRANCH   1  17
TORSDOF 9
ENDMDL
MODEL 6
REMARK VINA RESULT:      -6.0      1.478      2.412
REMARK  Name = 194940
REMARK  9 active torsions:
REMARK  status: ('A' for Active; 'I' for Inactive)
REMARK    1  A    between atoms: S_1  and  C_4
REMARK    2  A    between atoms: S_1  and  N_17
REMARK    3  A    between atoms: C_7  and  N_14
REMARK    4  A    between atoms: N_17  and  C_19
REMARK    5  A    between atoms: C_19  and  C_21
REMARK    6  A    between atoms: C_19  and  C_24
REMARK    7  A    between atoms: C_21  and  O_22
REMARK    8  A    between atoms: C_24  and  C_25
REMARK    9  A    between atoms: C_25  and  O_26
REMARK                            x       y       z     vdW  Elec       q    Type
REMARK                         _______ _______ _______ _____ _____    ______ ____
ROOT
ATOM      1  S   UNL     1     -35.526  24.352   4.496  0.00  0.00    +0.061 S 
ATOM      2  O   UNL     1     -34.641  23.344   5.058  0.00  0.00    -0.153 OA
ATOM      3  O   UNL     1     -36.583  24.922   5.314  0.00  0.00    -0.153 OA
ENDROOT
BRANCH   1   4
ATOM      4  C   UNL     1     -34.541  25.684   3.908  0.00  0.00    +0.122 C 
ATOM      5  C   UNL     1     -33.744  26.472   4.755  0.00  0.00    +0.020 C 
ATOM      6  C   UNL     1     -32.982  27.528   4.202  0.00  0.00    +0.015 C 
ATOM      7  C   UNL     1     -32.184  28.316   5.049  0.00  0.00    +0.048 C 
ATOM      8  C   UNL     1     -34.584  25.934   2.536  0.00  0.00    +0.020 C 
ATOM      9  C   UNL     1     -33.688  26.235   6.138  0.00  0.00    +0.001 C 
ATOM     10  C   UNL     1     -33.036  27.764   2.819  0.00  0.00    +0.001 C 
ATOM     11  C   UNL     1     -33.834  26.972   1.993  0.00  0.00    +0.001 C 
ATOM     12  C   UNL     1     -32.140  28.067   6.421  0.00  0.00    +0.015 C 
ATOM     13  C   UNL     1     -32.891  27.028   6.964  0.00  0.00    +0.001 C 
BRANCH   7  14
ATOM     14  N   UNL     1     -31.402  29.385   4.548  0.00  0.00    -0.304 N 
ATOM     15  C   UNL     1     -30.025  29.163   4.166  0.00  0.00    +0.112 C 
ATOM     16  C   UNL     1     -31.979  30.703   4.401  0.00  0.00    +0.112 C 
ENDBRANCH   7  14
ENDBRANCH   1   4
BRANCH   1  17
ATOM     17  N   UNL     1     -36.207  23.748   3.052  0.00  0.00    -0.170 NA
ATOM     18  H   UNL     1     -35.435  23.390   2.490  0.00  0.00    +0.149 HD
BRANCH  17  19
ATOM     19  C   UNL     1     -37.221  22.685   3.105  0.00  0.00    +0.176 C 
BRANCH  19  21
ATOM     20  O   UNL     1     -36.762  20.926   1.488  0.00  0.00    -0.249 OA
ATOM     21  C   UNL     1     -36.587  21.412   2.599  0.00  0.00    +0.330 C 
BRANCH  21  22
ATOM     22  O   UNL     1     -35.774  20.843   3.527  0.00  0.00    -0.479 OA
ATOM     23  H   UNL     1     -35.504  21.335   4.278  0.00  0.00    +0.295 HD
ENDBRANCH  21  22
ENDBRANCH  19  21
BRANCH  19  24
ATOM     24  C   UNL     1     -38.465  23.095   2.317  0.00  0.00    +0.061 C 
BRANCH  24  25
ATOM     25  C   UNL     1     -38.901  24.544   2.517  0.00  0.00    +0.139 C 
BRANCH  25  26
ATOM     26  O   UNL     1     -39.103  24.771   3.907  0.00  0.00    -0.382 OA
ATOM     27  H   UNL     1     -38.253  24.722   4.370  0.00  0.00    +0.210 HD
ENDBRANCH  25  26
ENDBRANCH  24  25
ENDBRANCH  19  24
ENDBRANCH  17  19
ENDBRANCH   1  17
TORSDOF 9
ENDMDL
MODEL 7
REMARK VINA RESULT:      -6.0      3.411      6.958
REMARK  Name = 194940
REMARK  9 active torsions:
REMARK  status: ('A' for Active; 'I' for Inactive)
REMARK    1  A    between atoms: S_1  and  C_4
REMARK    2  A    between atoms: S_1  and  N_17
REMARK    3  A    between atoms: C_7  and  N_14
REMARK    4  A    between atoms: N_17  and  C_19
REMARK    5  A    between atoms: C_19  and  C_21
REMARK    6  A    between atoms: C_19  and  C_24
REMARK    7  A    between atoms: C_21  and  O_22
REMARK    8  A    between atoms: C_24  and  C_25
REMARK    9  A    between atoms: C_25  and  O_26
REMARK                            x       y       z     vdW  Elec       q    Type
REMARK                         _______ _______ _______ _____ _____    ______ ____
ROOT
ATOM      1  S   UNL     1     -33.782  26.633   4.571  0.00  0.00    +0.061 S 
ATOM      2  O   UNL     1     -33.697  26.946   5.989  0.00  0.00    -0.153 OA
ATOM      3  O   UNL     1     -32.586  26.686   3.747  0.00  0.00    -0.153 OA
ENDROOT
BRANCH   1   4
ATOM      4  C   UNL     1     -34.464  25.022   4.402  0.00  0.00    +0.122 C 
ATOM      5  C   UNL     1     -34.538  24.353   3.169  0.00  0.00    +0.020 C 
ATOM      6  C   UNL     1     -35.104  23.057   3.118  0.00  0.00    +0.015 C 
ATOM      7  C   UNL     1     -35.177  22.387   1.885  0.00  0.00    +0.048 C 
ATOM      8  C   UNL     1     -34.941  24.421   5.567  0.00  0.00    +0.020 C 
ATOM      9  C   UNL     1     -34.062  24.942   1.985  0.00  0.00    +0.001 C 
ATOM     10  C   UNL     1     -35.578  22.467   4.301  0.00  0.00    +0.001 C 
ATOM     11  C   UNL     1     -35.497  23.146   5.516  0.00  0.00    +0.001 C 
ATOM     12  C   UNL     1     -34.700  22.987   0.719  0.00  0.00    +0.015 C 
ATOM     13  C   UNL     1     -34.143  24.262   0.770  0.00  0.00    +0.001 C 
BRANCH   7  14
ATOM     14  N   UNL     1     -35.734  21.090   1.778  0.00  0.00    -0.304 N 
ATOM     15  C   UNL     1     -37.164  20.921   1.638  0.00  0.00    +0.112 C 
ATOM     16  C   UNL     1     -34.876  19.925   1.791  0.00  0.00    +0.112 C 
ENDBRANCH   7  14
ENDBRANCH   1   4
BRANCH   1  17
ATOM     17  N   UNL     1     -34.988  27.608   3.859  0.00  0.00    -0.170 NA
ATOM     18  H   UNL     1     -35.339  28.224   4.594  0.00  0.00    +0.149 HD
BRANCH  17  19
ATOM     19  C   UNL     1     -34.661  28.463   2.709  0.00  0.00    +0.176 C 
BRANCH  19  21
ATOM     20  O   UNL     1     -34.738  30.705   3.649  0.00  0.00    -0.249 OA
ATOM     21  C   UNL     1     -34.085  29.754   3.239  0.00  0.00    +0.330 C 
BRANCH  21  22
ATOM     22  O   UNL     1     -32.727  29.753   3.216  0.00  0.00    -0.479 OA
ATOM     23  H   UNL     1     -32.257  30.564   3.203  0.00  0.00    +0.295 HD
ENDBRANCH  21  22
ENDBRANCH  19  21
BRANCH  19  24
ATOM     24  C   UNL     1     -35.894  28.668   1.830  0.00  0.00    +0.061 C 
BRANCH  24  25
ATOM     25  C   UNL     1     -36.639  27.388   1.461  0.00  0.00    +0.139 C 
BRANCH  25  26
ATOM     26  O   UNL     1     -37.439  26.991   2.569  0.00  0.00    -0.382 OA
ATOM     27  H   UNL     1     -37.566  26.030   2.549  0.00  0.00    +0.210 HD
ENDBRANCH  25  26
ENDBRANCH  24  25
ENDBRANCH  19  24
ENDBRANCH  17  19
ENDBRANCH   1  17
TORSDOF 9
ENDMDL
MODEL 8
REMARK VINA RESULT:      -5.8      4.590      7.610
REMARK  Name = 194940
REMARK  9 active torsions:
REMARK  status: ('A' for Active; 'I' for Inactive)
REMARK    1  A    between atoms: S_1  and  C_4
REMARK    2  A    between atoms: S_1  and  N_17
REMARK    3  A    between atoms: C_7  and  N_14
REMARK    4  A    between atoms: N_17  and  C_19
REMARK    5  A    between atoms: C_19  and  C_21
REMARK    6  A    between atoms: C_19  and  C_24
REMARK    7  A    between atoms: C_21  and  O_22
REMARK    8  A    between atoms: C_24  and  C_25
REMARK    9  A    between atoms: C_25  and  O_26
REMARK                            x       y       z     vdW  Elec       q    Type
REMARK                         _______ _______ _______ _____ _____    ______ ____
ROOT
ATOM      1  S   UNL     1     -35.619  20.707   1.967  0.00  0.00    +0.061 S 
ATOM      2  O   UNL     1     -36.398  19.651   1.339  0.00  0.00    -0.153 OA
ATOM      3  O   UNL     1     -35.173  20.556   3.342  0.00  0.00    -0.153 OA
ENDROOT
BRANCH   1   4
ATOM      4  C   UNL     1     -34.193  21.001   0.982  0.00  0.00    +0.122 C 
ATOM      5  C   UNL     1     -33.181  20.043   0.804  0.00  0.00    +0.020 C 
ATOM      6  C   UNL     1     -32.064  20.359  -0.004  0.00  0.00    +0.015 C 
ATOM      7  C   UNL     1     -31.052  19.401  -0.182  0.00  0.00    +0.048 C 
ATOM      8  C   UNL     1     -34.103  22.252   0.372  0.00  0.00    +0.020 C 
ATOM      9  C   UNL     1     -33.254  18.778   1.411  0.00  0.00    +0.001 C 
ATOM     10  C   UNL     1     -31.991  21.622  -0.612  0.00  0.00    +0.001 C 
ATOM     11  C   UNL     1     -33.004  22.562  -0.424  0.00  0.00    +0.001 C 
ATOM     12  C   UNL     1     -31.141  18.149   0.428  0.00  0.00    +0.015 C 
ATOM     13  C   UNL     1     -32.241  17.838   1.223  0.00  0.00    +0.001 C 
BRANCH   7  14
ATOM     14  N   UNL     1     -29.912  19.665  -0.980  0.00  0.00    -0.304 N 
ATOM     15  C   UNL     1     -28.720  20.225  -0.382  0.00  0.00    +0.112 C 
ATOM     16  C   UNL     1     -29.927  19.363  -2.394  0.00  0.00    +0.112 C 
ENDBRANCH   7  14
ENDBRANCH   1   4
BRANCH   1  17
ATOM     17  N   UNL     1     -36.465  22.182   1.819  0.00  0.00    -0.170 NA
ATOM     18  H   UNL     1     -36.975  22.141   0.936  0.00  0.00    +0.149 HD
BRANCH  17  19
ATOM     19  C   UNL     1     -37.433  22.582   2.850  0.00  0.00    +0.176 C 
BRANCH  19  21
ATOM     20  O   UNL     1     -39.579  23.246   1.916  0.00  0.00    -0.249 OA
ATOM     21  C   UNL     1     -38.821  22.363   2.295  0.00  0.00    +0.330 C 
BRANCH  21  22
ATOM     22  O   UNL     1     -39.151  21.046   2.255  0.00  0.00    -0.479 OA
ATOM     23  H   UNL     1     -39.377  20.644   1.440  0.00  0.00    +0.295 HD
ENDBRANCH  21  22
ENDBRANCH  19  21
BRANCH  19  24
ATOM     24  C   UNL     1     -37.179  24.024   3.288  0.00  0.00    +0.061 C 
BRANCH  24  25
ATOM     25  C   UNL     1     -35.736  24.496   3.136  0.00  0.00    +0.139 C 
BRANCH  25  26
ATOM     26  O   UNL     1     -34.891  23.623   3.878  0.00  0.00    -0.382 OA
ATOM     27  H   UNL     1     -35.110  23.684   4.821  0.00  0.00    +0.210 HD
ENDBRANCH  25  26
ENDBRANCH  24  25
ENDBRANCH  19  24
ENDBRANCH  17  19
ENDBRANCH   1  17
TORSDOF 9
ENDMDL
MODEL 9
REMARK VINA RESULT:      -5.8      5.142      7.888
REMARK  Name = 194940
REMARK  9 active torsions:
REMARK  status: ('A' for Active; 'I' for Inactive)
REMARK    1  A    between atoms: S_1  and  C_4
REMARK    2  A    between atoms: S_1  and  N_17
REMARK    3  A    between atoms: C_7  and  N_14
REMARK    4  A    between atoms: N_17  and  C_19
REMARK    5  A    between atoms: C_19  and  C_21
REMARK    6  A    between atoms: C_19  and  C_24
REMARK    7  A    between atoms: C_21  and  O_22
REMARK    8  A    between atoms: C_24  and  C_25
REMARK    9  A    between atoms: C_25  and  O_26
REMARK                            x       y       z     vdW  Elec       q    Type
REMARK                         _______ _______ _______ _____ _____    ______ ____
ROOT
ATOM      1  S   UNL     1     -34.745  21.790   0.730  0.00  0.00    +0.061 S 
ATOM      2  O   UNL     1     -34.073  23.056   0.981  0.00  0.00    -0.153 OA
ATOM      3  O   UNL     1     -35.539  21.622  -0.475  0.00  0.00    -0.153 OA
ENDROOT
BRANCH   1   4
ATOM      4  C   UNL     1     -33.538  20.513   0.745  0.00  0.00    +0.122 C 
ATOM      5  C   UNL     1     -32.299  20.629   0.092  0.00  0.00    +0.020 C 
ATOM      6  C   UNL     1     -31.382  19.553   0.151  0.00  0.00    +0.015 C 
ATOM      7  C   UNL     1     -30.144  19.669  -0.501  0.00  0.00    +0.048 C 
ATOM      8  C   UNL     1     -33.866  19.353   1.445  0.00  0.00    +0.020 C 
ATOM      9  C   UNL     1     -31.951  21.790  -0.618  0.00  0.00    +0.001 C 
ATOM     10  C   UNL     1     -31.729  18.393   0.862  0.00  0.00    +0.001 C 
ATOM     11  C   UNL     1     -32.964  18.295   1.504  0.00  0.00    +0.001 C 
ATOM     12  C   UNL     1     -29.814  20.830  -1.202  0.00  0.00    +0.015 C 
ATOM     13  C   UNL     1     -30.716  21.889  -1.260  0.00  0.00    +0.001 C 
BRANCH   7  14
ATOM     14  N   UNL     1     -29.190  18.623  -0.474  0.00  0.00    -0.304 N 
ATOM     15  C   UNL     1     -29.211  17.593  -1.490  0.00  0.00    +0.112 C 
ATOM     16  C   UNL     1     -28.179  18.585   0.559  0.00  0.00    +0.112 C 
ENDBRANCH   7  14
ENDBRANCH   1   4
BRANCH   1  17
ATOM     17  N   UNL     1     -35.703  21.393   2.085  0.00  0.00    -0.170 NA
ATOM     18  H   UNL     1     -35.249  20.602   2.544  0.00  0.00    +0.149 HD
BRANCH  17  19
ATOM     19  C   UNL     1     -35.959  22.398   3.126  0.00  0.00    +0.176 C 
BRANCH  19  21
ATOM     20  O   UNL     1     -35.024  20.738   4.640  0.00  0.00    -0.249 OA
ATOM     21  C   UNL     1     -35.674  21.762   4.466  0.00  0.00    +0.330 C 
BRANCH  21  22
ATOM     22  O   UNL     1     -36.225  22.463   5.490  0.00  0.00    -0.479 OA
ATOM     23  H   UNL     1     -36.397  23.379   5.392  0.00  0.00    +0.295 HD
ENDBRANCH  21  22
ENDBRANCH  19  21
BRANCH  19  24
ATOM     24  C   UNL     1     -37.382  22.940   3.006  0.00  0.00    +0.061 C 
BRANCH  24  25
ATOM     25  C   UNL     1     -37.494  24.461   3.046  0.00  0.00    +0.139 C 
BRANCH  25  26
ATOM     26  O   UNL     1     -37.774  24.863   4.382  0.00  0.00    -0.382 OA
ATOM     27  H   UNL     1     -38.470  25.538   4.378  0.00  0.00    +0.210 HD
ENDBRANCH  25  26
ENDBRANCH  24  25
ENDBRANCH  19  24
ENDBRANCH  17  19
ENDBRANCH   1  17
TORSDOF 9
ENDMDL
