MODEL 1
REMARK VINA RESULT:      -5.5      0.000      0.000
REMARK  Name = 5270766
REMARK  7 active torsions:
REMARK  status: ('A' for Active; 'I' for Inactive)
REMARK    1  A    between atoms: N_1  and  C_13
REMARK    2  A    between atoms: C_13  and  C_14
REMARK    3  A    between atoms: C_14  and  O_17
REMARK    4  A    between atoms: O_17  and  C_18
REMARK    5  A    between atoms: C_18  and  P_19
REMARK    6  A    between atoms: P_19  and  O_21
REMARK    7  A    between atoms: P_19  and  O_23
REMARK                            x       y       z     vdW  Elec       q    Type
REMARK                         _______ _______ _______ _____ _____    ______ ____
ROOT
ATOM      1  N   UNL     1     -36.465  22.239   2.220  0.00  0.00    -0.259 N 
ATOM      2  N   UNL     1     -35.470  20.938   3.695  0.00  0.00    -0.246 NA
ATOM      3  N   UNL     1     -36.698  24.282   3.504  0.00  0.00    -0.322 NA
ATOM      4  N   UNL     1     -35.773  24.001   5.746  0.00  0.00    -0.191 NA
ATOM      5  N   UNL     1     -36.728  26.027   5.062  0.00  0.00    -0.293 N 
ATOM      6  C   UNL     1     -36.324  23.007   3.321  0.00  0.00    +0.213 C 
ATOM      7  C   UNL     1     -35.947  21.012   2.470  0.00  0.00    +0.222 C 
ATOM      8  C   UNL     1     -35.699  22.177   4.239  0.00  0.00    +0.126 C 
ATOM      9  C   UNL     1     -35.423  22.717   5.491  0.00  0.00    +0.187 C 
ATOM     10  C   UNL     1     -36.380  24.693   4.752  0.00  0.00    +0.139 C 
ATOM     11  H   UNL     1     -37.171  26.591   4.387  0.00  0.00    +0.155 HD
ATOM     12  H   UNL     1     -36.526  26.395   5.953  0.00  0.00    +0.155 HD
ENDROOT
BRANCH   1  13
ATOM     13  C   UNL     1     -37.075  22.657   0.950  0.00  0.00    +0.122 C 
BRANCH  13  14
ATOM     14  C   UNL     1     -38.509  22.971   1.079  0.00  0.00    +0.112 C 
ATOM     15  C   UNL     1     -39.538  22.107   0.433  0.00  0.00    +0.031 C 
ATOM     16  C   UNL     1     -39.400  22.127   1.926  0.00  0.00    +0.031 C 
BRANCH  14  17
ATOM     17  O   UNL     1     -38.789  24.398   1.087  0.00  0.00    -0.345 OA
BRANCH  17  18
ATOM     18  C   UNL     1     -40.120  24.687   1.490  0.00  0.00    +0.258 C 
BRANCH  18  19
ATOM     19  P   UNL     1     -39.954  25.875   2.804  0.00  0.00    +0.367 P 
ATOM     20  O   UNL     1     -41.094  26.842   2.928  0.00  0.00    -0.256 OA
BRANCH  19  21
ATOM     21  O   UNL     1     -38.509  26.546   2.532  0.00  0.00    -0.322 OA
ATOM     22  H   UNL     1     -38.522  27.009   1.680  0.00  0.00    +0.220 HD
ENDBRANCH  19  21
BRANCH  19  23
ATOM     23  O   UNL     1     -39.696  24.952   4.105  0.00  0.00    -0.322 OA
ATOM     24  H   UNL     1     -39.887  25.463   4.908  0.00  0.00    +0.220 HD
ENDBRANCH  19  23
ENDBRANCH  18  19
ENDBRANCH  17  18
ENDBRANCH  14  17
ENDBRANCH  13  14
ENDBRANCH   1  13
TORSDOF 7
ENDMDL
MODEL 2
REMARK VINA RESULT:      -5.4      3.464      5.370
REMARK  Name = 5270766
REMARK  7 active torsions:
REMARK  status: ('A' for Active; 'I' for Inactive)
REMARK    1  A    between atoms: N_1  and  C_13
REMARK    2  A    between atoms: C_13  and  C_14
REMARK    3  A    between atoms: C_14  and  O_17
REMARK    4  A    between atoms: O_17  and  C_18
REMARK    5  A    between atoms: C_18  and  P_19
REMARK    6  A    between atoms: P_19  and  O_21
REMARK    7  A    between atoms: P_19  and  O_23
REMARK                            x       y       z     vdW  Elec       q    Type
REMARK                         _______ _______ _______ _____ _____    ______ ____
ROOT
ATOM      1  N   UNL     1     -35.590  25.760   4.399  0.00  0.00    -0.259 N 
ATOM      2  N   UNL     1     -35.000  26.944   2.636  0.00  0.00    -0.246 NA
ATOM      3  N   UNL     1     -33.932  26.489   6.010  0.00  0.00    -0.322 NA
ATOM      4  N   UNL     1     -32.424  28.129   5.011  0.00  0.00    -0.191 NA
ATOM      5  N   UNL     1     -32.185  27.445   7.239  0.00  0.00    -0.293 N 
ATOM      6  C   UNL     1     -34.523  26.480   4.806  0.00  0.00    +0.213 C 
ATOM      7  C   UNL     1     -35.852  26.057   3.104  0.00  0.00    +0.222 C 
ATOM      8  C   UNL     1     -34.163  27.218   3.689  0.00  0.00    +0.126 C 
ATOM      9  C   UNL     1     -33.069  28.068   3.822  0.00  0.00    +0.187 C 
ATOM     10  C   UNL     1     -32.888  27.348   6.016  0.00  0.00    +0.139 C 
ATOM     11  H   UNL     1     -32.466  26.906   8.013  0.00  0.00    +0.155 HD
ATOM     12  H   UNL     1     -31.412  28.051   7.317  0.00  0.00    +0.155 HD
ENDROOT
BRANCH   1  13
ATOM     13  C   UNL     1     -36.352  24.810   5.220  0.00  0.00    +0.122 C 
BRANCH  13  14
ATOM     14  C   UNL     1     -35.969  23.407   4.979  0.00  0.00    +0.112 C 
ATOM     15  C   UNL     1     -34.551  22.970   5.125  0.00  0.00    +0.031 C 
ATOM     16  C   UNL     1     -35.585  22.518   6.113  0.00  0.00    +0.031 C 
BRANCH  14  17
ATOM     17  O   UNL     1     -36.723  22.779   3.906  0.00  0.00    -0.345 OA
BRANCH  17  18
ATOM     18  C   UNL     1     -35.880  22.234   2.899  0.00  0.00    +0.258 C 
BRANCH  18  19
ATOM     19  P   UNL     1     -36.943  21.190   1.927  0.00  0.00    +0.367 P 
ATOM     20  O   UNL     1     -36.719  21.266   0.445  0.00  0.00    -0.256 OA
BRANCH  19  21
ATOM     21  O   UNL     1     -38.429  21.593   2.419  0.00  0.00    -0.322 OA
ATOM     22  H   UNL     1     -38.867  22.118   1.732  0.00  0.00    +0.220 HD
ENDBRANCH  19  21
BRANCH  19  23
ATOM     23  O   UNL     1     -36.720  19.728   2.578  0.00  0.00    -0.322 OA
ATOM     24  H   UNL     1     -36.753  19.054   1.880  0.00  0.00    +0.220 HD
ENDBRANCH  19  23
ENDBRANCH  18  19
ENDBRANCH  17  18
ENDBRANCH  14  17
ENDBRANCH  13  14
ENDBRANCH   1  13
TORSDOF 7
ENDMDL
MODEL 3
REMARK VINA RESULT:      -5.1      2.609      4.513
REMARK  Name = 5270766
REMARK  7 active torsions:
REMARK  status: ('A' for Active; 'I' for Inactive)
REMARK    1  A    between atoms: N_1  and  C_13
REMARK    2  A    between atoms: C_13  and  C_14
REMARK    3  A    between atoms: C_14  and  O_17
REMARK    4  A    between atoms: O_17  and  C_18
REMARK    5  A    between atoms: C_18  and  P_19
REMARK    6  A    between atoms: P_19  and  O_21
REMARK    7  A    between atoms: P_19  and  O_23
REMARK                            x       y       z     vdW  Elec       q    Type
REMARK                         _______ _______ _______ _____ _____    ______ ____
ROOT
ATOM      1  N   UNL     1     -36.254  22.384   3.001  0.00  0.00    -0.259 N 
ATOM      2  N   UNL     1     -37.623  21.021   1.939  0.00  0.00    -0.246 NA
ATOM      3  N   UNL     1     -37.723  24.269   3.411  0.00  0.00    -0.322 NA
ATOM      4  N   UNL     1     -39.950  23.838   2.511  0.00  0.00    -0.191 NA
ATOM      5  N   UNL     1     -39.440  25.847   3.602  0.00  0.00    -0.293 N 
ATOM      6  C   UNL     1     -37.428  23.048   2.940  0.00  0.00    +0.213 C 
ATOM      7  C   UNL     1     -36.400  21.179   2.398  0.00  0.00    +0.222 C 
ATOM      8  C   UNL     1     -38.277  22.181   2.270  0.00  0.00    +0.126 C 
ATOM      9  C   UNL     1     -39.582  22.614   2.060  0.00  0.00    +0.187 C 
ATOM     10  C   UNL     1     -39.012  24.578   3.149  0.00  0.00    +0.139 C 
ATOM     11  H   UNL     1     -38.811  26.439   4.074  0.00  0.00    +0.155 HD
ATOM     12  H   UNL     1     -40.367  26.139   3.445  0.00  0.00    +0.155 HD
ENDROOT
BRANCH   1  13
ATOM     13  C   UNL     1     -35.017  22.876   3.621  0.00  0.00    +0.122 C 
BRANCH  13  14
ATOM     14  C   UNL     1     -35.129  23.026   5.083  0.00  0.00    +0.112 C 
ATOM     15  C   UNL     1     -36.013  22.123   5.875  0.00  0.00    +0.031 C 
ATOM     16  C   UNL     1     -34.522  22.018   6.000  0.00  0.00    +0.031 C 
BRANCH  14  17
ATOM     17  O   UNL     1     -35.068  24.409   5.529  0.00  0.00    -0.345 OA
BRANCH  17  18
ATOM     18  C   UNL     1     -34.130  25.176   4.787  0.00  0.00    +0.258 C 
BRANCH  18  19
ATOM     19  P   UNL     1     -35.037  26.604   4.237  0.00  0.00    +0.367 P 
ATOM     20  O   UNL     1     -34.257  27.886   4.237  0.00  0.00    -0.256 OA
BRANCH  19  21
ATOM     21  O   UNL     1     -36.356  26.602   5.172  0.00  0.00    -0.322 OA
ATOM     22  H   UNL     1     -36.629  25.688   5.345  0.00  0.00    +0.220 HD
ENDBRANCH  19  21
BRANCH  19  23
ATOM     23  O   UNL     1     -35.604  26.149   2.794  0.00  0.00    -0.322 OA
ATOM     24  H   UNL     1     -36.357  25.549   2.917  0.00  0.00    +0.220 HD
ENDBRANCH  19  23
ENDBRANCH  18  19
ENDBRANCH  17  18
ENDBRANCH  14  17
ENDBRANCH  13  14
ENDBRANCH   1  13
TORSDOF 7
ENDMDL
MODEL 4
REMARK VINA RESULT:      -5.1      1.595      2.032
REMARK  Name = 5270766
REMARK  7 active torsions:
REMARK  status: ('A' for Active; 'I' for Inactive)
REMARK    1  A    between atoms: N_1  and  C_13
REMARK    2  A    between atoms: C_13  and  C_14
REMARK    3  A    between atoms: C_14  and  O_17
REMARK    4  A    between atoms: O_17  and  C_18
REMARK    5  A    between atoms: C_18  and  P_19
REMARK    6  A    between atoms: P_19  and  O_21
REMARK    7  A    between atoms: P_19  and  O_23
REMARK                            x       y       z     vdW  Elec       q    Type
REMARK                         _______ _______ _______ _____ _____    ______ ____
ROOT
ATOM      1  N   UNL     1     -35.969  23.460   3.341  0.00  0.00    -0.259 N 
ATOM      2  N   UNL     1     -35.138  23.100   5.351  0.00  0.00    -0.246 NA
ATOM      3  N   UNL     1     -35.648  25.854   3.141  0.00  0.00    -0.322 NA
ATOM      4  N   UNL     1     -34.600  26.754   5.154  0.00  0.00    -0.191 NA
ATOM      5  N   UNL     1     -35.165  28.134   3.348  0.00  0.00    -0.293 N 
ATOM      6  C   UNL     1     -35.568  24.674   3.774  0.00  0.00    +0.213 C 
ATOM      7  C   UNL     1     -35.700  22.541   4.300  0.00  0.00    +0.222 C 
ATOM      8  C   UNL     1     -35.050  24.433   5.037  0.00  0.00    +0.126 C 
ATOM      9  C   UNL     1     -34.552  25.530   5.733  0.00  0.00    +0.187 C 
ATOM     10  C   UNL     1     -35.136  26.839   3.913  0.00  0.00    +0.139 C 
ATOM     11  H   UNL     1     -35.541  28.272   2.448  0.00  0.00    +0.155 HD
ATOM     12  H   UNL     1     -34.809  28.901   3.854  0.00  0.00    +0.155 HD
ENDROOT
BRANCH   1  13
ATOM     13  C   UNL     1     -36.592  23.170   2.043  0.00  0.00    +0.122 C 
BRANCH  13  14
ATOM     14  C   UNL     1     -38.050  22.982   2.135  0.00  0.00    +0.112 C 
ATOM     15  C   UNL     1     -38.855  22.660   0.922  0.00  0.00    +0.031 C 
ATOM     16  C   UNL     1     -38.654  21.626   1.989  0.00  0.00    +0.031 C 
BRANCH  14  17
ATOM     17  O   UNL     1     -38.685  23.859   3.106  0.00  0.00    -0.345 OA
BRANCH  17  18
ATOM     18  C   UNL     1     -40.004  24.225   2.725  0.00  0.00    +0.258 C 
BRANCH  18  19
ATOM     19  P   UNL     1     -40.046  25.999   2.862  0.00  0.00    +0.367 P 
ATOM     20  O   UNL     1     -40.337  26.724   1.582  0.00  0.00    -0.256 OA
BRANCH  19  21
ATOM     21  O   UNL     1     -38.630  26.362   3.553  0.00  0.00    -0.322 OA
ATOM     22  H   UNL     1     -38.016  25.620   3.442  0.00  0.00    +0.220 HD
ENDBRANCH  19  21
BRANCH  19  23
ATOM     23  O   UNL     1     -41.114  26.252   4.049  0.00  0.00    -0.322 OA
ATOM     24  H   UNL     1     -41.771  26.904   3.759  0.00  0.00    +0.220 HD
ENDBRANCH  19  23
ENDBRANCH  18  19
ENDBRANCH  17  18
ENDBRANCH  14  17
ENDBRANCH  13  14
ENDBRANCH   1  13
TORSDOF 7
ENDMDL
MODEL 5
REMARK VINA RESULT:      -5.1      3.048      4.404
REMARK  Name = 5270766
REMARK  7 active torsions:
REMARK  status: ('A' for Active; 'I' for Inactive)
REMARK    1  A    between atoms: N_1  and  C_13
REMARK    2  A    between atoms: C_13  and  C_14
REMARK    3  A    between atoms: C_14  and  O_17
REMARK    4  A    between atoms: O_17  and  C_18
REMARK    5  A    between atoms: C_18  and  P_19
REMARK    6  A    between atoms: P_19  and  O_21
REMARK    7  A    between atoms: P_19  and  O_23
REMARK                            x       y       z     vdW  Elec       q    Type
REMARK                         _______ _______ _______ _____ _____    ______ ____
ROOT
ATOM      1  N   UNL     1     -36.942  24.314   2.455  0.00  0.00    -0.259 N 
ATOM      2  N   UNL     1     -36.525  26.038   3.764  0.00  0.00    -0.246 NA
ATOM      3  N   UNL     1     -36.101  22.496   3.819  0.00  0.00    -0.322 NA
ATOM      4  N   UNL     1     -35.211  23.342   5.930  0.00  0.00    -0.191 NA
ATOM      5  N   UNL     1     -35.191  21.055   5.423  0.00  0.00    -0.293 N 
ATOM      6  C   UNL     1     -36.369  23.783   3.556  0.00  0.00    +0.213 C 
ATOM      7  C   UNL     1     -37.023  25.658   2.607  0.00  0.00    +0.222 C 
ATOM      8  C   UNL     1     -36.112  24.877   4.368  0.00  0.00    +0.126 C 
ATOM      9  C   UNL     1     -35.510  24.621   5.597  0.00  0.00    +0.187 C 
ATOM     10  C   UNL     1     -35.520  22.373   5.034  0.00  0.00    +0.139 C 
ATOM     11  H   UNL     1     -35.387  20.300   4.822  0.00  0.00    +0.155 HD
ATOM     12  H   UNL     1     -34.765  20.890   6.296  0.00  0.00    +0.155 HD
ENDROOT
BRANCH   1  13
ATOM     13  C   UNL     1     -37.409  23.566   1.281  0.00  0.00    +0.122 C 
BRANCH  13  14
ATOM     14  C   UNL     1     -38.660  22.829   1.531  0.00  0.00    +0.112 C 
ATOM     15  C   UNL     1     -39.742  23.426   2.366  0.00  0.00    +0.031 C 
ATOM     16  C   UNL     1     -39.937  23.256   0.888  0.00  0.00    +0.031 C 
BRANCH  14  17
ATOM     17  O   UNL     1     -38.467  21.394   1.670  0.00  0.00    -0.345 OA
BRANCH  17  18
ATOM     18  C   UNL     1     -37.879  20.812   0.515  0.00  0.00    +0.258 C 
BRANCH  18  19
ATOM     19  P   UNL     1     -36.520  19.842   1.130  0.00  0.00    +0.367 P 
ATOM     20  O   UNL     1     -35.166  20.279   0.654  0.00  0.00    -0.256 OA
BRANCH  19  21
ATOM     21  O   UNL     1     -36.928  18.326   0.746  0.00  0.00    -0.322 OA
ATOM     22  H   UNL     1     -36.268  17.712   1.103  0.00  0.00    +0.220 HD
ENDBRANCH  19  21
BRANCH  19  23
ATOM     23  O   UNL     1     -36.730  19.888   2.732  0.00  0.00    -0.322 OA
ATOM     24  H   UNL     1     -37.674  19.796   2.938  0.00  0.00    +0.220 HD
ENDBRANCH  19  23
ENDBRANCH  18  19
ENDBRANCH  17  18
ENDBRANCH  14  17
ENDBRANCH  13  14
ENDBRANCH   1  13
TORSDOF 7
ENDMDL
MODEL 6
REMARK VINA RESULT:      -5.1      3.296      5.719
REMARK  Name = 5270766
REMARK  7 active torsions:
REMARK  status: ('A' for Active; 'I' for Inactive)
REMARK    1  A    between atoms: N_1  and  C_13
REMARK    2  A    between atoms: C_13  and  C_14
REMARK    3  A    between atoms: C_14  and  O_17
REMARK    4  A    between atoms: O_17  and  C_18
REMARK    5  A    between atoms: C_18  and  P_19
REMARK    6  A    between atoms: P_19  and  O_21
REMARK    7  A    between atoms: P_19  and  O_23
REMARK                            x       y       z     vdW  Elec       q    Type
REMARK                         _______ _______ _______ _____ _____    ______ ____
ROOT
ATOM      1  N   UNL     1     -37.603  24.940   3.403  0.00  0.00    -0.259 N 
ATOM      2  N   UNL     1     -38.719  26.345   2.123  0.00  0.00    -0.246 NA
ATOM      3  N   UNL     1     -38.684  22.848   2.828  0.00  0.00    -0.322 NA
ATOM      4  N   UNL     1     -40.439  23.212   1.171  0.00  0.00    -0.191 NA
ATOM      5  N   UNL     1     -39.969  21.074   2.006  0.00  0.00    -0.293 N 
ATOM      6  C   UNL     1     -38.496  24.173   2.742  0.00  0.00    +0.213 C 
ATOM      7  C   UNL     1     -37.758  26.229   3.015  0.00  0.00    +0.222 C 
ATOM      8  C   UNL     1     -39.190  25.069   1.944  0.00  0.00    +0.126 C 
ATOM      9  C   UNL     1     -40.194  24.544   1.136  0.00  0.00    +0.187 C 
ATOM     10  C   UNL     1     -39.680  22.458   2.002  0.00  0.00    +0.139 C 
ATOM     11  H   UNL     1     -39.457  20.465   2.586  0.00  0.00    +0.155 HD
ATOM     12  H   UNL     1     -40.683  20.718   1.429  0.00  0.00    +0.155 HD
ENDROOT
BRANCH   1  13
ATOM     13  C   UNL     1     -36.616  24.465   4.383  0.00  0.00    +0.122 C 
BRANCH  13  14
ATOM     14  C   UNL     1     -35.281  24.253   3.795  0.00  0.00    +0.112 C 
ATOM     15  C   UNL     1     -34.404  25.411   3.460  0.00  0.00    +0.031 C 
ATOM     16  C   UNL     1     -34.049  24.500   4.598  0.00  0.00    +0.031 C 
BRANCH  14  17
ATOM     17  O   UNL     1     -35.227  23.126   2.877  0.00  0.00    -0.345 OA
BRANCH  17  18
ATOM     18  C   UNL     1     -35.504  21.889   3.520  0.00  0.00    +0.258 C 
BRANCH  18  19
ATOM     19  P   UNL     1     -35.745  20.727   2.194  0.00  0.00    +0.367 P 
ATOM     20  O   UNL     1     -34.531  19.923   1.832  0.00  0.00    -0.256 OA
BRANCH  19  21
ATOM     21  O   UNL     1     -36.352  21.631   1.000  0.00  0.00    -0.322 OA
ATOM     22  H   UNL     1     -35.723  21.659   0.263  0.00  0.00    +0.220 HD
ENDBRANCH  19  21
BRANCH  19  23
ATOM     23  O   UNL     1     -37.017  19.862   2.689  0.00  0.00    -0.322 OA
ATOM     24  H   UNL     1     -37.307  20.181   3.558  0.00  0.00    +0.220 HD
ENDBRANCH  19  23
ENDBRANCH  18  19
ENDBRANCH  17  18
ENDBRANCH  14  17
ENDBRANCH  13  14
ENDBRANCH   1  13
TORSDOF 7
ENDMDL
MODEL 7
REMARK VINA RESULT:      -5.0      2.159      3.962
REMARK  Name = 5270766
REMARK  7 active torsions:
REMARK  status: ('A' for Active; 'I' for Inactive)
REMARK    1  A    between atoms: N_1  and  C_13
REMARK    2  A    between atoms: C_13  and  C_14
REMARK    3  A    between atoms: C_14  and  O_17
REMARK    4  A    between atoms: O_17  and  C_18
REMARK    5  A    between atoms: C_18  and  P_19
REMARK    6  A    between atoms: P_19  and  O_21
REMARK    7  A    between atoms: P_19  and  O_23
REMARK                            x       y       z     vdW  Elec       q    Type
REMARK                         _______ _______ _______ _____ _____    ______ ____
ROOT
ATOM      1  N   UNL     1     -36.793  24.306   3.387  0.00  0.00    -0.259 N 
ATOM      2  N   UNL     1     -36.028  24.006   5.432  0.00  0.00    -0.246 NA
ATOM      3  N   UNL     1     -36.327  22.138   2.408  0.00  0.00    -0.322 NA
ATOM      4  N   UNL     1     -35.271  20.663   4.042  0.00  0.00    -0.191 NA
ATOM      5  N   UNL     1     -35.717  19.948   1.857  0.00  0.00    -0.293 N 
ATOM      6  C   UNL     1     -36.332  23.037   3.403  0.00  0.00    +0.213 C 
ATOM      7  C   UNL     1     -36.600  24.858   4.609  0.00  0.00    +0.222 C 
ATOM      8  C   UNL     1     -35.854  22.863   4.693  0.00  0.00    +0.126 C 
ATOM      9  C   UNL     1     -35.308  21.621   5.000  0.00  0.00    +0.187 C 
ATOM     10  C   UNL     1     -35.775  20.976   2.824  0.00  0.00    +0.139 C 
ATOM     11  H   UNL     1     -36.065  20.103   0.949  0.00  0.00    +0.155 HD
ATOM     12  H   UNL     1     -35.327  19.073   2.089  0.00  0.00    +0.155 HD
ENDROOT
BRANCH   1  13
ATOM     13  C   UNL     1     -37.410  24.984   2.240  0.00  0.00    +0.122 C 
BRANCH  13  14
ATOM     14  C   UNL     1     -38.882  24.933   2.267  0.00  0.00    +0.112 C 
ATOM     15  C   UNL     1     -39.661  25.873   3.123  0.00  0.00    +0.031 C 
ATOM     16  C   UNL     1     -39.693  26.011   1.630  0.00  0.00    +0.031 C 
BRANCH  14  17
ATOM     17  O   UNL     1     -39.416  23.585   2.153  0.00  0.00    -0.345 OA
BRANCH  17  18
ATOM     18  C   UNL     1     -39.540  23.164   0.801  0.00  0.00    +0.258 C 
BRANCH  18  19
ATOM     19  P   UNL     1     -39.583  21.387   0.877  0.00  0.00    +0.367 P 
ATOM     20  O   UNL     1     -40.831  20.762   0.325  0.00  0.00    -0.256 OA
BRANCH  19  21
ATOM     21  O   UNL     1     -39.282  21.063   2.432  0.00  0.00    -0.322 OA
ATOM     22  H   UNL     1     -39.790  20.284   2.704  0.00  0.00    +0.220 HD
ENDBRANCH  19  21
BRANCH  19  23
ATOM     23  O   UNL     1     -38.215  20.953   0.135  0.00  0.00    -0.322 OA
ATOM     24  H   UNL     1     -37.957  20.064   0.426  0.00  0.00    +0.220 HD
ENDBRANCH  19  23
ENDBRANCH  18  19
ENDBRANCH  17  18
ENDBRANCH  14  17
ENDBRANCH  13  14
ENDBRANCH   1  13
TORSDOF 7
ENDMDL
MODEL 8
REMARK VINA RESULT:      -4.9      3.633      5.756
REMARK  Name = 5270766
REMARK  7 active torsions:
REMARK  status: ('A' for Active; 'I' for Inactive)
REMARK    1  A    between atoms: N_1  and  C_13
REMARK    2  A    between atoms: C_13  and  C_14
REMARK    3  A    between atoms: C_14  and  O_17
REMARK    4  A    between atoms: O_17  and  C_18
REMARK    5  A    between atoms: C_18  and  P_19
REMARK    6  A    between atoms: P_19  and  O_21
REMARK    7  A    between atoms: P_19  and  O_23
REMARK                            x       y       z     vdW  Elec       q    Type
REMARK                         _______ _______ _______ _____ _____    ______ ____
ROOT
ATOM      1  N   UNL     1     -36.507  24.771   2.857  0.00  0.00    -0.259 N 
ATOM      2  N   UNL     1     -38.106  26.279   2.694  0.00  0.00    -0.246 NA
ATOM      3  N   UNL     1     -37.770  22.733   2.504  0.00  0.00    -0.322 NA
ATOM      4  N   UNL     1     -40.132  23.234   2.143  0.00  0.00    -0.191 NA
ATOM      5  N   UNL     1     -39.332  21.032   2.124  0.00  0.00    -0.293 N 
ATOM      6  C   UNL     1     -37.630  24.061   2.619  0.00  0.00    +0.213 C 
ATOM      7  C   UNL     1     -36.820  26.089   2.895  0.00  0.00    +0.222 C 
ATOM      8  C   UNL     1     -38.626  25.021   2.520  0.00  0.00    +0.126 C 
ATOM      9  C   UNL     1     -39.917  24.565   2.272  0.00  0.00    +0.187 C 
ATOM     10  C   UNL     1     -39.061  22.412   2.266  0.00  0.00    +0.139 C 
ATOM     11  H   UNL     1     -38.602  20.376   2.201  0.00  0.00    +0.155 HD
ATOM     12  H   UNL     1     -40.251  20.725   1.949  0.00  0.00    +0.155 HD
ENDROOT
BRANCH   1  13
ATOM     13  C   UNL     1     -35.160  24.216   3.041  0.00  0.00    +0.122 C 
BRANCH  13  14
ATOM     14  C   UNL     1     -34.728  24.211   4.450  0.00  0.00    +0.112 C 
ATOM     15  C   UNL     1     -35.731  24.147   5.553  0.00  0.00    +0.031 C 
ATOM     16  C   UNL     1     -34.838  22.974   5.275  0.00  0.00    +0.031 C 
BRANCH  14  17
ATOM     17  O   UNL     1     -33.560  25.040   4.699  0.00  0.00    -0.345 OA
BRANCH  17  18
ATOM     18  C   UNL     1     -33.892  26.270   5.330  0.00  0.00    +0.258 C 
BRANCH  18  19
ATOM     19  P   UNL     1     -33.027  27.513   4.396  0.00  0.00    +0.367 P 
ATOM     20  O   UNL     1     -31.959  26.987   3.483  0.00  0.00    -0.256 OA
BRANCH  19  21
ATOM     21  O   UNL     1     -32.516  28.551   5.525  0.00  0.00    -0.322 OA
ATOM     22  H   UNL     1     -32.153  28.059   6.277  0.00  0.00    +0.220 HD
ENDBRANCH  19  21
BRANCH  19  23
ATOM     23  O   UNL     1     -34.219  28.319   3.662  0.00  0.00    -0.322 OA
ATOM     24  H   UNL     1     -34.335  29.184   4.087  0.00  0.00    +0.220 HD
ENDBRANCH  19  23
ENDBRANCH  18  19
ENDBRANCH  17  18
ENDBRANCH  14  17
ENDBRANCH  13  14
ENDBRANCH   1  13
TORSDOF 7
ENDMDL
MODEL 9
REMARK VINA RESULT:      -4.9      4.363      5.992
REMARK  Name = 5270766
REMARK  7 active torsions:
REMARK  status: ('A' for Active; 'I' for Inactive)
REMARK    1  A    between atoms: N_1  and  C_13
REMARK    2  A    between atoms: C_13  and  C_14
REMARK    3  A    between atoms: C_14  and  O_17
REMARK    4  A    between atoms: O_17  and  C_18
REMARK    5  A    between atoms: C_18  and  P_19
REMARK    6  A    between atoms: P_19  and  O_21
REMARK    7  A    between atoms: P_19  and  O_23
REMARK                            x       y       z     vdW  Elec       q    Type
REMARK                         _______ _______ _______ _____ _____    ______ ____
ROOT
ATOM      1  N   UNL     1     -33.770  26.331   3.438  0.00  0.00    -0.259 N 
ATOM      2  N   UNL     1     -33.862  28.117   2.150  0.00  0.00    -0.246 NA
ATOM      3  N   UNL     1     -32.750  27.262   5.430  0.00  0.00    -0.322 NA
ATOM      4  N   UNL     1     -32.301  29.644   5.136  0.00  0.00    -0.191 NA
ATOM      5  N   UNL     1     -31.766  28.536   7.129  0.00  0.00    -0.293 N 
ATOM      6  C   UNL     1     -33.236  27.323   4.182  0.00  0.00    +0.213 C 
ATOM      7  C   UNL     1     -34.135  26.832   2.234  0.00  0.00    +0.222 C 
ATOM      8  C   UNL     1     -33.300  28.438   3.360  0.00  0.00    +0.126 C 
ATOM      9  C   UNL     1     -32.808  29.632   3.879  0.00  0.00    +0.187 C 
ATOM     10  C   UNL     1     -32.303  28.476   5.823  0.00  0.00    +0.139 C 
ATOM     11  H   UNL     1     -31.735  27.726   7.687  0.00  0.00    +0.155 HD
ATOM     12  H   UNL     1     -31.421  29.388   7.482  0.00  0.00    +0.155 HD
ENDROOT
BRANCH   1  13
ATOM     13  C   UNL     1     -33.937  24.934   3.859  0.00  0.00    +0.122 C 
BRANCH  13  14
ATOM     14  C   UNL     1     -35.337  24.591   4.168  0.00  0.00    +0.112 C 
ATOM     15  C   UNL     1     -35.717  24.090   5.520  0.00  0.00    +0.031 C 
ATOM     16  C   UNL     1     -36.149  25.455   5.073  0.00  0.00    +0.031 C 
BRANCH  14  17
ATOM     17  O   UNL     1     -36.048  23.999   3.046  0.00  0.00    -0.345 OA
BRANCH  17  18
ATOM     18  C   UNL     1     -36.831  22.878   3.433  0.00  0.00    +0.258 C 
BRANCH  18  19
ATOM     19  P   UNL     1     -35.945  21.464   2.815  0.00  0.00    +0.367 P 
ATOM     20  O   UNL     1     -34.925  21.771   1.759  0.00  0.00    -0.256 OA
BRANCH  19  21
ATOM     21  O   UNL     1     -37.117  20.445   2.365  0.00  0.00    -0.322 OA
ATOM     22  H   UNL     1     -37.747  20.334   3.093  0.00  0.00    +0.220 HD
ENDBRANCH  19  21
BRANCH  19  23
ATOM     23  O   UNL     1     -35.356  20.783   4.157  0.00  0.00    -0.322 OA
ATOM     24  H   UNL     1     -35.206  21.467   4.829  0.00  0.00    +0.220 HD
ENDBRANCH  19  23
ENDBRANCH  18  19
ENDBRANCH  17  18
ENDBRANCH  14  17
ENDBRANCH  13  14
ENDBRANCH   1  13
TORSDOF 7
ENDMDL
