MODEL 1
REMARK VINA RESULT:      -5.2      0.000      0.000
REMARK  Name = 54702575
REMARK  9 active torsions:
REMARK  status: ('A' for Active; 'I' for Inactive)
REMARK    1  A    between atoms: C_3  and  C_16
REMARK    2  A    between atoms: C_4  and  O_7
REMARK    3  A    between atoms: C_5  and  O_9
REMARK    4  A    between atoms: O_9  and  P_10
REMARK    5  A    between atoms: P_10  and  O_12
REMARK    6  A    between atoms: P_10  and  O_14
REMARK    7  A    between atoms: C_16  and  O_17
REMARK    8  A    between atoms: C_16  and  C_19
REMARK    9  A    between atoms: C_19  and  O_20
REMARK                            x       y       z     vdW  Elec       q    Type
REMARK                         _______ _______ _______ _____ _____    ______ ____
ROOT
ATOM      1  O   UNL     1     -36.843  23.712   2.586  0.00  0.00    -0.436 OA
ATOM      2  O   UNL     1     -36.421  25.977   2.515  0.00  0.00    -0.241 OA
ATOM      3  C   UNL     1     -36.712  22.673   3.578  0.00  0.00    +0.257 C 
ATOM      4  C   UNL     1     -36.198  23.405   4.754  0.00  0.00    +0.195 C 
ATOM      5  C   UNL     1     -36.034  24.699   4.497  0.00  0.00    +0.257 C 
ATOM      6  C   UNL     1     -36.438  24.912   3.106  0.00  0.00    +0.379 C 
ENDROOT
BRANCH   4   7
ATOM      7  O   UNL     1     -35.966  22.785   5.946  0.00  0.00    -0.504 OA
ATOM      8  H   UNL     1     -35.383  23.171   6.570  0.00  0.00    +0.292 HD
ENDBRANCH   4   7
BRANCH   5   9
ATOM      9  O   UNL     1     -35.594  25.675   5.332  0.00  0.00    -0.393 OA
BRANCH   9  10
ATOM     10  P   UNL     1     -34.106  26.297   5.258  0.00  0.00    +0.528 P 
ATOM     11  O   UNL     1     -33.506  26.727   6.565  0.00  0.00    -0.216 OA
BRANCH  10  12
ATOM     12  O   UNL     1     -34.255  27.484   4.170  0.00  0.00    -0.293 OA
ATOM     13  H   UNL     1     -35.194  27.683   4.035  0.00  0.00    +0.223 HD
ENDBRANCH  10  12
BRANCH  10  14
ATOM     14  O   UNL     1     -33.250  25.182   4.455  0.00  0.00    -0.293 OA
ATOM     15  H   UNL     1     -32.436  25.584   4.115  0.00  0.00    +0.223 HD
ENDBRANCH  10  14
ENDBRANCH   9  10
ENDBRANCH   5   9
BRANCH   3  16
ATOM     16  C   UNL     1     -35.763  21.610   3.049  0.00  0.00    +0.187 C 
BRANCH  16  17
ATOM     17  O   UNL     1     -35.443  20.708   4.107  0.00  0.00    -0.378 OA
ATOM     18  H   UNL     1     -36.010  19.923   4.046  0.00  0.00    +0.211 HD
ENDBRANCH  16  17
BRANCH  16  19
ATOM     19  C   UNL     1     -36.397  20.812   1.916  0.00  0.00    +0.171 C 
BRANCH  19  20
ATOM     20  O   UNL     1     -36.896  19.585   2.437  0.00  0.00    -0.379 OA
ATOM     21  H   UNL     1     -36.167  18.952   2.531  0.00  0.00    +0.211 HD
ENDBRANCH  19  20
ENDBRANCH  16  19
ENDBRANCH   3  16
TORSDOF 9
ENDMDL
MODEL 2
REMARK VINA RESULT:      -5.2      1.403      2.830
REMARK  Name = 54702575
REMARK  9 active torsions:
REMARK  status: ('A' for Active; 'I' for Inactive)
REMARK    1  A    between atoms: C_3  and  C_16
REMARK    2  A    between atoms: C_4  and  O_7
REMARK    3  A    between atoms: C_5  and  O_9
REMARK    4  A    between atoms: O_9  and  P_10
REMARK    5  A    between atoms: P_10  and  O_12
REMARK    6  A    between atoms: P_10  and  O_14
REMARK    7  A    between atoms: C_16  and  O_17
REMARK    8  A    between atoms: C_16  and  C_19
REMARK    9  A    between atoms: C_19  and  O_20
REMARK                            x       y       z     vdW  Elec       q    Type
REMARK                         _______ _______ _______ _____ _____    ______ ____
ROOT
ATOM      1  O   UNL     1     -35.143  20.893   4.244  0.00  0.00    -0.436 OA
ATOM      2  O   UNL     1     -35.272  21.877   6.325  0.00  0.00    -0.241 OA
ATOM      3  C   UNL     1     -35.532  21.266   2.906  0.00  0.00    +0.257 C 
ATOM      4  C   UNL     1     -36.105  22.614   3.094  0.00  0.00    +0.195 C 
ATOM      5  C   UNL     1     -36.074  22.991   4.369  0.00  0.00    +0.257 C 
ATOM      6  C   UNL     1     -35.464  21.893   5.122  0.00  0.00    +0.379 C 
ENDROOT
BRANCH   4   7
ATOM      7  O   UNL     1     -36.570  23.354   2.047  0.00  0.00    -0.504 OA
ATOM      8  H   UNL     1     -37.254  23.980   2.182  0.00  0.00    +0.292 HD
ENDBRANCH   4   7
BRANCH   5   9
ATOM      9  O   UNL     1     -36.499  24.159   4.913  0.00  0.00    -0.393 OA
BRANCH   9  10
ATOM     10  P   UNL     1     -35.591  25.494   4.961  0.00  0.00    +0.528 P 
ATOM     11  O   UNL     1     -34.304  25.388   5.726  0.00  0.00    -0.216 OA
BRANCH  10  12
ATOM     12  O   UNL     1     -36.612  26.614   5.526  0.00  0.00    -0.293 OA
ATOM     13  H   UNL     1     -37.293  26.188   6.068  0.00  0.00    +0.223 HD
ENDBRANCH  10  12
BRANCH  10  14
ATOM     14  O   UNL     1     -35.424  25.915   3.408  0.00  0.00    -0.293 OA
ATOM     15  H   UNL     1     -35.067  25.165   2.907  0.00  0.00    +0.223 HD
ENDBRANCH  10  14
ENDBRANCH   9  10
ENDBRANCH   5   9
BRANCH   3  16
ATOM     16  C   UNL     1     -36.524  20.240   2.383  0.00  0.00    +0.187 C 
BRANCH  16  17
ATOM     17  O   UNL     1     -37.816  20.841   2.308  0.00  0.00    -0.378 OA
ATOM     18  H   UNL     1     -38.460  20.184   2.000  0.00  0.00    +0.211 HD
ENDBRANCH  16  17
BRANCH  16  19
ATOM     19  C   UNL     1     -36.142  19.754   0.990  0.00  0.00    +0.171 C 
BRANCH  19  20
ATOM     20  O   UNL     1     -36.839  18.544   0.714  0.00  0.00    -0.379 OA
ATOM     21  H   UNL     1     -37.785  18.668   0.891  0.00  0.00    +0.211 HD
ENDBRANCH  19  20
ENDBRANCH  16  19
ENDBRANCH   3  16
TORSDOF 9
ENDMDL
MODEL 3
REMARK VINA RESULT:      -5.1      1.756      3.509
REMARK  Name = 54702575
REMARK  9 active torsions:
REMARK  status: ('A' for Active; 'I' for Inactive)
REMARK    1  A    between atoms: C_3  and  C_16
REMARK    2  A    between atoms: C_4  and  O_7
REMARK    3  A    between atoms: C_5  and  O_9
REMARK    4  A    between atoms: O_9  and  P_10
REMARK    5  A    between atoms: P_10  and  O_12
REMARK    6  A    between atoms: P_10  and  O_14
REMARK    7  A    between atoms: C_16  and  O_17
REMARK    8  A    between atoms: C_16  and  C_19
REMARK    9  A    between atoms: C_19  and  O_20
REMARK                            x       y       z     vdW  Elec       q    Type
REMARK                         _______ _______ _______ _____ _____    ______ ____
ROOT
ATOM      1  O   UNL     1     -37.127  23.112   3.756  0.00  0.00    -0.436 OA
ATOM      2  O   UNL     1     -35.914  22.749   5.682  0.00  0.00    -0.241 OA
ATOM      3  C   UNL     1     -37.492  24.268   2.975  0.00  0.00    +0.257 C 
ATOM      4  C   UNL     1     -36.844  25.376   3.705  0.00  0.00    +0.195 C 
ATOM      5  C   UNL     1     -36.191  24.944   4.780  0.00  0.00    +0.257 C 
ATOM      6  C   UNL     1     -36.369  23.491   4.831  0.00  0.00    +0.379 C 
ENDROOT
BRANCH   4   7
ATOM      7  O   UNL     1     -36.912  26.667   3.269  0.00  0.00    -0.504 OA
ATOM      8  H   UNL     1     -37.739  27.039   3.034  0.00  0.00    +0.292 HD
ENDBRANCH   4   7
BRANCH   5   9
ATOM      9  O   UNL     1     -35.475  25.667   5.678  0.00  0.00    -0.393 OA
BRANCH   9  10
ATOM     10  P   UNL     1     -33.990  26.227   5.378  0.00  0.00    +0.528 P 
ATOM     11  O   UNL     1     -33.155  26.554   6.582  0.00  0.00    -0.216 OA
BRANCH  10  12
ATOM     12  O   UNL     1     -34.261  27.482   4.394  0.00  0.00    -0.293 OA
ATOM     13  H   UNL     1     -35.207  27.536   4.191  0.00  0.00    +0.223 HD
ENDBRANCH  10  12
BRANCH  10  14
ATOM     14  O   UNL     1     -33.344  25.126   4.384  0.00  0.00    -0.293 OA
ATOM     15  H   UNL     1     -32.411  24.993   4.613  0.00  0.00    +0.223 HD
ENDBRANCH  10  14
ENDBRANCH   9  10
ENDBRANCH   5   9
BRANCH   3  16
ATOM     16  C   UNL     1     -39.008  24.364   2.925  0.00  0.00    +0.187 C 
BRANCH  16  17
ATOM     17  O   UNL     1     -39.465  25.074   4.074  0.00  0.00    -0.378 OA
ATOM     18  H   UNL     1     -39.550  24.460   4.821  0.00  0.00    +0.211 HD
ENDBRANCH  16  17
BRANCH  16  19
ATOM     19  C   UNL     1     -39.479  25.112   1.683  0.00  0.00    +0.171 C 
BRANCH  19  20
ATOM     20  O   UNL     1     -39.654  26.486   2.009  0.00  0.00    -0.379 OA
ATOM     21  H   UNL     1     -40.071  26.561   2.882  0.00  0.00    +0.211 HD
ENDBRANCH  19  20
ENDBRANCH  16  19
ENDBRANCH   3  16
TORSDOF 9
ENDMDL
MODEL 4
REMARK VINA RESULT:      -5.1      2.234      5.514
REMARK  Name = 54702575
REMARK  9 active torsions:
REMARK  status: ('A' for Active; 'I' for Inactive)
REMARK    1  A    between atoms: C_3  and  C_16
REMARK    2  A    between atoms: C_4  and  O_7
REMARK    3  A    between atoms: C_5  and  O_9
REMARK    4  A    between atoms: O_9  and  P_10
REMARK    5  A    between atoms: P_10  and  O_12
REMARK    6  A    between atoms: P_10  and  O_14
REMARK    7  A    between atoms: C_16  and  O_17
REMARK    8  A    between atoms: C_16  and  C_19
REMARK    9  A    between atoms: C_19  and  O_20
REMARK                            x       y       z     vdW  Elec       q    Type
REMARK                         _______ _______ _______ _____ _____    ______ ____
ROOT
ATOM      1  O   UNL     1     -34.515  25.011   5.489  0.00  0.00    -0.436 OA
ATOM      2  O   UNL     1     -34.618  22.708   5.489  0.00  0.00    -0.241 OA
ATOM      3  C   UNL     1     -35.335  26.076   4.965  0.00  0.00    +0.257 C 
ATOM      4  C   UNL     1     -36.457  25.348   4.338  0.00  0.00    +0.195 C 
ATOM      5  C   UNL     1     -36.321  24.031   4.460  0.00  0.00    +0.257 C 
ATOM      6  C   UNL     1     -35.075  23.797   5.192  0.00  0.00    +0.379 C 
ENDROOT
BRANCH   4   7
ATOM      7  O   UNL     1     -37.498  25.998   3.744  0.00  0.00    -0.504 OA
ATOM      8  H   UNL     1     -38.375  25.848   4.040  0.00  0.00    +0.292 HD
ENDBRANCH   4   7
BRANCH   5   9
ATOM      9  O   UNL     1     -37.154  23.053   4.021  0.00  0.00    -0.393 OA
BRANCH   9  10
ATOM     10  P   UNL     1     -36.791  22.066   2.796  0.00  0.00    +0.528 P 
ATOM     11  O   UNL     1     -36.161  22.710   1.595  0.00  0.00    -0.216 OA
BRANCH  10  12
ATOM     12  O   UNL     1     -38.194  21.320   2.494  0.00  0.00    -0.293 OA
ATOM     13  H   UNL     1     -38.684  21.207   3.321  0.00  0.00    +0.223 HD
ENDBRANCH  10  12
BRANCH  10  14
ATOM     14  O   UNL     1     -35.905  20.897   3.479  0.00  0.00    -0.293 OA
ATOM     15  H   UNL     1     -36.219  20.741   4.383  0.00  0.00    +0.223 HD
ENDBRANCH  10  14
ENDBRANCH   9  10
ENDBRANCH   5   9
BRANCH   3  16
ATOM     16  C   UNL     1     -34.507  26.894   3.988  0.00  0.00    +0.187 C 
BRANCH  16  17
ATOM     17  O   UNL     1     -35.181  28.123   3.725  0.00  0.00    -0.378 OA
ATOM     18  H   UNL     1     -35.217  28.652   4.538  0.00  0.00    +0.211 HD
ENDBRANCH  16  17
BRANCH  16  19
ATOM     19  C   UNL     1     -33.130  27.216   4.558  0.00  0.00    +0.171 C 
BRANCH  19  20
ATOM     20  O   UNL     1     -33.233  27.345   5.972  0.00  0.00    -0.379 OA
ATOM     21  H   UNL     1     -34.062  27.796   6.196  0.00  0.00    +0.211 HD
ENDBRANCH  19  20
ENDBRANCH  16  19
ENDBRANCH   3  16
TORSDOF 9
ENDMDL
MODEL 5
REMARK VINA RESULT:      -5.1      2.291      5.583
REMARK  Name = 54702575
REMARK  9 active torsions:
REMARK  status: ('A' for Active; 'I' for Inactive)
REMARK    1  A    between atoms: C_3  and  C_16
REMARK    2  A    between atoms: C_4  and  O_7
REMARK    3  A    between atoms: C_5  and  O_9
REMARK    4  A    between atoms: O_9  and  P_10
REMARK    5  A    between atoms: P_10  and  O_12
REMARK    6  A    between atoms: P_10  and  O_14
REMARK    7  A    between atoms: C_16  and  O_17
REMARK    8  A    between atoms: C_16  and  C_19
REMARK    9  A    between atoms: C_19  and  O_20
REMARK                            x       y       z     vdW  Elec       q    Type
REMARK                         _______ _______ _______ _____ _____    ______ ____
ROOT
ATOM      1  O   UNL     1     -36.120  23.213   5.424  0.00  0.00    -0.436 OA
ATOM      2  O   UNL     1     -35.091  21.150   5.474  0.00  0.00    -0.241 OA
ATOM      3  C   UNL     1     -36.516  24.138   4.392  0.00  0.00    +0.257 C 
ATOM      4  C   UNL     1     -36.116  23.440   3.154  0.00  0.00    +0.195 C 
ATOM      5  C   UNL     1     -35.549  22.265   3.410  0.00  0.00    +0.257 C 
ATOM      6  C   UNL     1     -35.538  22.107   4.866  0.00  0.00    +0.379 C 
ENDROOT
BRANCH   4   7
ATOM      7  O   UNL     1     -36.351  23.968   1.918  0.00  0.00    -0.504 OA
ATOM      8  H   UNL     1     -35.636  24.128   1.334  0.00  0.00    +0.292 HD
ENDBRANCH   4   7
BRANCH   5   9
ATOM      9  O   UNL     1     -35.070  21.350   2.530  0.00  0.00    -0.393 OA
BRANCH   9  10
ATOM     10  P   UNL     1     -36.023  20.405   1.631  0.00  0.00    +0.528 P 
ATOM     11  O   UNL     1     -36.757  21.084   0.512  0.00  0.00    -0.216 OA
BRANCH  10  12
ATOM     12  O   UNL     1     -36.982  19.699   2.725  0.00  0.00    -0.293 OA
ATOM     13  H   UNL     1     -37.417  18.930   2.326  0.00  0.00    +0.223 HD
ENDBRANCH  10  12
BRANCH  10  14
ATOM     14  O   UNL     1     -35.056  19.193   1.169  0.00  0.00    -0.293 OA
ATOM     15  H   UNL     1     -34.494  19.490   0.436  0.00  0.00    +0.223 HD
ENDBRANCH  10  14
ENDBRANCH   9  10
ENDBRANCH   5   9
BRANCH   3  16
ATOM     16  C   UNL     1     -35.796  25.458   4.617  0.00  0.00    +0.187 C 
BRANCH  16  17
ATOM     17  O   UNL     1     -36.678  26.358   5.286  0.00  0.00    -0.378 OA
ATOM     18  H   UNL     1     -36.931  25.985   6.145  0.00  0.00    +0.211 HD
ENDBRANCH  16  17
BRANCH  16  19
ATOM     19  C   UNL     1     -34.554  25.275   5.482  0.00  0.00    +0.171 C 
BRANCH  19  20
ATOM     20  O   UNL     1     -33.414  25.168   4.637  0.00  0.00    -0.379 OA
ATOM     21  H   UNL     1     -32.629  24.983   5.176  0.00  0.00    +0.211 HD
ENDBRANCH  19  20
ENDBRANCH  16  19
ENDBRANCH   3  16
TORSDOF 9
ENDMDL
MODEL 6
REMARK VINA RESULT:      -5.0      2.453      5.450
REMARK  Name = 54702575
REMARK  9 active torsions:
REMARK  status: ('A' for Active; 'I' for Inactive)
REMARK    1  A    between atoms: C_3  and  C_16
REMARK    2  A    between atoms: C_4  and  O_7
REMARK    3  A    between atoms: C_5  and  O_9
REMARK    4  A    between atoms: O_9  and  P_10
REMARK    5  A    between atoms: P_10  and  O_12
REMARK    6  A    between atoms: P_10  and  O_14
REMARK    7  A    between atoms: C_16  and  O_17
REMARK    8  A    between atoms: C_16  and  C_19
REMARK    9  A    between atoms: C_19  and  O_20
REMARK                            x       y       z     vdW  Elec       q    Type
REMARK                         _______ _______ _______ _____ _____    ______ ____
ROOT
ATOM      1  O   UNL     1     -34.122  24.258   4.861  0.00  0.00    -0.436 OA
ATOM      2  O   UNL     1     -35.276  22.594   3.759  0.00  0.00    -0.241 OA
ATOM      3  C   UNL     1     -34.465  25.529   5.450  0.00  0.00    +0.257 C 
ATOM      4  C   UNL     1     -35.922  25.614   5.224  0.00  0.00    +0.195 C 
ATOM      5  C   UNL     1     -36.384  24.547   4.579  0.00  0.00    +0.257 C 
ATOM      6  C   UNL     1     -35.239  23.668   4.332  0.00  0.00    +0.379 C 
ENDROOT
BRANCH   4   7
ATOM      7  O   UNL     1     -36.663  26.668   5.670  0.00  0.00    -0.504 OA
ATOM      8  H   UNL     1     -36.273  27.517   5.744  0.00  0.00    +0.292 HD
ENDBRANCH   4   7
BRANCH   5   9
ATOM      9  O   UNL     1     -37.661  24.272   4.209  0.00  0.00    -0.393 OA
BRANCH   9  10
ATOM     10  P   UNL     1     -38.370  24.933   2.917  0.00  0.00    +0.528 P 
ATOM     11  O   UNL     1     -37.553  24.954   1.658  0.00  0.00    -0.216 OA
BRANCH  10  12
ATOM     12  O   UNL     1     -38.816  26.394   3.447  0.00  0.00    -0.293 OA
ATOM     13  H   UNL     1     -38.056  26.994   3.421  0.00  0.00    +0.223 HD
ENDBRANCH  10  12
BRANCH  10  14
ATOM     14  O   UNL     1     -39.781  24.150   2.796  0.00  0.00    -0.293 OA
ATOM     15  H   UNL     1     -39.887  23.814   1.893  0.00  0.00    +0.223 HD
ENDBRANCH  10  14
ENDBRANCH   9  10
ENDBRANCH   5   9
BRANCH   3  16
ATOM     16  C   UNL     1     -33.668  26.620   4.756  0.00  0.00    +0.187 C 
BRANCH  16  17
ATOM     17  O   UNL     1     -34.572  27.526   4.127  0.00  0.00    -0.378 OA
ATOM     18  H   UNL     1     -35.363  27.628   4.679  0.00  0.00    +0.211 HD
ENDBRANCH  16  17
BRANCH  16  19
ATOM     19  C   UNL     1     -32.816  27.405   5.746  0.00  0.00    +0.171 C 
BRANCH  19  20
ATOM     20  O   UNL     1     -32.603  28.717   5.236  0.00  0.00    -0.379 OA
ATOM     21  H   UNL     1     -32.854  28.744   4.299  0.00  0.00    +0.211 HD
ENDBRANCH  19  20
ENDBRANCH  16  19
ENDBRANCH   3  16
TORSDOF 9
ENDMDL
MODEL 7
REMARK VINA RESULT:      -5.0      1.829      2.282
REMARK  Name = 54702575
REMARK  9 active torsions:
REMARK  status: ('A' for Active; 'I' for Inactive)
REMARK    1  A    between atoms: C_3  and  C_16
REMARK    2  A    between atoms: C_4  and  O_7
REMARK    3  A    between atoms: C_5  and  O_9
REMARK    4  A    between atoms: O_9  and  P_10
REMARK    5  A    between atoms: P_10  and  O_12
REMARK    6  A    between atoms: P_10  and  O_14
REMARK    7  A    between atoms: C_16  and  O_17
REMARK    8  A    between atoms: C_16  and  C_19
REMARK    9  A    between atoms: C_19  and  O_20
REMARK                            x       y       z     vdW  Elec       q    Type
REMARK                         _______ _______ _______ _____ _____    ______ ____
ROOT
ATOM      1  O   UNL     1     -38.296  24.320   1.835  0.00  0.00    -0.436 OA
ATOM      2  O   UNL     1     -36.992  26.203   1.572  0.00  0.00    -0.241 OA
ATOM      3  C   UNL     1     -38.226  23.127   2.642  0.00  0.00    +0.257 C 
ATOM      4  C   UNL     1     -36.993  23.333   3.428  0.00  0.00    +0.195 C 
ATOM      5  C   UNL     1     -36.401  24.484   3.125  0.00  0.00    +0.257 C 
ATOM      6  C   UNL     1     -37.223  25.128   2.098  0.00  0.00    +0.379 C 
ENDROOT
BRANCH   4   7
ATOM      7  O   UNL     1     -36.572  22.433   4.362  0.00  0.00    -0.504 OA
ATOM      8  H   UNL     1     -36.144  21.644   4.093  0.00  0.00    +0.292 HD
ENDBRANCH   4   7
BRANCH   5   9
ATOM      9  O   UNL     1     -35.264  25.011   3.647  0.00  0.00    -0.393 OA
BRANCH   9  10
ATOM     10  P   UNL     1     -35.262  26.187   4.753  0.00  0.00    +0.528 P 
ATOM     11  O   UNL     1     -34.155  26.136   5.767  0.00  0.00    -0.216 OA
BRANCH  10  12
ATOM     12  O   UNL     1     -36.748  26.104   5.384  0.00  0.00    -0.293 OA
ATOM     13  H   UNL     1     -36.986  25.177   5.533  0.00  0.00    +0.223 HD
ENDBRANCH  10  12
BRANCH  10  14
ATOM     14  O   UNL     1     -35.319  27.550   3.882  0.00  0.00    -0.293 OA
ATOM     15  H   UNL     1     -35.197  27.339   2.944  0.00  0.00    +0.223 HD
ENDBRANCH  10  14
ENDBRANCH   9  10
ENDBRANCH   5   9
BRANCH   3  16
ATOM     16  C   UNL     1     -38.178  21.918   1.722  0.00  0.00    +0.187 C 
BRANCH  16  17
ATOM     17  O   UNL     1     -37.700  20.794   2.459  0.00  0.00    -0.378 OA
ATOM     18  H   UNL     1     -38.355  20.080   2.420  0.00  0.00    +0.211 HD
ENDBRANCH  16  17
BRANCH  16  19
ATOM     19  C   UNL     1     -39.559  21.578   1.175  0.00  0.00    +0.171 C 
BRANCH  19  20
ATOM     20  O   UNL     1     -40.320  20.944   2.198  0.00  0.00    -0.379 OA
ATOM     21  H   UNL     1     -39.916  20.090   2.419  0.00  0.00    +0.211 HD
ENDBRANCH  19  20
ENDBRANCH  16  19
ENDBRANCH   3  16
TORSDOF 9
ENDMDL
MODEL 8
REMARK VINA RESULT:      -5.0      2.463      5.258
REMARK  Name = 54702575
REMARK  9 active torsions:
REMARK  status: ('A' for Active; 'I' for Inactive)
REMARK    1  A    between atoms: C_3  and  C_16
REMARK    2  A    between atoms: C_4  and  O_7
REMARK    3  A    between atoms: C_5  and  O_9
REMARK    4  A    between atoms: O_9  and  P_10
REMARK    5  A    between atoms: P_10  and  O_12
REMARK    6  A    between atoms: P_10  and  O_14
REMARK    7  A    between atoms: C_16  and  O_17
REMARK    8  A    between atoms: C_16  and  C_19
REMARK    9  A    between atoms: C_19  and  O_20
REMARK                            x       y       z     vdW  Elec       q    Type
REMARK                         _______ _______ _______ _____ _____    ______ ____
ROOT
ATOM      1  O   UNL     1     -35.410  24.932   2.857  0.00  0.00    -0.436 OA
ATOM      2  O   UNL     1     -37.276  25.255   1.541  0.00  0.00    -0.241 OA
ATOM      3  C   UNL     1     -35.026  23.992   3.881  0.00  0.00    +0.257 C 
ATOM      4  C   UNL     1     -36.198  23.098   3.963  0.00  0.00    +0.195 C 
ATOM      5  C   UNL     1     -37.155  23.459   3.114  0.00  0.00    +0.257 C 
ATOM      6  C   UNL     1     -36.667  24.641   2.399  0.00  0.00    +0.379 C 
ENDROOT
BRANCH   4   7
ATOM      7  O   UNL     1     -36.231  22.025   4.805  0.00  0.00    -0.504 OA
ATOM      8  H   UNL     1     -36.774  22.045   5.568  0.00  0.00    +0.292 HD
ENDBRANCH   4   7
BRANCH   5   9
ATOM      9  O   UNL     1     -38.361  22.872   2.903  0.00  0.00    -0.393 OA
BRANCH   9  10
ATOM     10  P   UNL     1     -38.592  21.689   1.829  0.00  0.00    +0.528 P 
ATOM     11  O   UNL     1     -38.449  22.072   0.385  0.00  0.00    -0.216 OA
BRANCH  10  12
ATOM     12  O   UNL     1     -40.051  21.112   2.224  0.00  0.00    -0.293 OA
ATOM     13  H   UNL     1     -39.972  20.534   2.998  0.00  0.00    +0.223 HD
ENDBRANCH  10  12
BRANCH  10  14
ATOM     14  O   UNL     1     -37.598  20.510   2.318  0.00  0.00    -0.293 OA
ATOM     15  H   UNL     1     -37.842  20.233   3.215  0.00  0.00    +0.223 HD
ENDBRANCH  10  14
ENDBRANCH   9  10
ENDBRANCH   5   9
BRANCH   3  16
ATOM     16  C   UNL     1     -34.742  24.757   5.163  0.00  0.00    +0.187 C 
BRANCH  16  17
ATOM     17  O   UNL     1     -33.560  25.536   4.985  0.00  0.00    -0.378 OA
ATOM     18  H   UNL     1     -32.829  24.958   4.715  0.00  0.00    +0.211 HD
ENDBRANCH  16  17
BRANCH  16  19
ATOM     19  C   UNL     1     -35.886  25.699   5.516  0.00  0.00    +0.171 C 
BRANCH  19  20
ATOM     20  O   UNL     1     -35.677  26.947   4.863  0.00  0.00    -0.379 OA
ATOM     21  H   UNL     1     -36.531  27.388   4.729  0.00  0.00    +0.211 HD
ENDBRANCH  19  20
ENDBRANCH  16  19
ENDBRANCH   3  16
TORSDOF 9
ENDMDL
MODEL 9
REMARK VINA RESULT:      -5.0      2.684      5.593
REMARK  Name = 54702575
REMARK  9 active torsions:
REMARK  status: ('A' for Active; 'I' for Inactive)
REMARK    1  A    between atoms: C_3  and  C_16
REMARK    2  A    between atoms: C_4  and  O_7
REMARK    3  A    between atoms: C_5  and  O_9
REMARK    4  A    between atoms: O_9  and  P_10
REMARK    5  A    between atoms: P_10  and  O_12
REMARK    6  A    between atoms: P_10  and  O_14
REMARK    7  A    between atoms: C_16  and  O_17
REMARK    8  A    between atoms: C_16  and  C_19
REMARK    9  A    between atoms: C_19  and  O_20
REMARK                            x       y       z     vdW  Elec       q    Type
REMARK                         _______ _______ _______ _____ _____    ______ ____
ROOT
ATOM      1  O   UNL     1     -35.223  23.545   4.101  0.00  0.00    -0.436 OA
ATOM      2  O   UNL     1     -35.079  22.247   2.202  0.00  0.00    -0.241 OA
ATOM      3  C   UNL     1     -36.227  24.399   4.688  0.00  0.00    +0.257 C 
ATOM      4  C   UNL     1     -37.353  24.282   3.740  0.00  0.00    +0.195 C 
ATOM      5  C   UNL     1     -37.060  23.479   2.722  0.00  0.00    +0.257 C 
ATOM      6  C   UNL     1     -35.692  23.002   2.935  0.00  0.00    +0.379 C 
ENDROOT
BRANCH   4   7
ATOM      7  O   UNL     1     -38.542  24.917   3.947  0.00  0.00    -0.504 OA
ATOM      8  H   UNL     1     -39.081  24.678   4.675  0.00  0.00    +0.292 HD
ENDBRANCH   4   7
BRANCH   5   9
ATOM      9  O   UNL     1     -37.845  23.127   1.672  0.00  0.00    -0.393 OA
BRANCH   9  10
ATOM     10  P   UNL     1     -38.772  21.805   1.665  0.00  0.00    +0.528 P 
ATOM     11  O   UNL     1     -40.120  21.942   2.313  0.00  0.00    -0.216 OA
BRANCH  10  12
ATOM     12  O   UNL     1     -37.821  20.682   2.336  0.00  0.00    -0.293 OA
ATOM     13  H   UNL     1     -37.142  20.411   1.700  0.00  0.00    +0.223 HD
ENDBRANCH  10  12
BRANCH  10  14
ATOM     14  O   UNL     1     -38.811  21.357   0.111  0.00  0.00    -0.293 OA
ATOM     15  H   UNL     1     -39.733  21.248  -0.171  0.00  0.00    +0.223 HD
ENDBRANCH  10  14
ENDBRANCH   9  10
ENDBRANCH   5   9
BRANCH   3  16
ATOM     16  C   UNL     1     -35.663  25.805   4.807  0.00  0.00    +0.187 C 
BRANCH  16  17
ATOM     17  O   UNL     1     -36.623  26.635   5.457  0.00  0.00    -0.378 OA
ATOM     18  H   UNL     1     -36.469  26.618   6.415  0.00  0.00    +0.211 HD
ENDBRANCH  16  17
BRANCH  16  19
ATOM     19  C   UNL     1     -34.379  25.824   5.629  0.00  0.00    +0.171 C 
BRANCH  19  20
ATOM     20  O   UNL     1     -33.281  25.510   4.779  0.00  0.00    -0.379 OA
ATOM     21  H   UNL     1     -32.692  24.884   5.229  0.00  0.00    +0.211 HD
ENDBRANCH  19  20
ENDBRANCH  16  19
ENDBRANCH   3  16
TORSDOF 9
ENDMDL
