MODEL 1
REMARK VINA RESULT:      -6.8      0.000      0.000
REMARK  Name = 193734
REMARK  11 active torsions:
REMARK  status: ('A' for Active; 'I' for Inactive)
REMARK    1  A    between atoms: C_1  and  C_4
REMARK    2  A    between atoms: C_1  and  N_15
REMARK    3  A    between atoms: C_1  and  C_27
REMARK    4  A    between atoms: N_3  and  C_6
REMARK    5  A    between atoms: C_11  and  N_14
REMARK    6  A    between atoms: N_15  and  S_17
REMARK    7  A    between atoms: S_17  and  C_20
REMARK    8  A    between atoms: C_27  and  C_28
REMARK    9  A    between atoms: C_28  and  C_29
REMARK   10  A    between atoms: C_29  and  N_30
REMARK   11  A    between atoms: N_30  and  C_33
REMARK                            x       y       z     vdW  Elec       q    Type
REMARK                         _______ _______ _______ _____ _____    ______ ____
ROOT
ATOM      1  C   UNL     1     -34.165  29.980   2.688  0.00  0.00    +0.152 C 
ENDROOT
BRANCH   1   4
ATOM      2  O   UNL     1     -32.837  27.974   2.750  0.00  0.00    -0.273 OA
ATOM      3  N   UNL     1     -35.056  27.895   3.506  0.00  0.00    -0.283 N 
ATOM      4  C   UNL     1     -33.919  28.504   2.985  0.00  0.00    +0.242 C 
ATOM      5  H   UNL     1     -35.848  28.472   3.612  0.00  0.00    +0.155 HD
BRANCH   3   6
ATOM      6  C   UNL     1     -35.209  26.544   3.899  0.00  0.00    +0.050 C 
ATOM      7  C   UNL     1     -35.512  25.571   2.947  0.00  0.00    +0.016 C 
ATOM      8  C   UNL     1     -35.054  26.187   5.239  0.00  0.00    +0.016 C 
ATOM      9  C   UNL     1     -35.660  24.238   3.336  0.00  0.00    +0.025 C 
ATOM     10  C   UNL     1     -35.201  24.855   5.627  0.00  0.00    +0.025 C 
ATOM     11  C   UNL     1     -35.505  23.881   4.675  0.00  0.00    +0.143 C 
BRANCH  11  14
ATOM     12  O   UNL     1     -36.012  22.271   6.247  0.00  0.00    -0.126 OA
ATOM     13  O   UNL     1     -35.429  21.619   4.233  0.00  0.00    -0.126 OA
ATOM     14  N   UNL     1     -35.655  22.526   5.070  0.00  0.00    +0.058 N 
ENDBRANCH  11  14
ENDBRANCH   3   6
ENDBRANCH   1   4
BRANCH   1  15
ATOM     15  N   UNL     1     -35.638  30.075   2.550  0.00  0.00    -0.172 NA
ATOM     16  H   UNL     1     -36.024  29.189   2.875  0.00  0.00    +0.149 HD
BRANCH  15  17
ATOM     17  S   UNL     1     -36.325  30.380   1.028  0.00  0.00    +0.061 S 
ATOM     18  O   UNL     1     -37.508  29.558   0.858  0.00  0.00    -0.153 OA
ATOM     19  O   UNL     1     -35.275  30.361   0.029  0.00  0.00    -0.153 OA
BRANCH  17  20
ATOM     20  C   UNL     1     -36.849  32.060   1.194  0.00  0.00    +0.122 C 
ATOM     21  C   UNL     1     -38.161  32.346   1.574  0.00  0.00    +0.020 C 
ATOM     22  C   UNL     1     -35.952  33.099   0.948  0.00  0.00    +0.020 C 
ATOM     23  C   UNL     1     -37.677  34.710   1.459  0.00  0.00    -0.022 C 
ATOM     24  C   UNL     1     -38.575  33.671   1.706  0.00  0.00    -0.003 C 
ATOM     25  C   UNL     1     -36.366  34.424   1.080  0.00  0.00    -0.003 C 
ATOM     26  C   UNL     1     -38.121  36.128   1.599  0.00  0.00    +0.031 C 
ENDBRANCH  17  20
ENDBRANCH  15  17
ENDBRANCH   1  15
BRANCH   1  27
ATOM     27  C   UNL     1     -33.715  30.915   3.813  0.00  0.00    +0.029 C 
BRANCH  27  28
ATOM     28  C   UNL     1     -32.232  31.284   3.691  0.00  0.00    +0.028 C 
BRANCH  28  29
ATOM     29  C   UNL     1     -31.381  30.647   4.784  0.00  0.00    +0.129 C 
BRANCH  29  30
ATOM     30  N   UNL     1     -32.243  30.121   5.843  0.00  0.00    -0.240 NA
BRANCH  30  33
ATOM     31  N   UNL     1     -32.389  27.961   6.884  0.00  0.00    -0.370 N 
ATOM     32  N   UNL     1     -30.498  29.218   7.073  0.00  0.00    -0.370 N 
ATOM     33  C   UNL     1     -31.768  29.144   6.552  0.00  0.00    +0.189 C 
ATOM     34  H   UNL     1     -33.306  27.781   6.574  0.00  0.00    +0.159 HD
ATOM     35  H   UNL     1     -31.917  27.293   7.434  0.00  0.00    +0.159 HD
ATOM     36  H   UNL     1     -29.945  30.016   6.909  0.00  0.00    +0.159 HD
ATOM     37  H   UNL     1     -30.142  28.474   7.610  0.00  0.00    +0.159 HD
ENDBRANCH  30  33
ENDBRANCH  29  30
ENDBRANCH  28  29
ENDBRANCH  27  28
ENDBRANCH   1  27
TORSDOF 11
ENDMDL
MODEL 2
REMARK VINA RESULT:      -6.7      5.628     10.525
REMARK  Name = 193734
REMARK  11 active torsions:
REMARK  status: ('A' for Active; 'I' for Inactive)
REMARK    1  A    between atoms: C_1  and  C_4
REMARK    2  A    between atoms: C_1  and  N_15
REMARK    3  A    between atoms: C_1  and  C_27
REMARK    4  A    between atoms: N_3  and  C_6
REMARK    5  A    between atoms: C_11  and  N_14
REMARK    6  A    between atoms: N_15  and  S_17
REMARK    7  A    between atoms: S_17  and  C_20
REMARK    8  A    between atoms: C_27  and  C_28
REMARK    9  A    between atoms: C_28  and  C_29
REMARK   10  A    between atoms: C_29  and  N_30
REMARK   11  A    between atoms: N_30  and  C_33
REMARK                            x       y       z     vdW  Elec       q    Type
REMARK                         _______ _______ _______ _____ _____    ______ ____
ROOT
ATOM      1  C   UNL     1     -37.035  21.233   1.593  0.00  0.00    +0.152 C 
ENDROOT
BRANCH   1   4
ATOM      2  O   UNL     1     -35.412  21.159   3.368  0.00  0.00    -0.273 OA
ATOM      3  N   UNL     1     -36.129  23.244   2.566  0.00  0.00    -0.283 N 
ATOM      4  C   UNL     1     -36.086  21.853   2.613  0.00  0.00    +0.242 C 
ATOM      5  H   UNL     1     -36.745  23.637   1.905  0.00  0.00    +0.155 HD
BRANCH   3   6
ATOM      6  C   UNL     1     -35.393  24.158   3.357  0.00  0.00    +0.050 C 
ATOM      7  C   UNL     1     -34.441  24.985   2.762  0.00  0.00    +0.016 C 
ATOM      8  C   UNL     1     -35.622  24.232   4.731  0.00  0.00    +0.016 C 
ATOM      9  C   UNL     1     -33.717  25.888   3.542  0.00  0.00    +0.025 C 
ATOM     10  C   UNL     1     -34.899  25.134   5.511  0.00  0.00    +0.025 C 
ATOM     11  C   UNL     1     -33.946  25.962   4.916  0.00  0.00    +0.143 C 
BRANCH  11  14
ATOM     12  O   UNL     1     -32.855  27.973   5.204  0.00  0.00    -0.126 OA
ATOM     13  O   UNL     1     -32.934  26.576   6.895  0.00  0.00    -0.126 OA
ATOM     14  N   UNL     1     -33.209  26.881   5.710  0.00  0.00    +0.058 N 
ENDBRANCH  11  14
ENDBRANCH   3   6
ENDBRANCH   1   4
BRANCH   1  15
ATOM     15  N   UNL     1     -36.657  19.799   1.582  0.00  0.00    -0.172 NA
ATOM     16  H   UNL     1     -35.850  19.700   2.198  0.00  0.00    +0.149 HD
BRANCH  15  17
ATOM     17  S   UNL     1     -36.252  19.044   0.117  0.00  0.00    +0.061 S 
ATOM     18  O   UNL     1     -36.384  19.996  -0.970  0.00  0.00    -0.153 OA
ATOM     19  O   UNL     1     -36.927  17.763   0.049  0.00  0.00    -0.153 OA
BRANCH  17  20
ATOM     20  C   UNL     1     -34.531  18.709   0.342  0.00  0.00    +0.122 C 
ATOM     21  C   UNL     1     -34.062  17.397   0.276  0.00  0.00    +0.020 C 
ATOM     22  C   UNL     1     -33.642  19.756   0.584  0.00  0.00    +0.020 C 
ATOM     23  C   UNL     1     -31.816  18.179   0.695  0.00  0.00    -0.022 C 
ATOM     24  C   UNL     1     -32.705  17.132   0.453  0.00  0.00    -0.003 C 
ATOM     25  C   UNL     1     -32.284  19.491   0.761  0.00  0.00    -0.003 C 
ATOM     26  C   UNL     1     -30.363  17.895   0.885  0.00  0.00    +0.031 C 
ENDBRANCH  17  20
ENDBRANCH  15  17
ENDBRANCH   1  15
BRANCH   1  27
ATOM     27  C   UNL     1     -38.511  21.349   1.980  0.00  0.00    +0.029 C 
BRANCH  27  28
ATOM     28  C   UNL     1     -39.237  22.415   1.150  0.00  0.00    +0.028 C 
BRANCH  28  29
ATOM     29  C   UNL     1     -39.994  23.413   2.020  0.00  0.00    +0.129 C 
BRANCH  29  30
ATOM     30  N   UNL     1     -39.102  23.958   3.045  0.00  0.00    -0.240 NA
BRANCH  30  33
ATOM     31  N   UNL     1     -38.281  26.197   3.335  0.00  0.00    -0.370 N 
ATOM     32  N   UNL     1     -40.477  25.706   3.699  0.00  0.00    -0.370 N 
ATOM     33  C   UNL     1     -39.246  25.214   3.336  0.00  0.00    +0.189 C 
ATOM     34  H   UNL     1     -37.353  25.976   3.093  0.00  0.00    +0.159 HD
ATOM     35  H   UNL     1     -38.519  27.122   3.578  0.00  0.00    +0.159 HD
ATOM     36  H   UNL     1     -41.255  25.104   3.740  0.00  0.00    +0.159 HD
ATOM     37  H   UNL     1     -40.581  26.660   3.919  0.00  0.00    +0.159 HD
ENDBRANCH  30  33
ENDBRANCH  29  30
ENDBRANCH  28  29
ENDBRANCH  27  28
ENDBRANCH   1  27
TORSDOF 11
ENDMDL
MODEL 3
REMARK VINA RESULT:      -6.5      2.768      8.031
REMARK  Name = 193734
REMARK  11 active torsions:
REMARK  status: ('A' for Active; 'I' for Inactive)
REMARK    1  A    between atoms: C_1  and  C_4
REMARK    2  A    between atoms: C_1  and  N_15
REMARK    3  A    between atoms: C_1  and  C_27
REMARK    4  A    between atoms: N_3  and  C_6
REMARK    5  A    between atoms: C_11  and  N_14
REMARK    6  A    between atoms: N_15  and  S_17
REMARK    7  A    between atoms: S_17  and  C_20
REMARK    8  A    between atoms: C_27  and  C_28
REMARK    9  A    between atoms: C_28  and  C_29
REMARK   10  A    between atoms: C_29  and  N_30
REMARK   11  A    between atoms: N_30  and  C_33
REMARK                            x       y       z     vdW  Elec       q    Type
REMARK                         _______ _______ _______ _____ _____    ______ ____
ROOT
ATOM      1  C   UNL     1     -35.442  26.742   3.045  0.00  0.00    +0.152 C 
ENDROOT
BRANCH   1   4
ATOM      2  O   UNL     1     -35.011  27.910   0.986  0.00  0.00    -0.273 OA
ATOM      3  N   UNL     1     -35.352  29.149   2.949  0.00  0.00    -0.283 N 
ATOM      4  C   UNL     1     -35.248  27.989   2.188  0.00  0.00    +0.242 C 
ATOM      5  H   UNL     1     -35.529  29.025   3.910  0.00  0.00    +0.155 HD
BRANCH   3   6
ATOM      6  C   UNL     1     -35.231  30.487   2.503  0.00  0.00    +0.050 C 
ATOM      7  C   UNL     1     -36.295  31.102   1.845  0.00  0.00    +0.016 C 
ATOM      8  C   UNL     1     -34.047  31.191   2.725  0.00  0.00    +0.016 C 
ATOM      9  C   UNL     1     -36.176  32.423   1.409  0.00  0.00    +0.025 C 
ATOM     10  C   UNL     1     -33.927  32.510   2.290  0.00  0.00    +0.025 C 
ATOM     11  C   UNL     1     -34.992  33.126   1.631  0.00  0.00    +0.143 C 
BRANCH  11  14
ATOM     12  O   UNL     1     -35.570  34.855   0.218  0.00  0.00    -0.126 OA
ATOM     13  O   UNL     1     -34.068  35.234   1.773  0.00  0.00    -0.126 OA
ATOM     14  N   UNL     1     -34.871  34.469   1.186  0.00  0.00    +0.058 N 
ENDBRANCH  11  14
ENDBRANCH   3   6
ENDBRANCH   1   4
BRANCH   1  15
ATOM     15  N   UNL     1     -35.014  27.171   4.399  0.00  0.00    -0.172 NA
ATOM     16  H   UNL     1     -34.852  28.177   4.353  0.00  0.00    +0.149 HD
BRANCH  15  17
ATOM     17  S   UNL     1     -33.633  26.482   5.105  0.00  0.00    +0.061 S 
ATOM     18  O   UNL     1     -33.107  25.451   4.231  0.00  0.00    -0.153 OA
ATOM     19  O   UNL     1     -33.919  26.184   6.495  0.00  0.00    -0.153 OA
BRANCH  17  20
ATOM     20  C   UNL     1     -32.500  27.838   5.091  0.00  0.00    +0.122 C 
ATOM     21  C   UNL     1     -32.132  28.452   6.289  0.00  0.00    +0.020 C 
ATOM     22  C   UNL     1     -31.972  28.294   3.883  0.00  0.00    +0.020 C 
ATOM     23  C   UNL     1     -30.710  29.978   5.071  0.00  0.00    -0.022 C 
ATOM     24  C   UNL     1     -31.238  29.521   6.278  0.00  0.00    -0.003 C 
ATOM     25  C   UNL     1     -31.077  29.365   3.873  0.00  0.00    -0.003 C 
ATOM     26  C   UNL     1     -29.754  31.123   5.059  0.00  0.00    +0.031 C 
ENDBRANCH  17  20
ENDBRANCH  15  17
ENDBRANCH   1  15
BRANCH   1  27
ATOM     27  C   UNL     1     -36.895  26.268   3.117  0.00  0.00    +0.029 C 
BRANCH  27  28
ATOM     28  C   UNL     1     -37.104  25.236   4.232  0.00  0.00    +0.028 C 
BRANCH  28  29
ATOM     29  C   UNL     1     -36.394  23.916   3.945  0.00  0.00    +0.129 C 
BRANCH  29  30
ATOM     30  N   UNL     1     -35.948  23.308   5.199  0.00  0.00    -0.240 NA
BRANCH  30  33
ATOM     31  N   UNL     1     -35.584  21.214   4.080  0.00  0.00    -0.370 N 
ATOM     32  N   UNL     1     -34.778  21.565   6.182  0.00  0.00    -0.370 N 
ATOM     33  C   UNL     1     -35.478  22.101   5.127  0.00  0.00    +0.189 C 
ATOM     34  H   UNL     1     -36.064  21.474   3.260  0.00  0.00    +0.159 HD
ATOM     35  H   UNL     1     -35.180  20.318   4.149  0.00  0.00    +0.159 HD
ATOM     36  H   UNL     1     -34.631  22.098   6.997  0.00  0.00    +0.159 HD
ATOM     37  H   UNL     1     -34.423  20.649   6.123  0.00  0.00    +0.159 HD
ENDBRANCH  30  33
ENDBRANCH  29  30
ENDBRANCH  28  29
ENDBRANCH  27  28
ENDBRANCH   1  27
TORSDOF 11
ENDMDL
MODEL 4
REMARK VINA RESULT:      -6.5      6.894     10.397
REMARK  Name = 193734
REMARK  11 active torsions:
REMARK  status: ('A' for Active; 'I' for Inactive)
REMARK    1  A    between atoms: C_1  and  C_4
REMARK    2  A    between atoms: C_1  and  N_15
REMARK    3  A    between atoms: C_1  and  C_27
REMARK    4  A    between atoms: N_3  and  C_6
REMARK    5  A    between atoms: C_11  and  N_14
REMARK    6  A    between atoms: N_15  and  S_17
REMARK    7  A    between atoms: S_17  and  C_20
REMARK    8  A    between atoms: C_27  and  C_28
REMARK    9  A    between atoms: C_28  and  C_29
REMARK   10  A    between atoms: C_29  and  N_30
REMARK   11  A    between atoms: N_30  and  C_33
REMARK                            x       y       z     vdW  Elec       q    Type
REMARK                         _______ _______ _______ _____ _____    ______ ____
ROOT
ATOM      1  C   UNL     1     -38.074  21.092   0.880  0.00  0.00    +0.152 C 
ENDROOT
BRANCH   1   4
ATOM      2  O   UNL     1     -40.072  21.253   2.209  0.00  0.00    -0.273 OA
ATOM      3  N   UNL     1     -39.088  23.218   1.388  0.00  0.00    -0.283 N 
ATOM      4  C   UNL     1     -39.197  21.845   1.583  0.00  0.00    +0.242 C 
ATOM      5  H   UNL     1     -38.327  23.520   0.840  0.00  0.00    +0.155 HD
BRANCH   3   6
ATOM      6  C   UNL     1     -39.942  24.232   1.885  0.00  0.00    +0.050 C 
ATOM      7  C   UNL     1     -39.645  24.866   3.091  0.00  0.00    +0.016 C 
ATOM      8  C   UNL     1     -41.080  24.598   1.166  0.00  0.00    +0.016 C 
ATOM      9  C   UNL     1     -40.486  25.867   3.579  0.00  0.00    +0.025 C 
ATOM     10  C   UNL     1     -41.921  25.599   1.653  0.00  0.00    +0.025 C 
ATOM     11  C   UNL     1     -41.624  26.233   2.860  0.00  0.00    +0.143 C 
BRANCH  11  14
ATOM     12  O   UNL     1     -43.598  26.929   3.828  0.00  0.00    -0.126 OA
ATOM     13  O   UNL     1     -42.096  28.444   3.310  0.00  0.00    -0.126 OA
ATOM     14  N   UNL     1     -42.480  27.251   3.356  0.00  0.00    +0.058 N 
ENDBRANCH  11  14
ENDBRANCH   3   6
ENDBRANCH   1   4
BRANCH   1  15
ATOM     15  N   UNL     1     -37.252  20.557   1.992  0.00  0.00    -0.172 NA
ATOM     16  H   UNL     1     -37.702  20.849   2.860  0.00  0.00    +0.149 HD
BRANCH  15  17
ATOM     17  S   UNL     1     -35.616  20.991   2.117  0.00  0.00    +0.061 S 
ATOM     18  O   UNL     1     -35.126  21.409   0.817  0.00  0.00    -0.153 OA
ATOM     19  O   UNL     1     -34.916  19.964   2.864  0.00  0.00    -0.153 OA
BRANCH  17  20
ATOM     20  C   UNL     1     -35.695  22.419   3.155  0.00  0.00    +0.122 C 
ATOM     21  C   UNL     1     -35.558  22.285   4.537  0.00  0.00    +0.020 C 
ATOM     22  C   UNL     1     -35.892  23.680   2.593  0.00  0.00    +0.020 C 
ATOM     23  C   UNL     1     -35.817  24.672   4.795  0.00  0.00    -0.022 C 
ATOM     24  C   UNL     1     -35.620  23.411   5.356  0.00  0.00    -0.003 C 
ATOM     25  C   UNL     1     -35.953  24.807   3.414  0.00  0.00    -0.003 C 
ATOM     26  C   UNL     1     -35.884  25.878   5.672  0.00  0.00    +0.031 C 
ENDBRANCH  17  20
ENDBRANCH  15  17
ENDBRANCH   1  15
BRANCH   1  27
ATOM     27  C   UNL     1     -38.563  19.921   0.024  0.00  0.00    +0.029 C 
BRANCH  27  28
ATOM     28  C   UNL     1     -37.417  19.268  -0.759  0.00  0.00    +0.028 C 
BRANCH  28  29
ATOM     29  C   UNL     1     -37.297  17.774  -0.479  0.00  0.00    +0.129 C 
BRANCH  29  30
ATOM     30  N   UNL     1     -36.012  17.276  -0.971  0.00  0.00    -0.240 NA
BRANCH  30  33
ATOM     31  N   UNL     1     -34.279  17.767   0.619  0.00  0.00    -0.370 N 
ATOM     32  N   UNL     1     -34.973  15.623   0.279  0.00  0.00    -0.370 N 
ATOM     33  C   UNL     1     -35.134  16.941  -0.076  0.00  0.00    +0.189 C 
ATOM     34  H   UNL     1     -34.292  18.738   0.458  0.00  0.00    +0.159 HD
ATOM     35  H   UNL     1     -33.654  17.386   1.278  0.00  0.00    +0.159 HD
ATOM     36  H   UNL     1     -35.526  14.928  -0.146  0.00  0.00    +0.159 HD
ATOM     37  H   UNL     1     -34.306  15.374   0.959  0.00  0.00    +0.159 HD
ENDBRANCH  30  33
ENDBRANCH  29  30
ENDBRANCH  28  29
ENDBRANCH  27  28
ENDBRANCH   1  27
TORSDOF 11
ENDMDL
MODEL 5
REMARK VINA RESULT:      -6.5      5.004      8.562
REMARK  Name = 193734
REMARK  11 active torsions:
REMARK  status: ('A' for Active; 'I' for Inactive)
REMARK    1  A    between atoms: C_1  and  C_4
REMARK    2  A    between atoms: C_1  and  N_15
REMARK    3  A    between atoms: C_1  and  C_27
REMARK    4  A    between atoms: N_3  and  C_6
REMARK    5  A    between atoms: C_11  and  N_14
REMARK    6  A    between atoms: N_15  and  S_17
REMARK    7  A    between atoms: S_17  and  C_20
REMARK    8  A    between atoms: C_27  and  C_28
REMARK    9  A    between atoms: C_28  and  C_29
REMARK   10  A    between atoms: C_29  and  N_30
REMARK   11  A    between atoms: N_30  and  C_33
REMARK                            x       y       z     vdW  Elec       q    Type
REMARK                         _______ _______ _______ _____ _____    ______ ____
ROOT
ATOM      1  C   UNL     1     -35.567  23.017   3.796  0.00  0.00    +0.152 C 
ENDROOT
BRANCH   1   4
ATOM      2  O   UNL     1     -35.249  20.694   4.336  0.00  0.00    -0.273 OA
ATOM      3  N   UNL     1     -35.229  21.354   2.084  0.00  0.00    -0.283 N 
ATOM      4  C   UNL     1     -35.338  21.548   3.458  0.00  0.00    +0.242 C 
ATOM      5  H   UNL     1     -35.308  22.160   1.524  0.00  0.00    +0.155 HD
BRANCH   3   6
ATOM      6  C   UNL     1     -35.015  20.134   1.399  0.00  0.00    +0.050 C 
ATOM      7  C   UNL     1     -33.776  19.498   1.477  0.00  0.00    +0.016 C 
ATOM      8  C   UNL     1     -36.044  19.568   0.647  0.00  0.00    +0.016 C 
ATOM      9  C   UNL     1     -33.567  18.294   0.803  0.00  0.00    +0.025 C 
ATOM     10  C   UNL     1     -35.836  18.364  -0.026  0.00  0.00    +0.025 C 
ATOM     11  C   UNL     1     -34.596  17.728   0.051  0.00  0.00    +0.143 C 
BRANCH  11  14
ATOM     12  O   UNL     1     -35.026  15.486  -0.277  0.00  0.00    -0.126 OA
ATOM     13  O   UNL     1     -33.560  16.471  -1.580  0.00  0.00    -0.126 OA
ATOM     14  N   UNL     1     -34.383  16.503  -0.635  0.00  0.00    +0.058 N 
ENDBRANCH  11  14
ENDBRANCH   3   6
ENDBRANCH   1   4
BRANCH   1  15
ATOM     15  N   UNL     1     -37.036  23.119   3.971  0.00  0.00    -0.172 NA
ATOM     16  H   UNL     1     -37.413  22.178   3.856  0.00  0.00    +0.149 HD
BRANCH  15  17
ATOM     17  S   UNL     1     -37.938  24.137   2.956  0.00  0.00    +0.061 S 
ATOM     18  O   UNL     1     -37.065  25.143   2.381  0.00  0.00    -0.153 OA
ATOM     19  O   UNL     1     -39.149  24.533   3.649  0.00  0.00    -0.153 OA
BRANCH  17  20
ATOM     20  C   UNL     1     -38.421  23.032   1.665  0.00  0.00    +0.122 C 
ATOM     21  C   UNL     1     -37.870  23.166   0.390  0.00  0.00    +0.020 C 
ATOM     22  C   UNL     1     -39.352  22.025   1.919  0.00  0.00    +0.020 C 
ATOM     23  C   UNL     1     -39.180  21.287  -0.374  0.00  0.00    -0.022 C 
ATOM     24  C   UNL     1     -38.250  22.294  -0.629  0.00  0.00    -0.003 C 
ATOM     25  C   UNL     1     -39.732  21.152   0.899  0.00  0.00    -0.003 C 
ATOM     26  C   UNL     1     -39.588  20.354  -1.466  0.00  0.00    +0.031 C 
ENDBRANCH  17  20
ENDBRANCH  15  17
ENDBRANCH   1  15
BRANCH   1  27
ATOM     27  C   UNL     1     -34.886  23.461   5.093  0.00  0.00    +0.029 C 
BRANCH  27  28
ATOM     28  C   UNL     1     -35.410  24.818   5.578  0.00  0.00    +0.028 C 
BRANCH  28  29
ATOM     29  C   UNL     1     -34.293  25.839   5.770  0.00  0.00    +0.129 C 
BRANCH  29  30
ATOM     30  N   UNL     1     -33.602  26.067   4.501  0.00  0.00    -0.240 NA
BRANCH  30  33
ATOM     31  N   UNL     1     -34.937  27.929   3.778  0.00  0.00    -0.370 N 
ATOM     32  N   UNL     1     -34.274  26.328   2.298  0.00  0.00    -0.370 N 
ATOM     33  C   UNL     1     -34.240  26.754   3.604  0.00  0.00    +0.189 C 
ATOM     34  H   UNL     1     -34.992  28.343   4.670  0.00  0.00    +0.159 HD
ATOM     35  H   UNL     1     -35.382  28.356   3.010  0.00  0.00    +0.159 HD
ATOM     36  H   UNL     1     -33.813  25.498   2.039  0.00  0.00    +0.159 HD
ATOM     37  H   UNL     1     -34.759  26.853   1.621  0.00  0.00    +0.159 HD
ENDBRANCH  30  33
ENDBRANCH  29  30
ENDBRANCH  28  29
ENDBRANCH  27  28
ENDBRANCH   1  27
TORSDOF 11
ENDMDL
MODEL 6
REMARK VINA RESULT:      -6.4      5.891     10.164
REMARK  Name = 193734
REMARK  11 active torsions:
REMARK  status: ('A' for Active; 'I' for Inactive)
REMARK    1  A    between atoms: C_1  and  C_4
REMARK    2  A    between atoms: C_1  and  N_15
REMARK    3  A    between atoms: C_1  and  C_27
REMARK    4  A    between atoms: N_3  and  C_6
REMARK    5  A    between atoms: C_11  and  N_14
REMARK    6  A    between atoms: N_15  and  S_17
REMARK    7  A    between atoms: S_17  and  C_20
REMARK    8  A    between atoms: C_27  and  C_28
REMARK    9  A    between atoms: C_28  and  C_29
REMARK   10  A    between atoms: C_29  and  N_30
REMARK   11  A    between atoms: N_30  and  C_33
REMARK                            x       y       z     vdW  Elec       q    Type
REMARK                         _______ _______ _______ _____ _____    ______ ____
ROOT
ATOM      1  C   UNL     1     -36.084  21.640   2.556  0.00  0.00    +0.152 C 
ENDROOT
BRANCH   1   4
ATOM      2  O   UNL     1     -38.450  21.545   2.130  0.00  0.00    -0.273 OA
ATOM      3  N   UNL     1     -37.421  23.638   2.381  0.00  0.00    -0.283 N 
ATOM      4  C   UNL     1     -37.465  22.248   2.337  0.00  0.00    +0.242 C 
ATOM      5  H   UNL     1     -36.535  24.040   2.541  0.00  0.00    +0.155 HD
BRANCH   3   6
ATOM      6  C   UNL     1     -38.498  24.542   2.221  0.00  0.00    +0.050 C 
ATOM      7  C   UNL     1     -39.370  24.782   3.283  0.00  0.00    +0.016 C 
ATOM      8  C   UNL     1     -38.686  25.194   1.002  0.00  0.00    +0.016 C 
ATOM      9  C   UNL     1     -40.431  25.675   3.126  0.00  0.00    +0.025 C 
ATOM     10  C   UNL     1     -39.746  26.087   0.845  0.00  0.00    +0.025 C 
ATOM     11  C   UNL     1     -40.619  26.327   1.907  0.00  0.00    +0.143 C 
BRANCH  11  14
ATOM     12  O   UNL     1     -41.493  28.327   1.164  0.00  0.00    -0.126 OA
ATOM     13  O   UNL     1     -42.828  26.922   2.192  0.00  0.00    -0.126 OA
ATOM     14  N   UNL     1     -41.698  27.235   1.747  0.00  0.00    +0.058 N 
ENDBRANCH  11  14
ENDBRANCH   3   6
ENDBRANCH   1   4
BRANCH   1  15
ATOM     15  N   UNL     1     -35.466  21.664   1.208  0.00  0.00    -0.172 NA
ATOM     16  H   UNL     1     -35.924  22.410   0.685  0.00  0.00    +0.149 HD
BRANCH  15  17
ATOM     17  S   UNL     1     -35.518  20.277   0.231  0.00  0.00    +0.061 S 
ATOM     18  O   UNL     1     -35.716  20.667  -1.152  0.00  0.00    -0.153 OA
ATOM     19  O   UNL     1     -36.400  19.304   0.847  0.00  0.00    -0.153 OA
BRANCH  17  20
ATOM     20  C   UNL     1     -33.872  19.655   0.391  0.00  0.00    +0.122 C 
ATOM     21  C   UNL     1     -32.796  20.396  -0.098  0.00  0.00    +0.020 C 
ATOM     22  C   UNL     1     -33.647  18.424   1.008  0.00  0.00    +0.020 C 
ATOM     23  C   UNL     1     -31.272  18.676   0.646  0.00  0.00    -0.022 C 
ATOM     24  C   UNL     1     -31.497  19.906   0.029  0.00  0.00    -0.003 C 
ATOM     25  C   UNL     1     -32.347  17.934   1.135  0.00  0.00    -0.003 C 
ATOM     26  C   UNL     1     -29.882  18.151   0.780  0.00  0.00    +0.031 C 
ENDBRANCH  17  20
ENDBRANCH  15  17
ENDBRANCH   1  15
BRANCH   1  27
ATOM     27  C   UNL     1     -35.204  22.448   3.513  0.00  0.00    +0.029 C 
BRANCH  27  28
ATOM     28  C   UNL     1     -35.327  21.951   4.959  0.00  0.00    +0.028 C 
BRANCH  28  29
ATOM     29  C   UNL     1     -35.591  23.085   5.943  0.00  0.00    +0.129 C 
BRANCH  29  30
ATOM     30  N   UNL     1     -36.256  24.195   5.259  0.00  0.00    -0.240 NA
BRANCH  30  33
ATOM     31  N   UNL     1     -34.439  25.691   5.738  0.00  0.00    -0.370 N 
ATOM     32  N   UNL     1     -36.520  26.498   5.277  0.00  0.00    -0.370 N 
ATOM     33  C   UNL     1     -35.740  25.374   5.421  0.00  0.00    +0.189 C 
ATOM     34  H   UNL     1     -33.775  24.975   5.869  0.00  0.00    +0.159 HD
ATOM     35  H   UNL     1     -34.170  26.634   5.834  0.00  0.00    +0.159 HD
ATOM     36  H   UNL     1     -37.474  26.409   5.051  0.00  0.00    +0.159 HD
ATOM     37  H   UNL     1     -36.124  27.390   5.401  0.00  0.00    +0.159 HD
ENDBRANCH  30  33
ENDBRANCH  29  30
ENDBRANCH  28  29
ENDBRANCH  27  28
ENDBRANCH   1  27
TORSDOF 11
ENDMDL
MODEL 7
REMARK VINA RESULT:      -6.4      3.595      6.941
REMARK  Name = 193734
REMARK  11 active torsions:
REMARK  status: ('A' for Active; 'I' for Inactive)
REMARK    1  A    between atoms: C_1  and  C_4
REMARK    2  A    between atoms: C_1  and  N_15
REMARK    3  A    between atoms: C_1  and  C_27
REMARK    4  A    between atoms: N_3  and  C_6
REMARK    5  A    between atoms: C_11  and  N_14
REMARK    6  A    between atoms: N_15  and  S_17
REMARK    7  A    between atoms: S_17  and  C_20
REMARK    8  A    between atoms: C_27  and  C_28
REMARK    9  A    between atoms: C_28  and  C_29
REMARK   10  A    between atoms: C_29  and  N_30
REMARK   11  A    between atoms: N_30  and  C_33
REMARK                            x       y       z     vdW  Elec       q    Type
REMARK                         _______ _______ _______ _____ _____    ______ ____
ROOT
ATOM      1  C   UNL     1     -35.262  27.997   2.781  0.00  0.00    +0.152 C 
ENDROOT
BRANCH   1   4
ATOM      2  O   UNL     1     -35.957  27.053   0.679  0.00  0.00    -0.273 OA
ATOM      3  N   UNL     1     -37.296  26.719   2.577  0.00  0.00    -0.283 N 
ATOM      4  C   UNL     1     -36.194  27.199   1.875  0.00  0.00    +0.242 C 
ATOM      5  H   UNL     1     -37.335  26.947   3.534  0.00  0.00    +0.155 HD
BRANCH   3   6
ATOM      6  C   UNL     1     -38.368  25.942   2.075  0.00  0.00    +0.050 C 
ATOM      7  C   UNL     1     -38.397  24.566   2.299  0.00  0.00    +0.016 C 
ATOM      8  C   UNL     1     -39.396  26.555   1.358  0.00  0.00    +0.016 C 
ATOM      9  C   UNL     1     -39.455  23.801   1.807  0.00  0.00    +0.025 C 
ATOM     10  C   UNL     1     -40.454  25.791   0.866  0.00  0.00    +0.025 C 
ATOM     11  C   UNL     1     -40.483  24.414   1.090  0.00  0.00    +0.143 C 
BRANCH  11  14
ATOM     12  O   UNL     1     -42.718  24.118   0.606  0.00  0.00    -0.126 OA
ATOM     13  O   UNL     1     -41.324  22.488   0.141  0.00  0.00    -0.126 OA
ATOM     14  N   UNL     1     -41.560  23.636   0.589  0.00  0.00    +0.058 N 
ENDBRANCH  11  14
ENDBRANCH   3   6
ENDBRANCH   1   4
BRANCH   1  15
ATOM     15  N   UNL     1     -34.230  27.012   3.186  0.00  0.00    -0.172 NA
ATOM     16  H   UNL     1     -34.152  26.336   2.427  0.00  0.00    +0.149 HD
BRANCH  15  17
ATOM     17  S   UNL     1     -34.428  26.123   4.618  0.00  0.00    +0.061 S 
ATOM     18  O   UNL     1     -35.584  26.620   5.340  0.00  0.00    -0.153 OA
ATOM     19  O   UNL     1     -33.144  26.016   5.283  0.00  0.00    -0.153 OA
BRANCH  17  20
ATOM     20  C   UNL     1     -34.823  24.516   3.998  0.00  0.00    +0.122 C 
ATOM     21  C   UNL     1     -35.281  23.526   4.869  0.00  0.00    +0.020 C 
ATOM     22  C   UNL     1     -34.680  24.237   2.639  0.00  0.00    +0.020 C 
ATOM     23  C   UNL     1     -35.451  21.980   3.021  0.00  0.00    -0.022 C 
ATOM     24  C   UNL     1     -35.595  22.259   4.380  0.00  0.00    -0.003 C 
ATOM     25  C   UNL     1     -34.993  22.968   2.151  0.00  0.00    -0.003 C 
ATOM     26  C   UNL     1     -35.785  20.622   2.499  0.00  0.00    +0.031 C 
ENDBRANCH  17  20
ENDBRANCH  15  17
ENDBRANCH   1  15
BRANCH   1  27
ATOM     27  C   UNL     1     -34.574  29.167   2.074  0.00  0.00    +0.029 C 
BRANCH  27  28
ATOM     28  C   UNL     1     -34.400  30.374   3.005  0.00  0.00    +0.028 C 
BRANCH  28  29
ATOM     29  C   UNL     1     -32.950  30.577   3.428  0.00  0.00    +0.129 C 
BRANCH  29  30
ATOM     30  N   UNL     1     -32.811  30.335   4.865  0.00  0.00    -0.240 NA
BRANCH  30  33
ATOM     31  N   UNL     1     -32.105  28.701   6.478  0.00  0.00    -0.370 N 
ATOM     32  N   UNL     1     -31.547  28.482   4.280  0.00  0.00    -0.370 N 
ATOM     33  C   UNL     1     -32.202  29.245   5.217  0.00  0.00    +0.189 C 
ATOM     34  H   UNL     1     -32.531  29.151   7.244  0.00  0.00    +0.159 HD
ATOM     35  H   UNL     1     -31.609  27.861   6.616  0.00  0.00    +0.159 HD
ATOM     36  H   UNL     1     -31.540  28.762   3.336  0.00  0.00    +0.159 HD
ATOM     37  H   UNL     1     -31.086  27.656   4.552  0.00  0.00    +0.159 HD
ENDBRANCH  30  33
ENDBRANCH  29  30
ENDBRANCH  28  29
ENDBRANCH  27  28
ENDBRANCH   1  27
TORSDOF 11
ENDMDL
MODEL 8
REMARK VINA RESULT:      -6.4      5.765      9.679
REMARK  Name = 193734
REMARK  11 active torsions:
REMARK  status: ('A' for Active; 'I' for Inactive)
REMARK    1  A    between atoms: C_1  and  C_4
REMARK    2  A    between atoms: C_1  and  N_15
REMARK    3  A    between atoms: C_1  and  C_27
REMARK    4  A    between atoms: N_3  and  C_6
REMARK    5  A    between atoms: C_11  and  N_14
REMARK    6  A    between atoms: N_15  and  S_17
REMARK    7  A    between atoms: S_17  and  C_20
REMARK    8  A    between atoms: C_27  and  C_28
REMARK    9  A    between atoms: C_28  and  C_29
REMARK   10  A    between atoms: C_29  and  N_30
REMARK   11  A    between atoms: N_30  and  C_33
REMARK                            x       y       z     vdW  Elec       q    Type
REMARK                         _______ _______ _______ _____ _____    ______ ____
ROOT
ATOM      1  C   UNL     1     -35.462  23.120   2.181  0.00  0.00    +0.152 C 
ENDROOT
BRANCH   1   4
ATOM      2  O   UNL     1     -37.291  23.123   3.743  0.00  0.00    -0.273 OA
ATOM      3  N   UNL     1     -37.598  24.090   1.628  0.00  0.00    -0.283 N 
ATOM      4  C   UNL     1     -36.883  23.442   2.631  0.00  0.00    +0.242 C 
ATOM      5  H   UNL     1     -37.115  24.252   0.785  0.00  0.00    +0.155 HD
BRANCH   3   6
ATOM      6  C   UNL     1     -38.939  24.542   1.678  0.00  0.00    +0.050 C 
ATOM      7  C   UNL     1     -39.930  23.864   0.968  0.00  0.00    +0.016 C 
ATOM      8  C   UNL     1     -39.268  25.664   2.438  0.00  0.00    +0.016 C 
ATOM      9  C   UNL     1     -41.252  24.308   1.020  0.00  0.00    +0.025 C 
ATOM     10  C   UNL     1     -40.589  26.108   2.490  0.00  0.00    +0.025 C 
ATOM     11  C   UNL     1     -41.581  25.430   1.780  0.00  0.00    +0.143 C 
BRANCH  11  14
ATOM     12  O   UNL     1     -43.180  26.969   2.408  0.00  0.00    -0.126 OA
ATOM     13  O   UNL     1     -43.823  25.186   1.301  0.00  0.00    -0.126 OA
ATOM     14  N   UNL     1     -42.926  25.883   1.833  0.00  0.00    +0.058 N 
ENDBRANCH  11  14
ENDBRANCH   3   6
ENDBRANCH   1   4
BRANCH   1  15
ATOM     15  N   UNL     1     -35.634  21.987   1.240  0.00  0.00    -0.172 NA
ATOM     16  H   UNL     1     -36.574  22.065   0.852  0.00  0.00    +0.149 HD
BRANCH  15  17
ATOM     17  S   UNL     1     -35.463  20.393   1.798  0.00  0.00    +0.061 S 
ATOM     18  O   UNL     1     -36.440  19.544   1.142  0.00  0.00    -0.153 OA
ATOM     19  O   UNL     1     -35.368  20.412   3.244  0.00  0.00    -0.153 OA
BRANCH  17  20
ATOM     20  C   UNL     1     -33.864  19.960   1.181  0.00  0.00    +0.122 C 
ATOM     21  C   UNL     1     -33.178  20.841   0.346  0.00  0.00    +0.020 C 
ATOM     22  C   UNL     1     -33.288  18.739   1.531  0.00  0.00    +0.020 C 
ATOM     23  C   UNL     1     -31.340  19.279   0.210  0.00  0.00    -0.022 C 
ATOM     24  C   UNL     1     -31.916  20.500  -0.140  0.00  0.00    -0.003 C 
ATOM     25  C   UNL     1     -32.026  18.398   1.045  0.00  0.00    -0.003 C 
ATOM     26  C   UNL     1     -29.990  18.914  -0.312  0.00  0.00    +0.031 C 
ENDBRANCH  17  20
ENDBRANCH  15  17
ENDBRANCH   1  15
BRANCH   1  27
ATOM     27  C   UNL     1     -34.777  24.272   1.442  0.00  0.00    +0.029 C 
BRANCH  27  28
ATOM     28  C   UNL     1     -34.600  25.502   2.341  0.00  0.00    +0.028 C 
BRANCH  28  29
ATOM     29  C   UNL     1     -33.737  25.210   3.563  0.00  0.00    +0.129 C 
BRANCH  29  30
ATOM     30  N   UNL     1     -34.191  26.015   4.698  0.00  0.00    -0.240 NA
BRANCH  30  33
ATOM     31  N   UNL     1     -36.464  26.477   5.326  0.00  0.00    -0.370 N 
ATOM     32  N   UNL     1     -35.529  24.444   5.754  0.00  0.00    -0.370 N 
ATOM     33  C   UNL     1     -35.335  25.695   5.220  0.00  0.00    +0.189 C 
ATOM     34  H   UNL     1     -36.458  27.400   4.981  0.00  0.00    +0.159 HD
ATOM     35  H   UNL     1     -37.277  26.115   5.747  0.00  0.00    +0.159 HD
ATOM     36  H   UNL     1     -34.797  23.785   5.743  0.00  0.00    +0.159 HD
ATOM     37  H   UNL     1     -36.399  24.206   6.149  0.00  0.00    +0.159 HD
ENDBRANCH  30  33
ENDBRANCH  29  30
ENDBRANCH  28  29
ENDBRANCH  27  28
ENDBRANCH   1  27
TORSDOF 11
ENDMDL
MODEL 9
REMARK VINA RESULT:      -6.4      5.951      8.514
REMARK  Name = 193734
REMARK  11 active torsions:
REMARK  status: ('A' for Active; 'I' for Inactive)
REMARK    1  A    between atoms: C_1  and  C_4
REMARK    2  A    between atoms: C_1  and  N_15
REMARK    3  A    between atoms: C_1  and  C_27
REMARK    4  A    between atoms: N_3  and  C_6
REMARK    5  A    between atoms: C_11  and  N_14
REMARK    6  A    between atoms: N_15  and  S_17
REMARK    7  A    between atoms: S_17  and  C_20
REMARK    8  A    between atoms: C_27  and  C_28
REMARK    9  A    between atoms: C_28  and  C_29
REMARK   10  A    between atoms: C_29  and  N_30
REMARK   11  A    between atoms: N_30  and  C_33
REMARK                            x       y       z     vdW  Elec       q    Type
REMARK                         _______ _______ _______ _____ _____    ______ ____
ROOT
ATOM      1  C   UNL     1     -36.562  22.204   1.912  0.00  0.00    +0.152 C 
ENDROOT
BRANCH   1   4
ATOM      2  O   UNL     1     -36.748  19.882   2.514  0.00  0.00    -0.273 OA
ATOM      3  N   UNL     1     -35.044  20.545   1.044  0.00  0.00    -0.283 N 
ATOM      4  C   UNL     1     -36.151  20.737   1.866  0.00  0.00    +0.242 C 
ATOM      5  H   UNL     1     -34.679  21.352   0.612  0.00  0.00    +0.155 HD
BRANCH   3   6
ATOM      6  C   UNL     1     -34.382  19.328   0.756  0.00  0.00    +0.050 C 
ATOM      7  C   UNL     1     -33.160  19.039   1.363  0.00  0.00    +0.016 C 
ATOM      8  C   UNL     1     -34.953  18.417  -0.133  0.00  0.00    +0.016 C 
ATOM      9  C   UNL     1     -32.509  17.837   1.081  0.00  0.00    +0.025 C 
ATOM     10  C   UNL     1     -34.302  17.216  -0.414  0.00  0.00    +0.025 C 
ATOM     11  C   UNL     1     -33.079  16.926   0.192  0.00  0.00    +0.143 C 
BRANCH  11  14
ATOM     12  O   UNL     1     -31.281  15.498   0.399  0.00  0.00    -0.126 OA
ATOM     13  O   UNL     1     -32.984  14.863  -0.832  0.00  0.00    -0.126 OA
ATOM     14  N   UNL     1     -32.417  15.704  -0.095  0.00  0.00    +0.058 N 
ENDBRANCH  11  14
ENDBRANCH   3   6
ENDBRANCH   1   4
BRANCH   1  15
ATOM     15  N   UNL     1     -37.927  22.173   2.490  0.00  0.00    -0.172 NA
ATOM     16  H   UNL     1     -37.982  21.340   3.076  0.00  0.00    +0.149 HD
BRANCH  15  17
ATOM     17  S   UNL     1     -39.278  22.141   1.463  0.00  0.00    +0.061 S 
ATOM     18  O   UNL     1     -40.157  21.055   1.855  0.00  0.00    -0.153 OA
ATOM     19  O   UNL     1     -38.825  22.253   0.091  0.00  0.00    -0.153 OA
BRANCH  17  20
ATOM     20  C   UNL     1     -40.081  23.663   1.867  0.00  0.00    +0.122 C 
ATOM     21  C   UNL     1     -41.125  24.133   1.070  0.00  0.00    +0.020 C 
ATOM     22  C   UNL     1     -39.672  24.393   2.983  0.00  0.00    +0.020 C 
ATOM     23  C   UNL     1     -41.350  26.063   2.505  0.00  0.00    -0.022 C 
ATOM     24  C   UNL     1     -41.759  25.333   1.389  0.00  0.00    -0.003 C 
ATOM     25  C   UNL     1     -40.307  25.594   3.301  0.00  0.00    -0.003 C 
ATOM     26  C   UNL     1     -42.028  27.349   2.845  0.00  0.00    +0.031 C 
ENDBRANCH  17  20
ENDBRANCH  15  17
ENDBRANCH   1  15
BRANCH   1  27
ATOM     27  C   UNL     1     -35.668  23.063   2.810  0.00  0.00    +0.029 C 
BRANCH  27  28
ATOM     28  C   UNL     1     -35.563  22.489   4.228  0.00  0.00    +0.028 C 
BRANCH  28  29
ATOM     29  C   UNL     1     -34.994  23.495   5.223  0.00  0.00    +0.129 C 
BRANCH  29  30
ATOM     30  N   UNL     1     -36.045  24.416   5.657  0.00  0.00    -0.240 NA
BRANCH  30  33
ATOM     31  N   UNL     1     -34.853  26.490   5.441  0.00  0.00    -0.370 N 
ATOM     32  N   UNL     1     -36.971  26.275   4.627  0.00  0.00    -0.370 N 
ATOM     33  C   UNL     1     -35.932  25.651   5.278  0.00  0.00    +0.189 C 
ATOM     34  H   UNL     1     -34.041  26.166   5.894  0.00  0.00    +0.159 HD
ATOM     35  H   UNL     1     -34.892  27.416   5.105  0.00  0.00    +0.159 HD
ATOM     36  H   UNL     1     -37.805  25.784   4.448  0.00  0.00    +0.159 HD
ATOM     37  H   UNL     1     -36.880  27.213   4.341  0.00  0.00    +0.159 HD
ENDBRANCH  30  33
ENDBRANCH  29  30
ENDBRANCH  28  29
ENDBRANCH  27  28
ENDBRANCH   1  27
TORSDOF 11
ENDMDL
