MODEL 1
REMARK VINA RESULT:      -5.8      0.000      0.000
REMARK  Name = 191215
REMARK  8 active torsions:
REMARK  status: ('A' for Active; 'I' for Inactive)
REMARK    1  A    between atoms: C_2  and  O_17
REMARK    2  A    between atoms: C_3  and  O_19
REMARK    3  A    between atoms: C_4  and  C_21
REMARK    4  A    between atoms: C_5  and  N_8
REMARK    5  A    between atoms: C_21  and  O_22
REMARK    6  A    between atoms: O_22  and  P_23
REMARK    7  A    between atoms: P_23  and  O_25
REMARK    8  A    between atoms: P_23  and  O_27
REMARK                            x       y       z     vdW  Elec       q    Type
REMARK                         _______ _______ _______ _____ _____    ______ ____
ROOT
ATOM      1  O   UNL     1     -36.969  24.340   4.256  0.00  0.00    -0.332 OA
ATOM      2  C   UNL     1     -35.443  26.149   4.332  0.00  0.00    +0.171 C 
ATOM      3  C   UNL     1     -34.699  24.908   3.885  0.00  0.00    +0.188 C 
ATOM      4  C   UNL     1     -36.892  25.768   4.059  0.00  0.00    +0.176 C 
ATOM      5  C   UNL     1     -35.639  23.800   4.329  0.00  0.00    +0.236 C 
ENDROOT
BRANCH   5   8
ATOM      6  F   UNL     1     -35.780  21.777  -0.026  0.00  0.00    -0.199 F 
ATOM      7  O   UNL     1     -35.185  21.219   5.264  0.00  0.00    -0.193 OA
ATOM      8  N   UNL     1     -35.558  22.642   3.485  0.00  0.00    -0.176 N 
ATOM      9  N   UNL     1     -35.249  20.256   3.208  0.00  0.00    -0.304 NA
ATOM     10  N   UNL     1     -35.316  19.281   1.094  0.00  0.00    -0.330 N 
ATOM     11  C   UNL     1     -35.710  22.763   2.111  0.00  0.00    +0.113 C 
ATOM     12  C   UNL     1     -35.323  21.359   4.047  0.00  0.00    +0.276 C 
ATOM     13  C   UNL     1     -35.640  21.708   1.309  0.00  0.00    +0.200 C 
ATOM     14  C   UNL     1     -35.392  20.381   1.913  0.00  0.00    +0.220 C 
ATOM     15  H   UNL     1     -35.152  18.390   1.480  0.00  0.00    +0.145 HD
ATOM     16  H   UNL     1     -35.426  19.383   0.120  0.00  0.00    +0.145 HD
ENDBRANCH   5   8
BRANCH   2  17
ATOM     17  O   UNL     1     -35.294  26.335   5.739  0.00  0.00    -0.379 OA
ATOM     18  H   UNL     1     -36.114  26.073   6.188  0.00  0.00    +0.211 HD
ENDBRANCH   2  17
BRANCH   3  19
ATOM     19  O   UNL     1     -33.421  24.806   4.479  0.00  0.00    -0.378 OA
ATOM     20  H   UNL     1     -33.464  25.121   5.395  0.00  0.00    +0.211 HD
ENDBRANCH   3  19
BRANCH   4  21
ATOM     21  C   UNL     1     -37.337  26.076   2.636  0.00  0.00    +0.186 C 
BRANCH  21  22
ATOM     22  O   UNL     1     -38.694  26.482   2.664  0.00  0.00    -0.271 OA
BRANCH  22  23
ATOM     23  P   UNL     1     -39.843  25.345   2.574  0.00  0.00    +0.473 P 
ATOM     24  O   UNL     1     -41.078  25.749   1.823  0.00  0.00    -0.227 OA
BRANCH  23  25
ATOM     25  O   UNL     1     -40.081  24.918   4.116  0.00  0.00    -0.303 OA
ATOM     26  H   UNL     1     -41.006  25.081   4.357  0.00  0.00    +0.222 HD
ENDBRANCH  23  25
BRANCH  23  27
ATOM     27  O   UNL     1     -39.051  24.079   1.955  0.00  0.00    -0.303 OA
ATOM     28  H   UNL     1     -38.826  23.459   2.666  0.00  0.00    +0.222 HD
ENDBRANCH  23  27
ENDBRANCH  22  23
ENDBRANCH  21  22
ENDBRANCH   4  21
TORSDOF 8
ENDMDL
MODEL 2
REMARK VINA RESULT:      -5.7      3.101      5.385
REMARK  Name = 191215
REMARK  8 active torsions:
REMARK  status: ('A' for Active; 'I' for Inactive)
REMARK    1  A    between atoms: C_2  and  O_17
REMARK    2  A    between atoms: C_3  and  O_19
REMARK    3  A    between atoms: C_4  and  C_21
REMARK    4  A    between atoms: C_5  and  N_8
REMARK    5  A    between atoms: C_21  and  O_22
REMARK    6  A    between atoms: O_22  and  P_23
REMARK    7  A    between atoms: P_23  and  O_25
REMARK    8  A    between atoms: P_23  and  O_27
REMARK                            x       y       z     vdW  Elec       q    Type
REMARK                         _______ _______ _______ _____ _____    ______ ____
ROOT
ATOM      1  O   UNL     1     -37.037  23.646   3.788  0.00  0.00    -0.332 OA
ATOM      2  C   UNL     1     -38.934  24.181   2.475  0.00  0.00    +0.171 C 
ATOM      3  C   UNL     1     -38.055  25.410   2.576  0.00  0.00    +0.188 C 
ATOM      4  C   UNL     1     -37.968  23.065   2.850  0.00  0.00    +0.176 C 
ATOM      5  C   UNL     1     -37.183  25.076   3.775  0.00  0.00    +0.236 C 
ENDROOT
BRANCH   5   8
ATOM      6  F   UNL     1     -33.284  26.278   1.241  0.00  0.00    -0.199 F 
ATOM      7  O   UNL     1     -35.876  26.267   5.924  0.00  0.00    -0.193 OA
ATOM      8  N   UNL     1     -35.883  25.677   3.691  0.00  0.00    -0.176 N 
ATOM      9  N   UNL     1     -34.030  26.839   4.731  0.00  0.00    -0.304 NA
ATOM     10  N   UNL     1     -32.142  27.421   3.496  0.00  0.00    -0.330 N 
ATOM     11  C   UNL     1     -35.192  25.691   2.488  0.00  0.00    +0.113 C 
ATOM     12  C   UNL     1     -35.288  26.264   4.840  0.00  0.00    +0.276 C 
ATOM     13  C   UNL     1     -33.989  26.241   2.384  0.00  0.00    +0.200 C 
ATOM     14  C   UNL     1     -33.387  26.848   3.591  0.00  0.00    +0.220 C 
ATOM     15  H   UNL     1     -31.727  27.830   4.291  0.00  0.00    +0.145 HD
ATOM     16  H   UNL     1     -31.664  27.424   2.635  0.00  0.00    +0.145 HD
ENDBRANCH   5   8
BRANCH   2  17
ATOM     17  O   UNL     1     -39.961  24.225   3.466  0.00  0.00    -0.379 OA
ATOM     18  H   UNL     1     -39.749  24.908   4.121  0.00  0.00    +0.211 HD
ENDBRANCH   2  17
BRANCH   3  19
ATOM     19  O   UNL     1     -38.805  26.593   2.762  0.00  0.00    -0.378 OA
ATOM     20  H   UNL     1     -39.161  26.887   1.909  0.00  0.00    +0.211 HD
ENDBRANCH   3  19
BRANCH   4  21
ATOM     21  C   UNL     1     -37.176  22.532   1.663  0.00  0.00    +0.186 C 
BRANCH  21  22
ATOM     22  O   UNL     1     -35.869  22.205   2.101  0.00  0.00    -0.271 OA
BRANCH  22  23
ATOM     23  P   UNL     1     -35.567  20.683   2.562  0.00  0.00    +0.473 P 
ATOM     24  O   UNL     1     -34.374  20.047   1.911  0.00  0.00    -0.227 OA
BRANCH  23  25
ATOM     25  O   UNL     1     -36.974  19.922   2.320  0.00  0.00    -0.303 OA
ATOM     26  H   UNL     1     -37.327  19.619   3.171  0.00  0.00    +0.222 HD
ENDBRANCH  23  25
BRANCH  23  27
ATOM     27  O   UNL     1     -35.483  20.804   4.173  0.00  0.00    -0.303 OA
ATOM     28  H   UNL     1     -35.175  19.963   4.545  0.00  0.00    +0.222 HD
ENDBRANCH  23  27
ENDBRANCH  22  23
ENDBRANCH  21  22
ENDBRANCH   4  21
TORSDOF 8
ENDMDL
MODEL 3
REMARK VINA RESULT:      -5.7      2.648      3.733
REMARK  Name = 191215
REMARK  8 active torsions:
REMARK  status: ('A' for Active; 'I' for Inactive)
REMARK    1  A    between atoms: C_2  and  O_17
REMARK    2  A    between atoms: C_3  and  O_19
REMARK    3  A    between atoms: C_4  and  C_21
REMARK    4  A    between atoms: C_5  and  N_8
REMARK    5  A    between atoms: C_21  and  O_22
REMARK    6  A    between atoms: O_22  and  P_23
REMARK    7  A    between atoms: P_23  and  O_25
REMARK    8  A    between atoms: P_23  and  O_27
REMARK                            x       y       z     vdW  Elec       q    Type
REMARK                         _______ _______ _______ _____ _____    ______ ____
ROOT
ATOM      1  O   UNL     1     -38.412  25.131   2.878  0.00  0.00    -0.332 OA
ATOM      2  C   UNL     1     -37.505  26.286   1.019  0.00  0.00    +0.171 C 
ATOM      3  C   UNL     1     -36.365  25.790   1.883  0.00  0.00    +0.188 C 
ATOM      4  C   UNL     1     -38.661  25.409   1.484  0.00  0.00    +0.176 C 
ATOM      5  C   UNL     1     -37.065  25.514   3.203  0.00  0.00    +0.236 C 
ENDROOT
BRANCH   5   8
ATOM      6  F   UNL     1     -35.577  20.959   3.535  0.00  0.00    -0.199 F 
ATOM      7  O   UNL     1     -36.072  25.789   5.788  0.00  0.00    -0.193 OA
ATOM      8  N   UNL     1     -36.443  24.453   3.941  0.00  0.00    -0.176 N 
ATOM      9  N   UNL     1     -35.364  23.638   5.951  0.00  0.00    -0.304 NA
ATOM     10  N   UNL     1     -34.643  21.428   6.106  0.00  0.00    -0.330 N 
ATOM     11  C   UNL     1     -36.304  23.193   3.378  0.00  0.00    +0.113 C 
ATOM     12  C   UNL     1     -35.962  24.681   5.259  0.00  0.00    +0.276 C 
ATOM     13  C   UNL     1     -35.733  22.195   4.040  0.00  0.00    +0.200 C 
ATOM     14  C   UNL     1     -35.237  22.453   5.410  0.00  0.00    +0.220 C 
ATOM     15  H   UNL     1     -34.307  21.583   7.019  0.00  0.00    +0.145 HD
ATOM     16  H   UNL     1     -34.551  20.539   5.692  0.00  0.00    +0.145 HD
ENDBRANCH   5   8
BRANCH   2  17
ATOM     17  O   UNL     1     -37.822  27.639   1.346  0.00  0.00    -0.379 OA
ATOM     18  H   UNL     1     -38.767  27.796   1.192  0.00  0.00    +0.211 HD
ENDBRANCH   2  17
BRANCH   3  19
ATOM     19  O   UNL     1     -35.331  26.746   2.006  0.00  0.00    -0.378 OA
ATOM     20  H   UNL     1     -34.628  26.390   2.571  0.00  0.00    +0.211 HD
ENDBRANCH   3  19
BRANCH   4  21
ATOM     21  C   UNL     1     -38.744  24.082   0.741  0.00  0.00    +0.186 C 
BRANCH  21  22
ATOM     22  O   UNL     1     -39.541  23.189   1.499  0.00  0.00    -0.271 OA
BRANCH  22  23
ATOM     23  P   UNL     1     -39.506  21.614   1.123  0.00  0.00    +0.473 P 
ATOM     24  O   UNL     1     -40.846  20.999   0.841  0.00  0.00    -0.227 OA
BRANCH  23  25
ATOM     25  O   UNL     1     -38.683  20.945   2.344  0.00  0.00    -0.303 OA
ATOM     26  H   UNL     1     -39.062  20.077   2.553  0.00  0.00    +0.222 HD
ENDBRANCH  23  25
BRANCH  23  27
ATOM     27  O   UNL     1     -38.457  21.559  -0.106  0.00  0.00    -0.303 OA
ATOM     28  H   UNL     1     -37.571  21.356   0.233  0.00  0.00    +0.222 HD
ENDBRANCH  23  27
ENDBRANCH  22  23
ENDBRANCH  21  22
ENDBRANCH   4  21
TORSDOF 8
ENDMDL
MODEL 4
REMARK VINA RESULT:      -5.6      2.519      4.177
REMARK  Name = 191215
REMARK  8 active torsions:
REMARK  status: ('A' for Active; 'I' for Inactive)
REMARK    1  A    between atoms: C_2  and  O_17
REMARK    2  A    between atoms: C_3  and  O_19
REMARK    3  A    between atoms: C_4  and  C_21
REMARK    4  A    between atoms: C_5  and  N_8
REMARK    5  A    between atoms: C_21  and  O_22
REMARK    6  A    between atoms: O_22  and  P_23
REMARK    7  A    between atoms: P_23  and  O_25
REMARK    8  A    between atoms: P_23  and  O_27
REMARK                            x       y       z     vdW  Elec       q    Type
REMARK                         _______ _______ _______ _____ _____    ______ ____
ROOT
ATOM      1  O   UNL     1     -36.700  24.072   4.579  0.00  0.00    -0.332 OA
ATOM      2  C   UNL     1     -35.182  22.500   5.492  0.00  0.00    +0.171 C 
ATOM      3  C   UNL     1     -35.475  22.111   4.059  0.00  0.00    +0.188 C 
ATOM      4  C   UNL     1     -35.612  23.961   5.520  0.00  0.00    +0.176 C 
ATOM      5  C   UNL     1     -36.757  22.879   3.780  0.00  0.00    +0.236 C 
ENDROOT
BRANCH   5   8
ATOM      6  F   UNL     1     -34.784  23.923  -0.473  0.00  0.00    -0.199 F 
ATOM      7  O   UNL     1     -39.191  23.309   2.501  0.00  0.00    -0.193 OA
ATOM      8  N   UNL     1     -36.885  23.247   2.399  0.00  0.00    -0.176 N 
ATOM      9  N   UNL     1     -38.265  23.803   0.487  0.00  0.00    -0.304 NA
ATOM     10  N   UNL     1     -37.302  24.307  -1.573  0.00  0.00    -0.330 N 
ATOM     11  C   UNL     1     -35.757  23.412   1.609  0.00  0.00    +0.113 C 
ATOM     12  C   UNL     1     -38.169  23.447   1.825  0.00  0.00    +0.276 C 
ATOM     13  C   UNL     1     -35.848  23.753   0.329  0.00  0.00    +0.200 C 
ATOM     14  C   UNL     1     -37.194  23.955  -0.250  0.00  0.00    +0.220 C 
ATOM     15  H   UNL     1     -38.191  24.445  -1.975  0.00  0.00    +0.145 HD
ATOM     16  H   UNL     1     -36.491  24.420  -2.121  0.00  0.00    +0.145 HD
ENDBRANCH   5   8
BRANCH   2  17
ATOM     17  O   UNL     1     -36.028  21.776   6.385  0.00  0.00    -0.379 OA
ATOM     18  H   UNL     1     -36.255  22.338   7.142  0.00  0.00    +0.211 HD
ENDBRANCH   2  17
BRANCH   3  19
ATOM     19  O   UNL     1     -35.633  20.715   3.904  0.00  0.00    -0.378 OA
ATOM     20  H   UNL     1     -35.055  20.253   4.530  0.00  0.00    +0.211 HD
ENDBRANCH   3  19
BRANCH   4  21
ATOM     21  C   UNL     1     -34.511  24.921   5.089  0.00  0.00    +0.186 C 
BRANCH  21  22
ATOM     22  O   UNL     1     -35.073  26.210   4.924  0.00  0.00    -0.271 OA
BRANCH  22  23
ATOM     23  P   UNL     1     -35.101  26.856   3.439  0.00  0.00    +0.473 P 
ATOM     24  O   UNL     1     -34.072  26.313   2.491  0.00  0.00    -0.227 OA
BRANCH  23  25
ATOM     25  O   UNL     1     -35.019  28.448   3.711  0.00  0.00    -0.303 OA
ATOM     26  H   UNL     1     -35.477  28.922   3.000  0.00  0.00    +0.222 HD
ENDBRANCH  23  25
BRANCH  23  27
ATOM     27  O   UNL     1     -36.636  26.637   2.979  0.00  0.00    -0.303 OA
ATOM     28  H   UNL     1     -37.231  26.993   3.657  0.00  0.00    +0.222 HD
ENDBRANCH  23  27
ENDBRANCH  22  23
ENDBRANCH  21  22
ENDBRANCH   4  21
TORSDOF 8
ENDMDL
MODEL 5
REMARK VINA RESULT:      -5.6      3.515      5.416
REMARK  Name = 191215
REMARK  8 active torsions:
REMARK  status: ('A' for Active; 'I' for Inactive)
REMARK    1  A    between atoms: C_2  and  O_17
REMARK    2  A    between atoms: C_3  and  O_19
REMARK    3  A    between atoms: C_4  and  C_21
REMARK    4  A    between atoms: C_5  and  N_8
REMARK    5  A    between atoms: C_21  and  O_22
REMARK    6  A    between atoms: O_22  and  P_23
REMARK    7  A    between atoms: P_23  and  O_25
REMARK    8  A    between atoms: P_23  and  O_27
REMARK                            x       y       z     vdW  Elec       q    Type
REMARK                         _______ _______ _______ _____ _____    ______ ____
ROOT
ATOM      1  O   UNL     1     -35.443  24.353   2.991  0.00  0.00    -0.332 OA
ATOM      2  C   UNL     1     -35.144  24.515   5.336  0.00  0.00    +0.171 C 
ATOM      3  C   UNL     1     -36.312  25.391   4.937  0.00  0.00    +0.188 C 
ATOM      4  C   UNL     1     -35.020  23.583   4.137  0.00  0.00    +0.176 C 
ATOM      5  C   UNL     1     -36.087  25.556   3.443  0.00  0.00    +0.236 C 
ENDROOT
BRANCH   5   8
ATOM      6  F   UNL     1     -40.493  24.056   2.259  0.00  0.00    -0.199 F 
ATOM      7  O   UNL     1     -36.609  27.703   1.750  0.00  0.00    -0.193 OA
ATOM      8  N   UNL     1     -37.314  25.729   2.719  0.00  0.00    -0.176 N 
ATOM      9  N   UNL     1     -38.694  27.000   1.187  0.00  0.00    -0.304 NA
ATOM     10  N   UNL     1     -40.831  26.268   0.618  0.00  0.00    -0.330 N 
ATOM     11  C   UNL     1     -38.334  24.796   2.835  0.00  0.00    +0.113 C 
ATOM     12  C   UNL     1     -37.497  26.857   1.875  0.00  0.00    +0.276 C 
ATOM     13  C   UNL     1     -39.478  24.932   2.177  0.00  0.00    +0.200 C 
ATOM     14  C   UNL     1     -39.651  26.115   1.304  0.00  0.00    +0.220 C 
ATOM     15  H   UNL     1     -40.962  27.049   0.033  0.00  0.00    +0.145 HD
ATOM     16  H   UNL     1     -41.546  25.597   0.711  0.00  0.00    +0.145 HD
ENDBRANCH   5   8
BRANCH   2  17
ATOM     17  O   UNL     1     -33.948  25.290   5.415  0.00  0.00    -0.379 OA
ATOM     18  H   UNL     1     -33.825  25.781   4.588  0.00  0.00    +0.211 HD
ENDBRANCH   2  17
BRANCH   3  19
ATOM     19  O   UNL     1     -36.317  26.625   5.625  0.00  0.00    -0.378 OA
ATOM     20  H   UNL     1     -36.829  27.275   5.120  0.00  0.00    +0.211 HD
ENDBRANCH   3  19
BRANCH   4  21
ATOM     21  C   UNL     1     -35.911  22.352   4.237  0.00  0.00    +0.186 C 
BRANCH  21  22
ATOM     22  O   UNL     1     -35.187  21.230   3.765  0.00  0.00    -0.271 OA
BRANCH  22  23
ATOM     23  P   UNL     1     -35.563  20.625   2.310  0.00  0.00    +0.473 P 
ATOM     24  O   UNL     1     -34.440  19.921   1.607  0.00  0.00    -0.227 OA
BRANCH  23  25
ATOM     25  O   UNL     1     -36.188  21.889   1.519  0.00  0.00    -0.303 OA
ATOM     26  H   UNL     1     -36.042  22.698   2.034  0.00  0.00    +0.222 HD
ENDBRANCH  23  25
BRANCH  23  27
ATOM     27  O   UNL     1     -36.856  19.706   2.624  0.00  0.00    -0.303 OA
ATOM     28  H   UNL     1     -37.302  20.036   3.419  0.00  0.00    +0.222 HD
ENDBRANCH  23  27
ENDBRANCH  22  23
ENDBRANCH  21  22
ENDBRANCH   4  21
TORSDOF 8
ENDMDL
MODEL 6
REMARK VINA RESULT:      -5.6      3.419      5.293
REMARK  Name = 191215
REMARK  8 active torsions:
REMARK  status: ('A' for Active; 'I' for Inactive)
REMARK    1  A    between atoms: C_2  and  O_17
REMARK    2  A    between atoms: C_3  and  O_19
REMARK    3  A    between atoms: C_4  and  C_21
REMARK    4  A    between atoms: C_5  and  N_8
REMARK    5  A    between atoms: C_21  and  O_22
REMARK    6  A    between atoms: O_22  and  P_23
REMARK    7  A    between atoms: P_23  and  O_25
REMARK    8  A    between atoms: P_23  and  O_27
REMARK                            x       y       z     vdW  Elec       q    Type
REMARK                         _______ _______ _______ _____ _____    ______ ____
ROOT
ATOM      1  O   UNL     1     -36.949  23.347   3.803  0.00  0.00    -0.332 OA
ATOM      2  C   UNL     1     -35.513  21.680   2.926  0.00  0.00    +0.171 C 
ATOM      3  C   UNL     1     -36.761  21.742   2.070  0.00  0.00    +0.188 C 
ATOM      4  C   UNL     1     -35.551  23.023   3.642  0.00  0.00    +0.176 C 
ATOM      5  C   UNL     1     -37.735  22.466   2.986  0.00  0.00    +0.236 C 
ENDROOT
BRANCH   5   8
ATOM      6  F   UNL     1     -39.141  26.610   1.007  0.00  0.00    -0.199 F 
ATOM      7  O   UNL     1     -40.157  21.461   2.053  0.00  0.00    -0.193 OA
ATOM      8  N   UNL     1     -38.699  23.239   2.257  0.00  0.00    -0.176 N 
ATOM      9  N   UNL     1     -40.827  23.417   1.114  0.00  0.00    -0.304 NA
ATOM     10  N   UNL     1     -41.503  25.429   0.155  0.00  0.00    -0.330 N 
ATOM     11  C   UNL     1     -38.457  24.576   1.975  0.00  0.00    +0.113 C 
ATOM     12  C   UNL     1     -39.913  22.645   1.817  0.00  0.00    +0.276 C 
ATOM     13  C   UNL     1     -39.332  25.314   1.303  0.00  0.00    +0.200 C 
ATOM     14  C   UNL     1     -40.589  24.676   0.852  0.00  0.00    +0.220 C 
ATOM     15  H   UNL     1     -42.345  25.020  -0.153  0.00  0.00    +0.145 HD
ATOM     16  H   UNL     1     -41.317  26.376  -0.038  0.00  0.00    +0.145 HD
ENDBRANCH   5   8
BRANCH   2  17
ATOM     17  O   UNL     1     -35.638  20.653   3.910  0.00  0.00    -0.379 OA
ATOM     18  H   UNL     1     -36.570  20.399   3.995  0.00  0.00    +0.211 HD
ENDBRANCH   2  17
BRANCH   3  19
ATOM     19  O   UNL     1     -37.219  20.458   1.696  0.00  0.00    -0.378 OA
ATOM     20  H   UNL     1     -36.966  20.281   0.777  0.00  0.00    +0.211 HD
ENDBRANCH   3  19
BRANCH   4  21
ATOM     21  C   UNL     1     -34.891  24.146   2.852  0.00  0.00    +0.186 C 
BRANCH  21  22
ATOM     22  O   UNL     1     -35.513  25.370   3.198  0.00  0.00    -0.271 OA
BRANCH  22  23
ATOM     23  P   UNL     1     -35.036  26.125   4.548  0.00  0.00    +0.473 P 
ATOM     24  O   UNL     1     -33.706  25.684   5.085  0.00  0.00    -0.227 OA
BRANCH  23  25
ATOM     25  O   UNL     1     -36.286  25.935   5.557  0.00  0.00    -0.303 OA
ATOM     26  H   UNL     1     -36.696  26.797   5.729  0.00  0.00    +0.222 HD
ENDBRANCH  23  25
BRANCH  23  27
ATOM     27  O   UNL     1     -35.124  27.687   4.138  0.00  0.00    -0.303 OA
ATOM     28  H   UNL     1     -34.358  27.922   3.592  0.00  0.00    +0.222 HD
ENDBRANCH  23  27
ENDBRANCH  22  23
ENDBRANCH  21  22
ENDBRANCH   4  21
TORSDOF 8
ENDMDL
MODEL 7
REMARK VINA RESULT:      -5.6      2.585      4.331
REMARK  Name = 191215
REMARK  8 active torsions:
REMARK  status: ('A' for Active; 'I' for Inactive)
REMARK    1  A    between atoms: C_2  and  O_17
REMARK    2  A    between atoms: C_3  and  O_19
REMARK    3  A    between atoms: C_4  and  C_21
REMARK    4  A    between atoms: C_5  and  N_8
REMARK    5  A    between atoms: C_21  and  O_22
REMARK    6  A    between atoms: O_22  and  P_23
REMARK    7  A    between atoms: P_23  and  O_25
REMARK    8  A    between atoms: P_23  and  O_27
REMARK                            x       y       z     vdW  Elec       q    Type
REMARK                         _______ _______ _______ _____ _____    ______ ____
ROOT
ATOM      1  O   UNL     1     -36.297  24.731   2.915  0.00  0.00    -0.332 OA
ATOM      2  C   UNL     1     -35.234  25.117   4.997  0.00  0.00    +0.171 C 
ATOM      3  C   UNL     1     -35.562  23.643   4.888  0.00  0.00    +0.188 C 
ATOM      4  C   UNL     1     -35.301  25.566   3.543  0.00  0.00    +0.176 C 
ATOM      5  C   UNL     1     -36.611  23.633   3.788  0.00  0.00    +0.236 C 
ENDROOT
BRANCH   5   8
ATOM      6  F   UNL     1     -34.352  19.679   2.259  0.00  0.00    -0.199 F 
ATOM      7  O   UNL     1     -38.768  22.704   2.296  0.00  0.00    -0.193 OA
ATOM      8  N   UNL     1     -36.598  22.415   3.030  0.00  0.00    -0.176 N 
ATOM      9  N   UNL     1     -37.707  20.831   1.571  0.00  0.00    -0.304 NA
ATOM     10  N   UNL     1     -36.607  18.915   0.834  0.00  0.00    -0.330 N 
ATOM     11  C   UNL     1     -35.464  21.616   3.005  0.00  0.00    +0.113 C 
ATOM     12  C   UNL     1     -37.746  22.014   2.295  0.00  0.00    +0.276 C 
ATOM     13  C   UNL     1     -35.426  20.485   2.312  0.00  0.00    +0.200 C 
ATOM     14  C   UNL     1     -36.633  20.084   1.555  0.00  0.00    +0.220 C 
ATOM     15  H   UNL     1     -37.401  18.633   0.324  0.00  0.00    +0.145 HD
ATOM     16  H   UNL     1     -35.795  18.358   0.826  0.00  0.00    +0.145 HD
ENDBRANCH   5   8
BRANCH   2  17
ATOM     17  O   UNL     1     -36.260  25.801   5.716  0.00  0.00    -0.379 OA
ATOM     18  H   UNL     1     -36.965  26.062   5.102  0.00  0.00    +0.211 HD
ENDBRANCH   2  17
BRANCH   3  19
ATOM     19  O   UNL     1     -36.046  23.110   6.105  0.00  0.00    -0.378 OA
ATOM     20  H   UNL     1     -36.827  22.563   5.929  0.00  0.00    +0.211 HD
ENDBRANCH   3  19
BRANCH   4  21
ATOM     21  C   UNL     1     -33.986  25.381   2.796  0.00  0.00    +0.186 C 
BRANCH  21  22
ATOM     22  O   UNL     1     -32.935  25.895   3.594  0.00  0.00    -0.271 OA
BRANCH  22  23
ATOM     23  P   UNL     1     -32.561  27.465   3.462  0.00  0.00    +0.473 P 
ATOM     24  O   UNL     1     -33.033  28.126   2.200  0.00  0.00    -0.227 OA
BRANCH  23  25
ATOM     25  O   UNL     1     -30.962  27.500   3.704  0.00  0.00    -0.303 OA
ATOM     26  H   UNL     1     -30.609  26.598   3.660  0.00  0.00    +0.222 HD
ENDBRANCH  23  25
BRANCH  23  27
ATOM     27  O   UNL     1     -33.158  28.095   4.827  0.00  0.00    -0.303 OA
ATOM     28  H   UNL     1     -32.973  27.496   5.567  0.00  0.00    +0.222 HD
ENDBRANCH  23  27
ENDBRANCH  22  23
ENDBRANCH  21  22
ENDBRANCH   4  21
TORSDOF 8
ENDMDL
MODEL 8
REMARK VINA RESULT:      -5.6      1.865      2.280
REMARK  Name = 191215
REMARK  8 active torsions:
REMARK  status: ('A' for Active; 'I' for Inactive)
REMARK    1  A    between atoms: C_2  and  O_17
REMARK    2  A    between atoms: C_3  and  O_19
REMARK    3  A    between atoms: C_4  and  C_21
REMARK    4  A    between atoms: C_5  and  N_8
REMARK    5  A    between atoms: C_21  and  O_22
REMARK    6  A    between atoms: O_22  and  P_23
REMARK    7  A    between atoms: P_23  and  O_25
REMARK    8  A    between atoms: P_23  and  O_27
REMARK                            x       y       z     vdW  Elec       q    Type
REMARK                         _______ _______ _______ _____ _____    ______ ____
ROOT
ATOM      1  O   UNL     1     -37.618  23.397   3.733  0.00  0.00    -0.332 OA
ATOM      2  C   UNL     1     -37.221  25.641   3.088  0.00  0.00    +0.171 C 
ATOM      3  C   UNL     1     -36.037  24.799   2.660  0.00  0.00    +0.188 C 
ATOM      4  C   UNL     1     -38.303  24.589   3.293  0.00  0.00    +0.176 C 
ATOM      5  C   UNL     1     -36.206  23.558   3.521  0.00  0.00    +0.236 C 
ENDROOT
BRANCH   5   8
ATOM      6  F   UNL     1     -34.923  21.153  -0.434  0.00  0.00    -0.199 F 
ATOM      7  O   UNL     1     -35.435  21.263   4.893  0.00  0.00    -0.193 OA
ATOM      8  N   UNL     1     -35.691  22.378   2.887  0.00  0.00    -0.176 N 
ATOM      9  N   UNL     1     -34.825  20.120   3.027  0.00  0.00    -0.304 NA
ATOM     10  N   UNL     1     -34.203  18.960   1.106  0.00  0.00    -0.330 N 
ATOM     11  C   UNL     1     -35.550  22.327   1.508  0.00  0.00    +0.113 C 
ATOM     12  C   UNL     1     -35.321  21.248   3.666  0.00  0.00    +0.276 C 
ATOM     13  C   UNL     1     -35.077  21.247   0.898  0.00  0.00    +0.200 C 
ATOM     14  C   UNL     1     -34.695  20.082   1.726  0.00  0.00    +0.220 C 
ATOM     15  H   UNL     1     -33.944  18.174   1.642  0.00  0.00    +0.145 HD
ATOM     16  H   UNL     1     -34.109  18.938   0.126  0.00  0.00    +0.145 HD
ENDBRANCH   5   8
BRANCH   2  17
ATOM     17  O   UNL     1     -36.961  26.256   4.349  0.00  0.00    -0.379 OA
ATOM     18  H   UNL     1     -36.950  27.220   4.242  0.00  0.00    +0.211 HD
ENDBRANCH   2  17
BRANCH   3  19
ATOM     19  O   UNL     1     -34.805  25.453   2.885  0.00  0.00    -0.378 OA
ATOM     20  H   UNL     1     -34.957  26.406   2.975  0.00  0.00    +0.211 HD
ENDBRANCH   3  19
BRANCH   4  21
ATOM     21  C   UNL     1     -39.067  24.255   2.019  0.00  0.00    +0.186 C 
BRANCH  21  22
ATOM     22  O   UNL     1     -39.879  23.121   2.262  0.00  0.00    -0.271 OA
BRANCH  22  23
ATOM     23  P   UNL     1     -39.615  21.781   1.391  0.00  0.00    +0.473 P 
ATOM     24  O   UNL     1     -40.853  21.059   0.947  0.00  0.00    -0.227 OA
BRANCH  23  25
ATOM     25  O   UNL     1     -38.604  20.918   2.312  0.00  0.00    -0.303 OA
ATOM     26  H   UNL     1     -37.957  20.467   1.746  0.00  0.00    +0.222 HD
ENDBRANCH  23  25
BRANCH  23  27
ATOM     27  O   UNL     1     -38.667  22.310   0.193  0.00  0.00    -0.303 OA
ATOM     28  H   UNL     1     -38.325  21.553  -0.308  0.00  0.00    +0.222 HD
ENDBRANCH  23  27
ENDBRANCH  22  23
ENDBRANCH  21  22
ENDBRANCH   4  21
TORSDOF 8
ENDMDL
MODEL 9
REMARK VINA RESULT:      -5.4      2.888      4.852
REMARK  Name = 191215
REMARK  8 active torsions:
REMARK  status: ('A' for Active; 'I' for Inactive)
REMARK    1  A    between atoms: C_2  and  O_17
REMARK    2  A    between atoms: C_3  and  O_19
REMARK    3  A    between atoms: C_4  and  C_21
REMARK    4  A    between atoms: C_5  and  N_8
REMARK    5  A    between atoms: C_21  and  O_22
REMARK    6  A    between atoms: O_22  and  P_23
REMARK    7  A    between atoms: P_23  and  O_25
REMARK    8  A    between atoms: P_23  and  O_27
REMARK                            x       y       z     vdW  Elec       q    Type
REMARK                         _______ _______ _______ _____ _____    ______ ____
ROOT
ATOM      1  O   UNL     1     -34.836  23.083   2.245  0.00  0.00    -0.332 OA
ATOM      2  C   UNL     1     -36.246  21.737   3.591  0.00  0.00    +0.171 C 
ATOM      3  C   UNL     1     -36.154  23.114   4.214  0.00  0.00    +0.188 C 
ATOM      4  C   UNL     1     -35.790  22.003   2.162  0.00  0.00    +0.176 C 
ATOM      5  C   UNL     1     -34.908  23.678   3.551  0.00  0.00    +0.236 C 
ENDROOT
BRANCH   5   8
ATOM      6  F   UNL     1     -36.273  27.601   1.139  0.00  0.00    -0.199 F 
ATOM      7  O   UNL     1     -33.775  25.462   5.362  0.00  0.00    -0.193 OA
ATOM      8  N   UNL     1     -34.960  25.105   3.412  0.00  0.00    -0.176 N 
ATOM      9  N   UNL     1     -34.419  27.321   4.228  0.00  0.00    -0.304 NA
ATOM     10  N   UNL     1     -35.085  29.219   3.054  0.00  0.00    -0.330 N 
ATOM     11  C   UNL     1     -35.601  25.681   2.326  0.00  0.00    +0.113 C 
ATOM     12  C   UNL     1     -34.354  25.944   4.386  0.00  0.00    +0.276 C 
ATOM     13  C   UNL     1     -35.663  26.999   2.174  0.00  0.00    +0.200 C 
ATOM     14  C   UNL     1     -35.027  27.855   3.199  0.00  0.00    +0.220 C 
ATOM     15  H   UNL     1     -34.667  29.804   3.728  0.00  0.00    +0.145 HD
ATOM     16  H   UNL     1     -35.544  29.614   2.277  0.00  0.00    +0.145 HD
ENDBRANCH   5   8
BRANCH   2  17
ATOM     17  O   UNL     1     -35.301  20.855   4.197  0.00  0.00    -0.379 OA
ATOM     18  H   UNL     1     -34.837  20.356   3.507  0.00  0.00    +0.211 HD
ENDBRANCH   2  17
BRANCH   3  19
ATOM     19  O   UNL     1     -36.044  23.059   5.622  0.00  0.00    -0.378 OA
ATOM     20  H   UNL     1     -35.109  23.110   5.874  0.00  0.00    +0.211 HD
ENDBRANCH   3  19
BRANCH   4  21
ATOM     21  C   UNL     1     -36.922  22.438   1.241  0.00  0.00    +0.186 C 
BRANCH  21  22
ATOM     22  O   UNL     1     -38.000  21.532   1.389  0.00  0.00    -0.271 OA
BRANCH  22  23
ATOM     23  P   UNL     1     -39.504  22.128   1.470  0.00  0.00    +0.473 P 
ATOM     24  O   UNL     1     -40.097  22.534   0.153  0.00  0.00    -0.227 OA
BRANCH  23  25
ATOM     25  O   UNL     1     -39.390  23.309   2.570  0.00  0.00    -0.303 OA
ATOM     26  H   UNL     1     -39.022  24.103   2.154  0.00  0.00    +0.222 HD
ENDBRANCH  23  25
BRANCH  23  27
ATOM     27  O   UNL     1     -40.311  20.967   2.254  0.00  0.00    -0.303 OA
ATOM     28  H   UNL     1     -39.917  20.834   3.130  0.00  0.00    +0.222 HD
ENDBRANCH  23  27
ENDBRANCH  22  23
ENDBRANCH  21  22
ENDBRANCH   4  21
TORSDOF 8
ENDMDL
