MODEL 1
REMARK VINA RESULT:      -6.2      0.000      0.000
REMARK  Name = 19596
REMARK  4 active torsions:
REMARK  status: ('A' for Active; 'I' for Inactive)
REMARK    1  A    between atoms: S_1  and  C_4
REMARK    2  A    between atoms: S_1  and  N_13
REMARK    3  A    between atoms: C_9  and  N_10
REMARK    4  A    between atoms: C_19  and  O_22
REMARK                            x       y       z     vdW  Elec       q    Type
REMARK                         _______ _______ _______ _____ _____    ______ ____
ROOT
ATOM      1  S   UNL     1     -37.042  23.195   2.791  0.00  0.00    +0.075 S 
ATOM      2  O   UNL     1     -38.439  23.433   3.132  0.00  0.00    -0.150 OA
ATOM      3  O   UNL     1     -36.597  23.374   1.415  0.00  0.00    -0.150 OA
ENDROOT
BRANCH   1   4
ATOM      4  N   UNL     1     -36.598  21.628   3.344  0.00  0.00    -0.191 N 
ATOM      5  H   UNL     1     -36.668  21.369   4.291  0.00  0.00    +0.176 HD
ATOM      6  N   UNL     1     -37.037  20.282   1.457  0.00  0.00    -0.331 NA
ATOM      7  N   UNL     1     -35.290  19.004   0.398  0.00  0.00    -0.311 NA
ATOM      8  C   UNL     1     -36.106  20.693   2.309  0.00  0.00    +0.198 C 
ATOM      9  C   UNL     1     -34.793  20.358   2.324  0.00  0.00    +0.177 C 
ATOM     10  C   UNL     1     -34.430  19.486   1.319  0.00  0.00    +0.272 C 
ATOM     11  C   UNL     1     -36.559  19.437   0.524  0.00  0.00    +0.119 C 
ATOM     12  C   UNL     1     -37.539  18.926  -0.477  0.00  0.00    +0.143 C 
BRANCH  10  13
ATOM     13  O   UNL     1     -33.127  19.073   1.230  0.00  0.00    -0.450 OA
ATOM     14  C   UNL     1     -32.249  19.881   0.455  0.00  0.00    +0.255 C 
ENDBRANCH  10  13
ENDBRANCH   1   4
BRANCH   1  15
ATOM     15  C   UNL     1     -36.044  24.205   3.807  0.00  0.00    +0.125 C 
ATOM     16  C   UNL     1     -34.654  24.140   3.705  0.00  0.00    +0.021 C 
ATOM     17  C   UNL     1     -36.637  25.079   4.719  0.00  0.00    +0.021 C 
ATOM     18  C   UNL     1     -33.857  24.947   4.517  0.00  0.00    +0.015 C 
ATOM     19  C   UNL     1     -35.840  25.886   5.530  0.00  0.00    +0.015 C 
ATOM     20  C   UNL     1     -34.450  25.821   5.429  0.00  0.00    +0.042 C 
BRANCH  20  21
ATOM     21  N   UNL     1     -33.644  26.638   6.250  0.00  0.00    -0.357 N 
ATOM     22  H   UNL     1     -32.664  26.608   6.163  0.00  0.00    +0.142 HD
ATOM     23  H   UNL     1     -34.062  27.239   6.908  0.00  0.00    +0.142 HD
ENDBRANCH  20  21
ENDBRANCH   1  15
TORSDOF 4
ENDMDL
MODEL 2
REMARK VINA RESULT:      -6.1      2.627      6.385
REMARK  Name = 19596
REMARK  4 active torsions:
REMARK  status: ('A' for Active; 'I' for Inactive)
REMARK    1  A    between atoms: S_1  and  C_4
REMARK    2  A    between atoms: S_1  and  N_13
REMARK    3  A    between atoms: C_9  and  N_10
REMARK    4  A    between atoms: C_19  and  O_22
REMARK                            x       y       z     vdW  Elec       q    Type
REMARK                         _______ _______ _______ _____ _____    ______ ____
ROOT
ATOM      1  S   UNL     1     -35.348  20.679   1.590  0.00  0.00    +0.075 S 
ATOM      2  O   UNL     1     -36.302  20.426   0.518  0.00  0.00    -0.150 OA
ATOM      3  O   UNL     1     -35.624  20.178   2.931  0.00  0.00    -0.150 OA
ENDROOT
BRANCH   1   4
ATOM      4  N   UNL     1     -35.028  22.367   1.657  0.00  0.00    -0.191 N 
ATOM      5  H   UNL     1     -34.320  22.786   1.116  0.00  0.00    +0.176 HD
ATOM      6  N   UNL     1     -37.145  23.264   2.186  0.00  0.00    -0.331 NA
ATOM      7  N   UNL     1     -37.494  24.549   4.193  0.00  0.00    -0.311 NA
ATOM      8  C   UNL     1     -35.881  23.152   2.576  0.00  0.00    +0.198 C 
ATOM      9  C   UNL     1     -35.314  23.660   3.696  0.00  0.00    +0.177 C 
ATOM     10  C   UNL     1     -36.189  24.370   4.491  0.00  0.00    +0.272 C 
ATOM     11  C   UNL     1     -37.898  23.977   3.044  0.00  0.00    +0.119 C 
ATOM     12  C   UNL     1     -39.334  24.152   2.683  0.00  0.00    +0.143 C 
BRANCH  10  13
ATOM     13  O   UNL     1     -35.732  24.934   5.652  0.00  0.00    -0.450 OA
ATOM     14  C   UNL     1     -34.569  25.748   5.554  0.00  0.00    +0.255 C 
ENDBRANCH  10  13
ENDBRANCH   1   4
BRANCH   1  15
ATOM     15  C   UNL     1     -33.789  20.060   1.103  0.00  0.00    +0.125 C 
ATOM     16  C   UNL     1     -33.371  18.803   1.541  0.00  0.00    +0.021 C 
ATOM     17  C   UNL     1     -32.964  20.821   0.275  0.00  0.00    +0.021 C 
ATOM     18  C   UNL     1     -32.126  18.309   1.152  0.00  0.00    +0.015 C 
ATOM     19  C   UNL     1     -31.719  20.327  -0.114  0.00  0.00    +0.015 C 
ATOM     20  C   UNL     1     -31.300  19.070   0.324  0.00  0.00    +0.042 C 
BRANCH  20  21
ATOM     21  N   UNL     1     -30.041  18.570  -0.070  0.00  0.00    -0.357 N 
ATOM     22  H   UNL     1     -29.670  17.771   0.370  0.00  0.00    +0.142 HD
ATOM     23  H   UNL     1     -29.535  19.019  -0.784  0.00  0.00    +0.142 HD
ENDBRANCH  20  21
ENDBRANCH   1  15
TORSDOF 4
ENDMDL
MODEL 3
REMARK VINA RESULT:      -6.0      4.164      6.521
REMARK  Name = 19596
REMARK  4 active torsions:
REMARK  status: ('A' for Active; 'I' for Inactive)
REMARK    1  A    between atoms: S_1  and  C_4
REMARK    2  A    between atoms: S_1  and  N_13
REMARK    3  A    between atoms: C_9  and  N_10
REMARK    4  A    between atoms: C_19  and  O_22
REMARK                            x       y       z     vdW  Elec       q    Type
REMARK                         _______ _______ _______ _____ _____    ______ ____
ROOT
ATOM      1  S   UNL     1     -38.392  24.286   2.643  0.00  0.00    +0.075 S 
ATOM      2  O   UNL     1     -38.526  22.855   2.885  0.00  0.00    -0.150 OA
ATOM      3  O   UNL     1     -37.518  24.754   1.574  0.00  0.00    -0.150 OA
ENDROOT
BRANCH   1   4
ATOM      4  N   UNL     1     -37.966  25.058   4.119  0.00  0.00    -0.191 N 
ATOM      5  H   UNL     1     -38.587  25.659   4.591  0.00  0.00    +0.176 HD
ATOM      6  N   UNL     1     -36.455  23.522   5.077  0.00  0.00    -0.331 NA
ATOM      7  N   UNL     1     -34.183  24.149   5.581  0.00  0.00    -0.311 NA
ATOM      8  C   UNL     1     -36.612  24.764   4.637  0.00  0.00    +0.198 C 
ATOM      9  C   UNL     1     -35.689  25.754   4.607  0.00  0.00    +0.177 C 
ATOM     10  C   UNL     1     -34.457  25.382   5.106  0.00  0.00    +0.272 C 
ATOM     11  C   UNL     1     -35.212  23.282   5.537  0.00  0.00    +0.119 C 
ATOM     12  C   UNL     1     -34.946  21.907   6.052  0.00  0.00    +0.143 C 
BRANCH  10  13
ATOM     13  O   UNL     1     -33.441  26.299   5.130  0.00  0.00    -0.450 OA
ATOM     14  C   UNL     1     -33.286  27.116   3.975  0.00  0.00    +0.255 C 
ENDBRANCH  10  13
ENDBRANCH   1   4
BRANCH   1  15
ATOM     15  C   UNL     1     -39.980  24.952   2.359  0.00  0.00    +0.125 C 
ATOM     16  C   UNL     1     -40.424  26.041   3.110  0.00  0.00    +0.021 C 
ATOM     17  C   UNL     1     -40.805  24.397   1.380  0.00  0.00    +0.021 C 
ATOM     18  C   UNL     1     -41.693  26.573   2.883  0.00  0.00    +0.015 C 
ATOM     19  C   UNL     1     -42.074  24.929   1.153  0.00  0.00    +0.015 C 
ATOM     20  C   UNL     1     -42.519  26.018   1.905  0.00  0.00    +0.042 C 
BRANCH  20  21
ATOM     21  N   UNL     1     -43.802  26.556   1.675  0.00  0.00    -0.357 N 
ATOM     22  H   UNL     1     -44.457  26.596   2.408  0.00  0.00    +0.142 HD
ATOM     23  H   UNL     1     -44.041  26.892   0.782  0.00  0.00    +0.142 HD
ENDBRANCH  20  21
ENDBRANCH   1  15
TORSDOF 4
ENDMDL
MODEL 4
REMARK VINA RESULT:      -5.9      4.431      6.300
REMARK  Name = 19596
REMARK  4 active torsions:
REMARK  status: ('A' for Active; 'I' for Inactive)
REMARK    1  A    between atoms: S_1  and  C_4
REMARK    2  A    between atoms: S_1  and  N_13
REMARK    3  A    between atoms: C_9  and  N_10
REMARK    4  A    between atoms: C_19  and  O_22
REMARK                            x       y       z     vdW  Elec       q    Type
REMARK                         _______ _______ _______ _____ _____    ______ ____
ROOT
ATOM      1  S   UNL     1     -33.005  27.383   3.933  0.00  0.00    +0.075 S 
ATOM      2  O   UNL     1     -33.641  28.337   3.034  0.00  0.00    -0.150 OA
ATOM      3  O   UNL     1     -32.493  26.126   3.402  0.00  0.00    -0.150 OA
ENDROOT
BRANCH   1   4
ATOM      4  N   UNL     1     -34.072  27.064   5.244  0.00  0.00    -0.191 N 
ATOM      5  H   UNL     1     -34.011  27.553   6.097  0.00  0.00    +0.176 HD
ATOM      6  N   UNL     1     -36.030  26.347   4.142  0.00  0.00    -0.331 NA
ATOM      7  N   UNL     1     -36.954  24.156   4.531  0.00  0.00    -0.311 NA
ATOM      8  C   UNL     1     -35.086  26.012   5.013  0.00  0.00    +0.198 C 
ATOM      9  C   UNL     1     -34.957  24.843   5.684  0.00  0.00    +0.177 C 
ATOM     10  C   UNL     1     -35.946  23.925   5.398  0.00  0.00    +0.272 C 
ATOM     11  C   UNL     1     -36.934  25.369   3.948  0.00  0.00    +0.119 C 
ATOM     12  C   UNL     1     -38.033  25.661   2.982  0.00  0.00    +0.143 C 
BRANCH  10  13
ATOM     13  O   UNL     1     -35.925  22.703   6.016  0.00  0.00    -0.450 OA
ATOM     14  C   UNL     1     -34.798  21.874   5.758  0.00  0.00    +0.255 C 
ENDBRANCH  10  13
ENDBRANCH   1   4
BRANCH   1  15
ATOM     15  C   UNL     1     -31.691  28.186   4.756  0.00  0.00    +0.125 C 
ATOM     16  C   UNL     1     -30.433  28.256   4.156  0.00  0.00    +0.021 C 
ATOM     17  C   UNL     1     -31.899  28.758   6.010  0.00  0.00    +0.021 C 
ATOM     18  C   UNL     1     -29.383  28.898   4.814  0.00  0.00    +0.015 C 
ATOM     19  C   UNL     1     -30.849  29.400   6.668  0.00  0.00    +0.015 C 
ATOM     20  C   UNL     1     -29.591  29.470   6.069  0.00  0.00    +0.042 C 
BRANCH  20  21
ATOM     21  N   UNL     1     -28.529  30.120   6.733  0.00  0.00    -0.357 N 
ATOM     22  H   UNL     1     -28.608  31.071   6.974  0.00  0.00    +0.142 HD
ATOM     23  H   UNL     1     -27.711  29.621   6.957  0.00  0.00    +0.142 HD
ENDBRANCH  20  21
ENDBRANCH   1  15
TORSDOF 4
ENDMDL
MODEL 5
REMARK VINA RESULT:      -5.9      2.668      6.436
REMARK  Name = 19596
REMARK  4 active torsions:
REMARK  status: ('A' for Active; 'I' for Inactive)
REMARK    1  A    between atoms: S_1  and  C_4
REMARK    2  A    between atoms: S_1  and  N_13
REMARK    3  A    between atoms: C_9  and  N_10
REMARK    4  A    between atoms: C_19  and  O_22
REMARK                            x       y       z     vdW  Elec       q    Type
REMARK                         _______ _______ _______ _____ _____    ______ ____
ROOT
ATOM      1  S   UNL     1     -34.594  22.064   0.231  0.00  0.00    +0.075 S 
ATOM      2  O   UNL     1     -34.021  23.225   0.900  0.00  0.00    -0.150 OA
ATOM      3  O   UNL     1     -34.873  22.123  -1.199  0.00  0.00    -0.150 OA
ENDROOT
BRANCH   1   4
ATOM      4  N   UNL     1     -36.010  21.581   1.078  0.00  0.00    -0.191 N 
ATOM      5  H   UNL     1     -36.588  20.853   0.756  0.00  0.00    +0.176 HD
ATOM      6  N   UNL     1     -35.460  22.089   3.315  0.00  0.00    -0.331 NA
ATOM      7  N   UNL     1     -36.769  23.649   4.603  0.00  0.00    -0.311 NA
ATOM      8  C   UNL     1     -36.307  22.328   2.321  0.00  0.00    +0.198 C 
ATOM      9  C   UNL     1     -37.374  23.161   2.325  0.00  0.00    +0.177 C 
ATOM     10  C   UNL     1     -37.565  23.814   3.525  0.00  0.00    +0.272 C 
ATOM     11  C   UNL     1     -35.751  22.785   4.430  0.00  0.00    +0.119 C 
ATOM     12  C   UNL     1     -34.849  22.578   5.599  0.00  0.00    +0.143 C 
BRANCH  10  13
ATOM     13  O   UNL     1     -38.615  24.684   3.654  0.00  0.00    -0.450 OA
ATOM     14  C   UNL     1     -38.690  25.743   2.707  0.00  0.00    +0.255 C 
ENDBRANCH  10  13
ENDBRANCH   1   4
BRANCH   1  15
ATOM     15  C   UNL     1     -33.550  20.692   0.511  0.00  0.00    +0.125 C 
ATOM     16  C   UNL     1     -32.252  20.688  -0.000  0.00  0.00    +0.021 C 
ATOM     17  C   UNL     1     -34.014  19.602   1.247  0.00  0.00    +0.021 C 
ATOM     18  C   UNL     1     -31.419  19.592   0.223  0.00  0.00    +0.015 C 
ATOM     19  C   UNL     1     -33.180  18.506   1.471  0.00  0.00    +0.015 C 
ATOM     20  C   UNL     1     -31.882  18.501   0.959  0.00  0.00    +0.042 C 
BRANCH  20  21
ATOM     21  N   UNL     1     -31.039  17.393   1.186  0.00  0.00    -0.357 N 
ATOM     22  H   UNL     1     -31.261  16.517   0.794  0.00  0.00    +0.142 HD
ATOM     23  H   UNL     1     -30.229  17.495   1.735  0.00  0.00    +0.142 HD
ENDBRANCH  20  21
ENDBRANCH   1  15
TORSDOF 4
ENDMDL
MODEL 6
REMARK VINA RESULT:      -5.9      2.811      6.642
REMARK  Name = 19596
REMARK  4 active torsions:
REMARK  status: ('A' for Active; 'I' for Inactive)
REMARK    1  A    between atoms: S_1  and  C_4
REMARK    2  A    between atoms: S_1  and  N_13
REMARK    3  A    between atoms: C_9  and  N_10
REMARK    4  A    between atoms: C_19  and  O_22
REMARK                            x       y       z     vdW  Elec       q    Type
REMARK                         _______ _______ _______ _____ _____    ______ ____
ROOT
ATOM      1  S   UNL     1     -35.841  20.371   0.664  0.00  0.00    +0.075 S 
ATOM      2  O   UNL     1     -36.189  20.772  -0.693  0.00  0.00    -0.150 OA
ATOM      3  O   UNL     1     -36.887  19.904   1.566  0.00  0.00    -0.150 OA
ENDROOT
BRANCH   1   4
ATOM      4  N   UNL     1     -34.962  21.648   1.409  0.00  0.00    -0.191 N 
ATOM      5  H   UNL     1     -34.016  21.820   1.200  0.00  0.00    +0.176 HD
ATOM      6  N   UNL     1     -36.647  23.241   1.838  0.00  0.00    -0.331 NA
ATOM      7  N   UNL     1     -37.128  23.983   4.079  0.00  0.00    -0.311 NA
ATOM      8  C   UNL     1     -35.714  22.470   2.382  0.00  0.00    +0.198 C 
ATOM      9  C   UNL     1     -35.395  22.358   3.693  0.00  0.00    +0.177 C 
ATOM     10  C   UNL     1     -36.154  23.160   4.521  0.00  0.00    +0.272 C 
ATOM     11  C   UNL     1     -37.319  23.973   2.747  0.00  0.00    +0.119 C 
ATOM     12  C   UNL     1     -38.389  24.870   2.221  0.00  0.00    +0.143 C 
BRANCH  10  13
ATOM     13  O   UNL     1     -35.924  23.136   5.871  0.00  0.00    -0.450 OA
ATOM     14  C   UNL     1     -35.197  22.022   6.377  0.00  0.00    +0.255 C 
ENDBRANCH  10  13
ENDBRANCH   1   4
BRANCH   1  15
ATOM     15  C   UNL     1     -34.621  19.126   0.579  0.00  0.00    +0.125 C 
ATOM     16  C   UNL     1     -34.706  18.131  -0.396  0.00  0.00    +0.021 C 
ATOM     17  C   UNL     1     -33.560  19.126   1.485  0.00  0.00    +0.021 C 
ATOM     18  C   UNL     1     -33.730  17.137  -0.463  0.00  0.00    +0.015 C 
ATOM     19  C   UNL     1     -32.584  18.131   1.418  0.00  0.00    +0.015 C 
ATOM     20  C   UNL     1     -32.669  17.136   0.443  0.00  0.00    +0.042 C 
BRANCH  20  21
ATOM     21  N   UNL     1     -31.682  16.131   0.374  0.00  0.00    -0.357 N 
ATOM     22  H   UNL     1     -31.946  15.182   0.373  0.00  0.00    +0.142 HD
ATOM     23  H   UNL     1     -30.731  16.378   0.326  0.00  0.00    +0.142 HD
ENDBRANCH  20  21
ENDBRANCH   1  15
TORSDOF 4
ENDMDL
MODEL 7
REMARK VINA RESULT:      -5.9      1.612      1.867
REMARK  Name = 19596
REMARK  4 active torsions:
REMARK  status: ('A' for Active; 'I' for Inactive)
REMARK    1  A    between atoms: S_1  and  C_4
REMARK    2  A    between atoms: S_1  and  N_13
REMARK    3  A    between atoms: C_9  and  N_10
REMARK    4  A    between atoms: C_19  and  O_22
REMARK                            x       y       z     vdW  Elec       q    Type
REMARK                         _______ _______ _______ _____ _____    ______ ____
ROOT
ATOM      1  S   UNL     1     -37.954  21.849   1.857  0.00  0.00    +0.075 S 
ATOM      2  O   UNL     1     -39.373  21.587   2.065  0.00  0.00    -0.150 OA
ATOM      3  O   UNL     1     -37.466  22.137   0.514  0.00  0.00    -0.150 OA
ENDROOT
BRANCH   1   4
ATOM      4  N   UNL     1     -37.048  20.555   2.538  0.00  0.00    -0.191 N 
ATOM      5  H   UNL     1     -37.153  20.283   3.478  0.00  0.00    +0.176 HD
ATOM      6  N   UNL     1     -36.684  19.156   0.674  0.00  0.00    -0.331 NA
ATOM      7  N   UNL     1     -34.457  18.625  -0.076  0.00  0.00    -0.311 NA
ATOM      8  C   UNL     1     -36.103  19.877   1.625  0.00  0.00    +0.198 C 
ATOM      9  C   UNL     1     -34.776  20.054   1.834  0.00  0.00    +0.177 C 
ATOM     10  C   UNL     1     -33.976  19.387   0.929  0.00  0.00    +0.272 C 
ATOM     11  C   UNL     1     -35.800  18.556  -0.144  0.00  0.00    +0.119 C 
ATOM     12  C   UNL     1     -36.368  17.724  -1.244  0.00  0.00    +0.143 C 
BRANCH  10  13
ATOM     13  O   UNL     1     -32.615  19.487   1.038  0.00  0.00    -0.450 OA
ATOM     14  C   UNL     1     -31.880  18.269   1.032  0.00  0.00    +0.255 C 
ENDBRANCH  10  13
ENDBRANCH   1   4
BRANCH   1  15
ATOM     15  C   UNL     1     -37.477  23.174   2.890  0.00  0.00    +0.125 C 
ATOM     16  C   UNL     1     -36.418  23.016   3.783  0.00  0.00    +0.021 C 
ATOM     17  C   UNL     1     -38.155  24.392   2.819  0.00  0.00    +0.021 C 
ATOM     18  C   UNL     1     -36.038  24.074   4.608  0.00  0.00    +0.015 C 
ATOM     19  C   UNL     1     -37.775  25.450   3.644  0.00  0.00    +0.015 C 
ATOM     20  C   UNL     1     -36.715  25.292   4.538  0.00  0.00    +0.042 C 
BRANCH  20  21
ATOM     21  N   UNL     1     -36.330  26.363   5.371  0.00  0.00    -0.357 N 
ATOM     22  H   UNL     1     -35.390  26.654   5.396  0.00  0.00    +0.142 HD
ATOM     23  H   UNL     1     -37.001  26.820   5.927  0.00  0.00    +0.142 HD
ENDBRANCH  20  21
ENDBRANCH   1  15
TORSDOF 4
ENDMDL
MODEL 8
REMARK VINA RESULT:      -5.5      2.951      4.486
REMARK  Name = 19596
REMARK  4 active torsions:
REMARK  status: ('A' for Active; 'I' for Inactive)
REMARK    1  A    between atoms: S_1  and  C_4
REMARK    2  A    between atoms: S_1  and  N_13
REMARK    3  A    between atoms: C_9  and  N_10
REMARK    4  A    between atoms: C_19  and  O_22
REMARK                            x       y       z     vdW  Elec       q    Type
REMARK                         _______ _______ _______ _____ _____    ______ ____
ROOT
ATOM      1  S   UNL     1     -34.856  26.683   3.525  0.00  0.00    +0.075 S 
ATOM      2  O   UNL     1     -36.007  26.299   4.332  0.00  0.00    -0.150 OA
ATOM      3  O   UNL     1     -35.025  27.647   2.445  0.00  0.00    -0.150 OA
ENDROOT
BRANCH   1   4
ATOM      4  N   UNL     1     -34.107  25.259   2.919  0.00  0.00    -0.191 N 
ATOM      5  H   UNL     1     -33.292  25.292   2.368  0.00  0.00    +0.176 HD
ATOM      6  N   UNL     1     -34.662  23.657   4.558  0.00  0.00    -0.331 NA
ATOM      7  N   UNL     1     -35.932  21.685   4.003  0.00  0.00    -0.311 NA
ATOM      8  C   UNL     1     -34.762  23.981   3.275  0.00  0.00    +0.198 C 
ATOM      9  C   UNL     1     -35.386  23.289   2.293  0.00  0.00    +0.177 C 
ATOM     10  C   UNL     1     -35.970  22.115   2.724  0.00  0.00    +0.272 C 
ATOM     11  C   UNL     1     -35.272  22.493   4.854  0.00  0.00    +0.119 C 
ATOM     12  C   UNL     1     -35.210  22.051   6.277  0.00  0.00    +0.143 C 
BRANCH  10  13
ATOM     13  O   UNL     1     -36.632  21.326   1.822  0.00  0.00    -0.450 OA
ATOM     14  C   UNL     1     -36.203  19.973   1.719  0.00  0.00    +0.255 C 
ENDBRANCH  10  13
ENDBRANCH   1   4
BRANCH   1  15
ATOM     15  C   UNL     1     -33.612  27.291   4.589  0.00  0.00    +0.125 C 
ATOM     16  C   UNL     1     -33.491  26.784   5.882  0.00  0.00    +0.021 C 
ATOM     17  C   UNL     1     -32.738  28.284   4.144  0.00  0.00    +0.021 C 
ATOM     18  C   UNL     1     -32.497  27.270   6.732  0.00  0.00    +0.015 C 
ATOM     19  C   UNL     1     -31.745  28.770   4.993  0.00  0.00    +0.015 C 
ATOM     20  C   UNL     1     -31.623  28.263   6.287  0.00  0.00    +0.042 C 
BRANCH  20  21
ATOM     21  N   UNL     1     -30.618  28.755   7.146  0.00  0.00    -0.357 N 
ATOM     22  H   UNL     1     -30.547  29.722   7.318  0.00  0.00    +0.142 HD
ATOM     23  H   UNL     1     -29.988  28.131   7.574  0.00  0.00    +0.142 HD
ENDBRANCH  20  21
ENDBRANCH   1  15
TORSDOF 4
ENDMDL
MODEL 9
REMARK VINA RESULT:      -5.5      3.971      7.531
REMARK  Name = 19596
REMARK  4 active torsions:
REMARK  status: ('A' for Active; 'I' for Inactive)
REMARK    1  A    between atoms: S_1  and  C_4
REMARK    2  A    between atoms: S_1  and  N_13
REMARK    3  A    between atoms: C_9  and  N_10
REMARK    4  A    between atoms: C_19  and  O_22
REMARK                            x       y       z     vdW  Elec       q    Type
REMARK                         _______ _______ _______ _____ _____    ______ ____
ROOT
ATOM      1  S   UNL     1     -34.690  25.958   5.124  0.00  0.00    +0.075 S 
ATOM      2  O   UNL     1     -35.922  26.505   5.680  0.00  0.00    -0.150 OA
ATOM      3  O   UNL     1     -33.507  25.847   5.968  0.00  0.00    -0.150 OA
ENDROOT
BRANCH   1   4
ATOM      4  N   UNL     1     -34.299  26.826   3.691  0.00  0.00    -0.191 N 
ATOM      5  H   UNL     1     -34.863  26.784   2.886  0.00  0.00    +0.176 HD
ATOM      6  N   UNL     1     -33.142  28.701   4.534  0.00  0.00    -0.331 NA
ATOM      7  N   UNL     1     -30.862  29.154   3.900  0.00  0.00    -0.311 NA
ATOM      8  C   UNL     1     -33.063  27.637   3.743  0.00  0.00    +0.198 C 
ATOM      9  C   UNL     1     -32.001  27.230   3.009  0.00  0.00    +0.177 C 
ATOM     10  C   UNL     1     -30.896  28.048   3.127  0.00  0.00    +0.272 C 
ATOM     11  C   UNL     1     -32.003  29.416   4.565  0.00  0.00    +0.119 C 
ATOM     12  C   UNL     1     -32.002  30.631   5.432  0.00  0.00    +0.143 C 
BRANCH  10  13
ATOM     13  O   UNL     1     -29.758  27.740   2.430  0.00  0.00    -0.450 OA
ATOM     14  C   UNL     1     -29.910  26.898   1.294  0.00  0.00    +0.255 C 
ENDBRANCH  10  13
ENDBRANCH   1   4
BRANCH   1  15
ATOM     15  C   UNL     1     -35.029  24.373   4.476  0.00  0.00    +0.125 C 
ATOM     16  C   UNL     1     -35.119  24.188   3.096  0.00  0.00    +0.021 C 
ATOM     17  C   UNL     1     -35.209  23.291   5.338  0.00  0.00    +0.021 C 
ATOM     18  C   UNL     1     -35.390  22.921   2.579  0.00  0.00    +0.015 C 
ATOM     19  C   UNL     1     -35.481  22.025   4.821  0.00  0.00    +0.015 C 
ATOM     20  C   UNL     1     -35.571  21.839   3.441  0.00  0.00    +0.042 C 
BRANCH  20  21
ATOM     21  N   UNL     1     -35.844  20.558   2.918  0.00  0.00    -0.357 N 
ATOM     22  H   UNL     1     -35.104  19.944   2.706  0.00  0.00    +0.142 HD
ATOM     23  H   UNL     1     -36.775  20.277   2.767  0.00  0.00    +0.142 HD
ENDBRANCH  20  21
ENDBRANCH   1  15
TORSDOF 4
ENDMDL
