MODEL 1
REMARK VINA RESULT:      -5.9      0.000      0.000
REMARK  Name = 19835551
REMARK  4 active torsions:
REMARK  status: ('A' for Active; 'I' for Inactive)
REMARK    1  A    between atoms: C_5  and  O_13
REMARK    2  A    between atoms: C_6  and  O_15
REMARK    3  A    between atoms: C_9  and  O_17
REMARK    4  A    between atoms: C_10  and  O_19
REMARK                            x       y       z     vdW  Elec       q    Type
REMARK                         _______ _______ _______ _____ _____    ______ ____
ROOT
ATOM      1  O   UNL     1     -34.126  25.819   6.187  0.00  0.00    -0.283 OA
ATOM      2  O   UNL     1     -33.798  27.756   4.382  0.00  0.00    -0.283 OA
ATOM      3  C   UNL     1     -34.971  24.010   3.177  0.00  0.00    +0.074 C 
ATOM      4  C   UNL     1     -34.754  24.223   4.547  0.00  0.00    +0.051 C 
ATOM      5  C   UNL     1     -35.372  22.729   2.766  0.00  0.00    +0.174 C 
ATOM      6  C   UNL     1     -34.781  25.108   2.211  0.00  0.00    +0.140 C 
ATOM      7  C   UNL     1     -34.929  23.194   5.480  0.00  0.00    +0.043 C 
ATOM      8  C   UNL     1     -34.333  25.556   5.014  0.00  0.00    +0.235 C 
ATOM      9  C   UNL     1     -35.549  21.700   3.695  0.00  0.00    +0.202 C 
ATOM     10  C   UNL     1     -35.328  21.932   5.049  0.00  0.00    +0.171 C 
ATOM     11  C   UNL     1     -34.399  26.336   2.585  0.00  0.00    +0.082 C 
ATOM     12  C   UNL     1     -34.149  26.649   4.001  0.00  0.00    +0.237 C 
ENDROOT
BRANCH   5  13
ATOM     13  O   UNL     1     -35.612  22.421   1.456  0.00  0.00    -0.503 OA
ATOM     14  H   UNL     1     -36.066  21.632   1.236  0.00  0.00    +0.292 HD
ENDBRANCH   5  13
BRANCH   6  15
ATOM     15  O   UNL     1     -34.990  24.899   0.856  0.00  0.00    -0.505 OA
ATOM     16  H   UNL     1     -34.400  24.360   0.369  0.00  0.00    +0.292 HD
ENDBRANCH   6  15
BRANCH   9  17
ATOM     17  O   UNL     1     -35.939  20.460   3.278  0.00  0.00    -0.501 OA
ATOM     18  H   UNL     1     -35.326  19.751   3.276  0.00  0.00    +0.292 HD
ENDBRANCH   9  17
BRANCH  10  19
ATOM     19  O   UNL     1     -35.496  20.935   5.962  0.00  0.00    -0.503 OA
ATOM     20  H   UNL     1     -35.867  21.125   6.801  0.00  0.00    +0.292 HD
ENDBRANCH  10  19
TORSDOF 4
ENDMDL
MODEL 2
REMARK VINA RESULT:      -5.4      1.339      3.323
REMARK  Name = 19835551
REMARK  4 active torsions:
REMARK  status: ('A' for Active; 'I' for Inactive)
REMARK    1  A    between atoms: C_5  and  O_13
REMARK    2  A    between atoms: C_6  and  O_15
REMARK    3  A    between atoms: C_9  and  O_17
REMARK    4  A    between atoms: C_10  and  O_19
REMARK                            x       y       z     vdW  Elec       q    Type
REMARK                         _______ _______ _______ _____ _____    ______ ____
ROOT
ATOM      1  O   UNL     1     -35.520  26.146   2.221  0.00  0.00    -0.283 OA
ATOM      2  O   UNL     1     -35.159  27.046   4.706  0.00  0.00    -0.283 OA
ATOM      3  C   UNL     1     -35.447  23.010   4.013  0.00  0.00    +0.074 C 
ATOM      4  C   UNL     1     -35.545  23.875   2.912  0.00  0.00    +0.051 C 
ATOM      5  C   UNL     1     -35.545  21.630   3.775  0.00  0.00    +0.174 C 
ATOM      6  C   UNL     1     -35.245  23.547   5.370  0.00  0.00    +0.140 C 
ATOM      7  C   UNL     1     -35.737  23.384   1.615  0.00  0.00    +0.043 C 
ATOM      8  C   UNL     1     -35.445  25.330   3.126  0.00  0.00    +0.235 C 
ATOM      9  C   UNL     1     -35.736  21.136   2.481  0.00  0.00    +0.202 C 
ATOM     10  C   UNL     1     -35.831  22.011   1.404  0.00  0.00    +0.171 C 
ATOM     11  C   UNL     1     -35.148  24.861   5.617  0.00  0.00    +0.082 C 
ATOM     12  C   UNL     1     -35.240  25.841   4.522  0.00  0.00    +0.237 C 
ENDROOT
BRANCH   5  13
ATOM     13  O   UNL     1     -35.460  20.705   4.778  0.00  0.00    -0.503 OA
ATOM     14  H   UNL     1     -34.672  20.630   5.280  0.00  0.00    +0.292 HD
ENDBRANCH   5  13
BRANCH   6  15
ATOM     15  O   UNL     1     -35.152  22.695   6.460  0.00  0.00    -0.505 OA
ATOM     16  H   UNL     1     -35.906  22.530   6.991  0.00  0.00    +0.292 HD
ENDBRANCH   6  15
BRANCH   9  17
ATOM     17  O   UNL     1     -35.830  19.791   2.268  0.00  0.00    -0.501 OA
ATOM     18  H   UNL     1     -35.650  19.437   1.419  0.00  0.00    +0.292 HD
ENDBRANCH   9  17
BRANCH  10  19
ATOM     19  O   UNL     1     -36.017  21.540   0.139  0.00  0.00    -0.503 OA
ATOM     20  H   UNL     1     -36.802  21.750  -0.328  0.00  0.00    +0.292 HD
ENDBRANCH  10  19
TORSDOF 4
ENDMDL
MODEL 3
REMARK VINA RESULT:      -5.4      2.431      4.040
REMARK  Name = 19835551
REMARK  4 active torsions:
REMARK  status: ('A' for Active; 'I' for Inactive)
REMARK    1  A    between atoms: C_5  and  O_13
REMARK    2  A    between atoms: C_6  and  O_15
REMARK    3  A    between atoms: C_9  and  O_17
REMARK    4  A    between atoms: C_10  and  O_19
REMARK                            x       y       z     vdW  Elec       q    Type
REMARK                         _______ _______ _______ _____ _____    ______ ____
ROOT
ATOM      1  O   UNL     1     -37.297  25.864   3.615  0.00  0.00    -0.283 OA
ATOM      2  O   UNL     1     -35.659  25.513   5.691  0.00  0.00    -0.283 OA
ATOM      3  C   UNL     1     -36.697  22.313   3.338  0.00  0.00    +0.074 C 
ATOM      4  C   UNL     1     -37.229  23.570   3.011  0.00  0.00    +0.051 C 
ATOM      5  C   UNL     1     -37.053  21.219   2.533  0.00  0.00    +0.174 C 
ATOM      6  C   UNL     1     -35.793  22.161   4.492  0.00  0.00    +0.140 C 
ATOM      7  C   UNL     1     -38.089  23.735   1.918  0.00  0.00    +0.043 C 
ATOM      8  C   UNL     1     -36.877  24.740   3.835  0.00  0.00    +0.235 C 
ATOM      9  C   UNL     1     -37.910  21.380   1.440  0.00  0.00    +0.202 C 
ATOM     10  C   UNL     1     -38.427  22.635   1.134  0.00  0.00    +0.171 C 
ATOM     11  C   UNL     1     -35.443  23.193   5.272  0.00  0.00    +0.082 C 
ATOM     12  C   UNL     1     -35.954  24.547   5.003  0.00  0.00    +0.237 C 
ENDROOT
BRANCH   5  13
ATOM     13  O   UNL     1     -36.586  19.955   2.765  0.00  0.00    -0.503 OA
ATOM     14  H   UNL     1     -36.207  19.460   2.066  0.00  0.00    +0.292 HD
ENDBRANCH   5  13
BRANCH   6  15
ATOM     15  O   UNL     1     -35.270  20.920   4.820  0.00  0.00    -0.505 OA
ATOM     16  H   UNL     1     -35.606  20.450   5.558  0.00  0.00    +0.292 HD
ENDBRANCH   6  15
BRANCH   9  17
ATOM     17  O   UNL     1     -38.246  20.306   0.668  0.00  0.00    -0.501 OA
ATOM     18  H   UNL     1     -37.953  20.257  -0.221  0.00  0.00    +0.292 HD
ENDBRANCH   9  17
BRANCH  10  19
ATOM     19  O   UNL     1     -39.264  22.802   0.073  0.00  0.00    -0.503 OA
ATOM     20  H   UNL     1     -39.005  23.342  -0.649  0.00  0.00    +0.292 HD
ENDBRANCH  10  19
TORSDOF 4
ENDMDL
MODEL 4
REMARK VINA RESULT:      -5.3      1.792      5.162
REMARK  Name = 19835551
REMARK  4 active torsions:
REMARK  status: ('A' for Active; 'I' for Inactive)
REMARK    1  A    between atoms: C_5  and  O_13
REMARK    2  A    between atoms: C_6  and  O_15
REMARK    3  A    between atoms: C_9  and  O_17
REMARK    4  A    between atoms: C_10  and  O_19
REMARK                            x       y       z     vdW  Elec       q    Type
REMARK                         _______ _______ _______ _____ _____    ______ ____
ROOT
ATOM      1  O   UNL     1     -35.607  23.097  -0.033  0.00  0.00    -0.283 OA
ATOM      2  O   UNL     1     -35.112  20.494   0.279  0.00  0.00    -0.283 OA
ATOM      3  C   UNL     1     -35.749  22.865   3.569  0.00  0.00    +0.074 C 
ATOM      4  C   UNL     1     -35.801  23.469   2.304  0.00  0.00    +0.051 C 
ATOM      5  C   UNL     1     -35.966  23.677   4.694  0.00  0.00    +0.174 C 
ATOM      6  C   UNL     1     -35.474  21.423   3.699  0.00  0.00    +0.140 C 
ATOM      7  C   UNL     1     -36.060  24.837   2.159  0.00  0.00    +0.043 C 
ATOM      8  C   UNL     1     -35.577  22.646   1.101  0.00  0.00    +0.235 C 
ATOM      9  C   UNL     1     -36.227  25.043   4.554  0.00  0.00    +0.202 C 
ATOM     10  C   UNL     1     -36.274  25.622   3.290  0.00  0.00    +0.171 C 
ATOM     11  C   UNL     1     -35.264  20.633   2.638  0.00  0.00    +0.082 C 
ATOM     12  C   UNL     1     -35.300  21.181   1.272  0.00  0.00    +0.237 C 
ENDROOT
BRANCH   5  13
ATOM     13  O   UNL     1     -35.940  23.185   5.969  0.00  0.00    -0.503 OA
ATOM     14  H   UNL     1     -36.441  23.602   6.643  0.00  0.00    +0.292 HD
ENDBRANCH   5  13
BRANCH   6  15
ATOM     15  O   UNL     1     -35.417  20.825   4.949  0.00  0.00    -0.505 OA
ATOM     16  H   UNL     1     -35.977  21.124   5.637  0.00  0.00    +0.292 HD
ENDBRANCH   6  15
BRANCH   9  17
ATOM     17  O   UNL     1     -36.436  25.818   5.658  0.00  0.00    -0.501 OA
ATOM     18  H   UNL     1     -36.819  25.444   6.428  0.00  0.00    +0.292 HD
ENDBRANCH   9  17
BRANCH  10  19
ATOM     19  O   UNL     1     -36.526  26.952   3.143  0.00  0.00    -0.503 OA
ATOM     20  H   UNL     1     -36.232  27.560   3.793  0.00  0.00    +0.292 HD
ENDBRANCH  10  19
TORSDOF 4
ENDMDL
MODEL 5
REMARK VINA RESULT:      -5.3      2.132      3.732
REMARK  Name = 19835551
REMARK  4 active torsions:
REMARK  status: ('A' for Active; 'I' for Inactive)
REMARK    1  A    between atoms: C_5  and  O_13
REMARK    2  A    between atoms: C_6  and  O_15
REMARK    3  A    between atoms: C_9  and  O_17
REMARK    4  A    between atoms: C_10  and  O_19
REMARK                            x       y       z     vdW  Elec       q    Type
REMARK                         _______ _______ _______ _____ _____    ______ ____
ROOT
ATOM      1  O   UNL     1     -36.710  23.976   0.059  0.00  0.00    -0.283 OA
ATOM      2  O   UNL     1     -37.468  26.436   0.757  0.00  0.00    -0.283 OA
ATOM      3  C   UNL     1     -36.298  23.759   3.641  0.00  0.00    +0.074 C 
ATOM      4  C   UNL     1     -36.283  23.334   2.304  0.00  0.00    +0.051 C 
ATOM      5  C   UNL     1     -35.898  22.843   4.627  0.00  0.00    +0.174 C 
ATOM      6  C   UNL     1     -36.722  25.128   3.986  0.00  0.00    +0.140 C 
ATOM      7  C   UNL     1     -35.883  22.038   1.956  0.00  0.00    +0.043 C 
ATOM      8  C   UNL     1     -36.697  24.270   1.243  0.00  0.00    +0.235 C 
ATOM      9  C   UNL     1     -35.497  21.548   4.284  0.00  0.00    +0.202 C 
ATOM     10  C   UNL     1     -35.490  21.147   2.951  0.00  0.00    +0.171 C 
ATOM     11  C   UNL     1     -37.107  26.016   3.059  0.00  0.00    +0.082 C 
ATOM     12  C   UNL     1     -37.122  25.656   1.632  0.00  0.00    +0.237 C 
ENDROOT
BRANCH   5  13
ATOM     13  O   UNL     1     -35.875  23.159   5.957  0.00  0.00    -0.503 OA
ATOM     14  H   UNL     1     -36.508  22.787   6.538  0.00  0.00    +0.292 HD
ENDBRANCH   5  13
BRANCH   6  15
ATOM     15  O   UNL     1     -36.743  25.549   5.307  0.00  0.00    -0.505 OA
ATOM     16  H   UNL     1     -36.047  25.309   5.885  0.00  0.00    +0.292 HD
ENDBRANCH   6  15
BRANCH   9  17
ATOM     17  O   UNL     1     -35.112  20.670   5.255  0.00  0.00    -0.501 OA
ATOM     18  H   UNL     1     -35.351  19.765   5.192  0.00  0.00    +0.292 HD
ENDBRANCH   9  17
BRANCH  10  19
ATOM     19  O   UNL     1     -35.102  19.887   2.607  0.00  0.00    -0.503 OA
ATOM     20  H   UNL     1     -34.740  19.724   1.758  0.00  0.00    +0.292 HD
ENDBRANCH  10  19
TORSDOF 4
ENDMDL
MODEL 6
REMARK VINA RESULT:      -5.3      2.880      4.678
REMARK  Name = 19835551
REMARK  4 active torsions:
REMARK  status: ('A' for Active; 'I' for Inactive)
REMARK    1  A    between atoms: C_5  and  O_13
REMARK    2  A    between atoms: C_6  and  O_15
REMARK    3  A    between atoms: C_9  and  O_17
REMARK    4  A    between atoms: C_10  and  O_19
REMARK                            x       y       z     vdW  Elec       q    Type
REMARK                         _______ _______ _______ _____ _____    ______ ____
ROOT
ATOM      1  O   UNL     1     -35.603  21.255   3.694  0.00  0.00    -0.283 OA
ATOM      2  O   UNL     1     -34.354  22.394   5.758  0.00  0.00    -0.283 OA
ATOM      3  C   UNL     1     -37.225  24.483   3.696  0.00  0.00    +0.074 C 
ATOM      4  C   UNL     1     -36.935  23.176   3.278  0.00  0.00    +0.051 C 
ATOM      5  C   UNL     1     -38.206  25.198   2.990  0.00  0.00    +0.174 C 
ATOM      6  C   UNL     1     -36.513  25.076   4.843  0.00  0.00    +0.140 C 
ATOM      7  C   UNL     1     -37.600  22.595   2.191  0.00  0.00    +0.043 C 
ATOM      8  C   UNL     1     -35.910  22.397   3.996  0.00  0.00    +0.235 C 
ATOM      9  C   UNL     1     -38.872  24.620   1.905  0.00  0.00    +0.202 C 
ATOM     10  C   UNL     1     -38.570  23.322   1.506  0.00  0.00    +0.171 C 
ATOM     11  C   UNL     1     -35.574  24.410   5.528  0.00  0.00    +0.082 C 
ATOM     12  C   UNL     1     -35.206  23.034   5.160  0.00  0.00    +0.237 C 
ENDROOT
BRANCH   5  13
ATOM     13  O   UNL     1     -38.563  26.475   3.320  0.00  0.00    -0.503 OA
ATOM     14  H   UNL     1     -39.440  26.769   3.174  0.00  0.00    +0.292 HD
ENDBRANCH   5  13
BRANCH   6  15
ATOM     15  O   UNL     1     -36.794  26.370   5.255  0.00  0.00    -0.505 OA
ATOM     16  H   UNL     1     -37.053  26.533   6.140  0.00  0.00    +0.292 HD
ENDBRANCH   6  15
BRANCH   9  17
ATOM     17  O   UNL     1     -39.824  25.329   1.230  0.00  0.00    -0.501 OA
ATOM     18  H   UNL     1     -39.596  26.132   0.802  0.00  0.00    +0.292 HD
ENDBRANCH   9  17
BRANCH  10  19
ATOM     19  O   UNL     1     -39.213  22.752   0.450  0.00  0.00    -0.503 OA
ATOM     20  H   UNL     1     -39.775  23.270  -0.092  0.00  0.00    +0.292 HD
ENDBRANCH  10  19
TORSDOF 4
ENDMDL
MODEL 7
REMARK VINA RESULT:      -5.3      2.207      3.978
REMARK  Name = 19835551
REMARK  4 active torsions:
REMARK  status: ('A' for Active; 'I' for Inactive)
REMARK    1  A    between atoms: C_5  and  O_13
REMARK    2  A    between atoms: C_6  and  O_15
REMARK    3  A    between atoms: C_9  and  O_17
REMARK    4  A    between atoms: C_10  and  O_19
REMARK                            x       y       z     vdW  Elec       q    Type
REMARK                         _______ _______ _______ _____ _____    ______ ____
ROOT
ATOM      1  O   UNL     1     -34.921  27.673   3.946  0.00  0.00    -0.283 OA
ATOM      2  O   UNL     1     -33.873  26.516   6.109  0.00  0.00    -0.283 OA
ATOM      3  C   UNL     1     -36.503  24.432   3.742  0.00  0.00    +0.074 C 
ATOM      4  C   UNL     1     -36.187  25.749   3.373  0.00  0.00    +0.051 C 
ATOM      5  C   UNL     1     -37.403  23.720   2.933  0.00  0.00    +0.174 C 
ATOM      6  C   UNL     1     -35.901  23.828   4.944  0.00  0.00    +0.140 C 
ATOM      7  C   UNL     1     -36.749  26.341   2.236  0.00  0.00    +0.043 C 
ATOM      8  C   UNL     1     -35.246  26.525   4.201  0.00  0.00    +0.235 C 
ATOM      9  C   UNL     1     -37.965  24.308   1.795  0.00  0.00    +0.202 C 
ATOM     10  C   UNL     1     -37.638  25.615   1.447  0.00  0.00    +0.171 C 
ATOM     11  C   UNL     1     -35.041  24.491   5.729  0.00  0.00    +0.082 C 
ATOM     12  C   UNL     1     -34.653  25.876   5.418  0.00  0.00    +0.237 C 
ENDROOT
BRANCH   5  13
ATOM     13  O   UNL     1     -37.773  22.433   3.204  0.00  0.00    -0.503 OA
ATOM     14  H   UNL     1     -37.121  21.793   3.415  0.00  0.00    +0.292 HD
ENDBRANCH   5  13
BRANCH   6  15
ATOM     15  O   UNL     1     -36.215  22.529   5.314  0.00  0.00    -0.505 OA
ATOM     16  H   UNL     1     -35.651  21.823   5.069  0.00  0.00    +0.292 HD
ENDBRANCH   6  15
BRANCH   9  17
ATOM     17  O   UNL     1     -38.838  23.602   1.019  0.00  0.00    -0.501 OA
ATOM     18  H   UNL     1     -39.747  23.830   1.009  0.00  0.00    +0.292 HD
ENDBRANCH   9  17
BRANCH  10  19
ATOM     19  O   UNL     1     -38.181  26.197   0.342  0.00  0.00    -0.503 OA
ATOM     20  H   UNL     1     -39.107  26.329   0.289  0.00  0.00    +0.292 HD
ENDBRANCH  10  19
TORSDOF 4
ENDMDL
MODEL 8
REMARK VINA RESULT:      -5.2      2.225      5.441
REMARK  Name = 19835551
REMARK  4 active torsions:
REMARK  status: ('A' for Active; 'I' for Inactive)
REMARK    1  A    between atoms: C_5  and  O_13
REMARK    2  A    between atoms: C_6  and  O_15
REMARK    3  A    between atoms: C_9  and  O_17
REMARK    4  A    between atoms: C_10  and  O_19
REMARK                            x       y       z     vdW  Elec       q    Type
REMARK                         _______ _______ _______ _____ _____    ______ ____
ROOT
ATOM      1  O   UNL     1     -37.637  23.825   3.741  0.00  0.00    -0.283 OA
ATOM      2  O   UNL     1     -36.093  22.859   5.690  0.00  0.00    -0.283 OA
ATOM      3  C   UNL     1     -35.144  26.433   3.906  0.00  0.00    +0.074 C 
ATOM      4  C   UNL     1     -36.288  25.757   3.456  0.00  0.00    +0.051 C 
ATOM      5  C   UNL     1     -34.819  27.655   3.295  0.00  0.00    +0.174 C 
ATOM      6  C   UNL     1     -34.317  25.867   4.987  0.00  0.00    +0.140 C 
ATOM      7  C   UNL     1     -37.086  26.278   2.431  0.00  0.00    +0.043 C 
ATOM      8  C   UNL     1     -36.658  24.471   4.076  0.00  0.00    +0.235 C 
ATOM      9  C   UNL     1     -35.615  28.179   2.271  0.00  0.00    +0.202 C 
ATOM     10  C   UNL     1     -36.745  27.492   1.840  0.00  0.00    +0.171 C 
ATOM     11  C   UNL     1     -34.610  24.703   5.581  0.00  0.00    +0.082 C 
ATOM     12  C   UNL     1     -35.792  23.926   5.174  0.00  0.00    +0.237 C 
ENDROOT
BRANCH   5  13
ATOM     13  O   UNL     1     -33.728  28.392   3.662  0.00  0.00    -0.503 OA
ATOM     14  H   UNL     1     -33.333  28.981   3.050  0.00  0.00    +0.292 HD
ENDBRANCH   5  13
BRANCH   6  15
ATOM     15  O   UNL     1     -33.183  26.530   5.429  0.00  0.00    -0.505 OA
ATOM     16  H   UNL     1     -32.767  26.267   6.226  0.00  0.00    +0.292 HD
ENDBRANCH   6  15
BRANCH   9  17
ATOM     17  O   UNL     1     -35.285  29.368   1.688  0.00  0.00    -0.501 OA
ATOM     18  H   UNL     1     -35.591  30.173   2.059  0.00  0.00    +0.292 HD
ENDBRANCH   9  17
BRANCH  10  19
ATOM     19  O   UNL     1     -37.526  27.994   0.843  0.00  0.00    -0.503 OA
ATOM     20  H   UNL     1     -37.138  28.255   0.031  0.00  0.00    +0.292 HD
ENDBRANCH  10  19
TORSDOF 4
ENDMDL
MODEL 9
REMARK VINA RESULT:      -5.1      1.081      3.185
REMARK  Name = 19835551
REMARK  4 active torsions:
REMARK  status: ('A' for Active; 'I' for Inactive)
REMARK    1  A    between atoms: C_5  and  O_13
REMARK    2  A    between atoms: C_6  and  O_15
REMARK    3  A    between atoms: C_9  and  O_17
REMARK    4  A    between atoms: C_10  and  O_19
REMARK                            x       y       z     vdW  Elec       q    Type
REMARK                         _______ _______ _______ _____ _____    ______ ____
ROOT
ATOM      1  O   UNL     1     -35.523  24.566   0.533  0.00  0.00    -0.283 OA
ATOM      2  O   UNL     1     -35.095  27.078   1.324  0.00  0.00    -0.283 OA
ATOM      3  C   UNL     1     -35.178  24.046   4.091  0.00  0.00    +0.074 C 
ATOM      4  C   UNL     1     -35.380  23.712   2.743  0.00  0.00    +0.051 C 
ATOM      5  C   UNL     1     -35.206  23.009   5.037  0.00  0.00    +0.174 C 
ATOM      6  C   UNL     1     -34.942  25.446   4.487  0.00  0.00    +0.140 C 
ATOM      7  C   UNL     1     -35.606  22.388   2.346  0.00  0.00    +0.043 C 
ATOM      8  C   UNL     1     -35.357  24.777   1.723  0.00  0.00    +0.235 C 
ATOM      9  C   UNL     1     -35.430  21.685   4.644  0.00  0.00    +0.202 C 
ATOM     10  C   UNL     1     -35.629  21.376   3.302  0.00  0.00    +0.171 C 
ATOM     11  C   UNL     1     -34.911  26.449   3.599  0.00  0.00    +0.082 C 
ATOM     12  C   UNL     1     -35.114  26.191   2.164  0.00  0.00    +0.237 C 
ENDROOT
BRANCH   5  13
ATOM     13  O   UNL     1     -35.017  23.228   6.372  0.00  0.00    -0.503 OA
ATOM     14  H   UNL     1     -34.172  23.093   6.754  0.00  0.00    +0.292 HD
ENDBRANCH   5  13
BRANCH   6  15
ATOM     15  O   UNL     1     -34.746  25.779   5.818  0.00  0.00    -0.505 OA
ATOM     16  H   UNL     1     -34.654  26.677   6.068  0.00  0.00    +0.292 HD
ENDBRANCH   6  15
BRANCH   9  17
ATOM     17  O   UNL     1     -35.455  20.689   5.576  0.00  0.00    -0.501 OA
ATOM     18  H   UNL     1     -34.990  20.790   6.384  0.00  0.00    +0.292 HD
ENDBRANCH   9  17
BRANCH  10  19
ATOM     19  O   UNL     1     -35.849  20.090   2.910  0.00  0.00    -0.503 OA
ATOM     20  H   UNL     1     -36.138  19.910   2.037  0.00  0.00    +0.292 HD
ENDBRANCH  10  19
TORSDOF 4
ENDMDL
