MODEL 1
REMARK VINA RESULT:      -6.2      0.000      0.000
REMARK  Name = 5322
REMARK  4 active torsions:
REMARK  status: ('A' for Active; 'I' for Inactive)
REMARK    1  A    between atoms: S_1  and  N_6
REMARK    2  A    between atoms: S_1  and  C_15
REMARK    3  A    between atoms: N_5  and  C_13
REMARK    4  A    between atoms: C_20  and  N_21
REMARK                            x       y       z     vdW  Elec       q    Type
REMARK                         _______ _______ _______ _____ _____    ______ ____
ROOT
ATOM      1  S   UNL     1     -35.851  20.664   1.395  0.00  0.00    +0.075 S 
ATOM      2  O   UNL     1     -36.153  21.912   0.721  0.00  0.00    -0.150 OA
ATOM      3  O   UNL     1     -36.676  19.492   1.176  0.00  0.00    -0.150 OA
ENDROOT
BRANCH   1   6
ATOM      4  O   UNL     1     -35.765  25.563   2.910  0.00  0.00    -0.193 OA
ATOM      5  N   UNL     1     -35.542  24.553   4.976  0.00  0.00    -0.205 N 
ATOM      6  N   UNL     1     -35.712  20.942   3.073  0.00  0.00    -0.188 N 
ATOM      7  N   UNL     1     -35.743  23.290   2.949  0.00  0.00    -0.304 NA
ATOM      8  C   UNL     1     -35.660  22.224   3.671  0.00  0.00    +0.214 C 
ATOM      9  C   UNL     1     -35.457  23.386   5.706  0.00  0.00    +0.081 C 
ATOM     10  C   UNL     1     -35.507  22.183   5.131  0.00  0.00    +0.067 C 
ATOM     11  C   UNL     1     -35.688  24.528   3.572  0.00  0.00    +0.274 C 
ATOM     12  H   UNL     1     -35.665  20.158   3.666  0.00  0.00    +0.176 HD
BRANCH   5  13
ATOM     13  C   UNL     1     -35.480  25.836   5.666  0.00  0.00    +0.109 C 
ATOM     14  C   UNL     1     -34.040  26.191   5.981  0.00  0.00    +0.025 C 
ENDBRANCH   5  13
ENDBRANCH   1   6
BRANCH   1  15
ATOM     15  C   UNL     1     -34.191  20.213   0.990  0.00  0.00    +0.125 C 
ATOM     16  C   UNL     1     -33.429  21.066   0.212  0.00  0.00    +0.021 C 
ATOM     17  C   UNL     1     -33.684  19.012   1.457  0.00  0.00    +0.021 C 
ATOM     18  C   UNL     1     -32.119  20.710  -0.109  0.00  0.00    +0.015 C 
ATOM     19  C   UNL     1     -32.374  18.656   1.137  0.00  0.00    +0.015 C 
ATOM     20  C   UNL     1     -31.592  19.505   0.354  0.00  0.00    +0.042 C 
BRANCH  20  21
ATOM     21  N   UNL     1     -30.267  19.144   0.031  0.00  0.00    -0.357 N 
ATOM     22  H   UNL     1     -29.547  19.277   0.688  0.00  0.00    +0.142 HD
ATOM     23  H   UNL     1     -30.062  18.759  -0.852  0.00  0.00    +0.142 HD
ENDBRANCH  20  21
ENDBRANCH   1  15
TORSDOF 4
ENDMDL
MODEL 2
REMARK VINA RESULT:      -6.2      1.369      1.756
REMARK  Name = 5322
REMARK  4 active torsions:
REMARK  status: ('A' for Active; 'I' for Inactive)
REMARK    1  A    between atoms: S_1  and  N_6
REMARK    2  A    between atoms: S_1  and  C_15
REMARK    3  A    between atoms: N_5  and  C_13
REMARK    4  A    between atoms: C_20  and  N_21
REMARK                            x       y       z     vdW  Elec       q    Type
REMARK                         _______ _______ _______ _____ _____    ______ ____
ROOT
ATOM      1  S   UNL     1     -35.285  20.549   1.294  0.00  0.00    +0.075 S 
ATOM      2  O   UNL     1     -36.141  20.225   0.168  0.00  0.00    -0.150 OA
ATOM      3  O   UNL     1     -35.646  20.132   2.634  0.00  0.00    -0.150 OA
ENDROOT
BRANCH   1   6
ATOM      4  O   UNL     1     -35.993  23.014   5.735  0.00  0.00    -0.193 OA
ATOM      5  N   UNL     1     -35.339  24.810   4.436  0.00  0.00    -0.205 N 
ATOM      6  N   UNL     1     -34.961  22.223   1.297  0.00  0.00    -0.188 N 
ATOM      7  N   UNL     1     -35.494  22.585   3.559  0.00  0.00    -0.304 NA
ATOM      8  C   UNL     1     -35.111  23.066   2.424  0.00  0.00    +0.214 C 
ATOM      9  C   UNL     1     -34.933  25.279   3.204  0.00  0.00    +0.081 C 
ATOM     10  C   UNL     1     -34.795  24.474   2.149  0.00  0.00    +0.067 C 
ATOM     11  C   UNL     1     -35.629  23.444   4.639  0.00  0.00    +0.274 C 
ATOM     12  H   UNL     1     -34.647  22.632   0.458  0.00  0.00    +0.176 HD
BRANCH   5  13
ATOM     13  C   UNL     1     -35.470  25.743   5.549  0.00  0.00    +0.109 C 
ATOM     14  C   UNL     1     -34.101  26.202   6.011  0.00  0.00    +0.025 C 
ENDBRANCH   5  13
ENDBRANCH   1   6
BRANCH   1  15
ATOM     15  C   UNL     1     -33.677  19.895   0.962  0.00  0.00    +0.125 C 
ATOM     16  C   UNL     1     -32.783  20.643   0.216  0.00  0.00    +0.021 C 
ATOM     17  C   UNL     1     -33.342  18.644   1.452  0.00  0.00    +0.021 C 
ATOM     18  C   UNL     1     -31.515  20.127  -0.046  0.00  0.00    +0.015 C 
ATOM     19  C   UNL     1     -32.073  18.128   1.191  0.00  0.00    +0.015 C 
ATOM     20  C   UNL     1     -31.160  18.869   0.441  0.00  0.00    +0.042 C 
BRANCH  20  21
ATOM     21  N   UNL     1     -29.876  18.347   0.177  0.00  0.00    -0.357 N 
ATOM     22  H   UNL     1     -29.562  17.547   0.656  0.00  0.00    +0.142 HD
ATOM     23  H   UNL     1     -29.294  18.783  -0.488  0.00  0.00    +0.142 HD
ENDBRANCH  20  21
ENDBRANCH   1  15
TORSDOF 4
ENDMDL
MODEL 3
REMARK VINA RESULT:      -6.1      3.651      5.071
REMARK  Name = 5322
REMARK  4 active torsions:
REMARK  status: ('A' for Active; 'I' for Inactive)
REMARK    1  A    between atoms: S_1  and  N_6
REMARK    2  A    between atoms: S_1  and  C_15
REMARK    3  A    between atoms: N_5  and  C_13
REMARK    4  A    between atoms: C_20  and  N_21
REMARK                            x       y       z     vdW  Elec       q    Type
REMARK                         _______ _______ _______ _____ _____    ______ ____
ROOT
ATOM      1  S   UNL     1     -35.530  23.653   4.674  0.00  0.00    +0.075 S 
ATOM      2  O   UNL     1     -36.651  24.412   5.195  0.00  0.00    -0.150 OA
ATOM      3  O   UNL     1     -34.660  22.919   5.572  0.00  0.00    -0.150 OA
ENDROOT
BRANCH   1   6
ATOM      4  O   UNL     1     -32.894  27.390   6.995  0.00  0.00    -0.193 OA
ATOM      5  N   UNL     1     -32.274  27.826   4.812  0.00  0.00    -0.205 N 
ATOM      6  N   UNL     1     -34.582  24.655   3.671  0.00  0.00    -0.188 N 
ATOM      7  N   UNL     1     -33.744  26.023   5.390  0.00  0.00    -0.304 NA
ATOM      8  C   UNL     1     -33.800  25.741   4.132  0.00  0.00    +0.214 C 
ATOM      9  C   UNL     1     -32.364  27.485   3.479  0.00  0.00    +0.081 C 
ATOM     10  C   UNL     1     -33.105  26.460   3.056  0.00  0.00    +0.067 C 
ATOM     11  C   UNL     1     -32.967  27.096   5.801  0.00  0.00    +0.274 C 
ATOM     12  H   UNL     1     -34.578  24.465   2.705  0.00  0.00    +0.176 HD
BRANCH   5  13
ATOM     13  C   UNL     1     -31.446  28.959   5.208  0.00  0.00    +0.109 C 
ATOM     14  C   UNL     1     -32.171  30.260   4.923  0.00  0.00    +0.025 C 
ENDBRANCH   5  13
ENDBRANCH   1   6
BRANCH   1  15
ATOM     15  C   UNL     1     -36.157  22.493   3.497  0.00  0.00    +0.125 C 
ATOM     16  C   UNL     1     -35.431  21.348   3.223  0.00  0.00    +0.021 C 
ATOM     17  C   UNL     1     -37.363  22.754   2.867  0.00  0.00    +0.021 C 
ATOM     18  C   UNL     1     -35.924  20.434   2.293  0.00  0.00    +0.015 C 
ATOM     19  C   UNL     1     -37.857  21.839   1.938  0.00  0.00    +0.015 C 
ATOM     20  C   UNL     1     -37.137  20.679   1.650  0.00  0.00    +0.042 C 
BRANCH  20  21
ATOM     21  N   UNL     1     -37.638  19.754   0.711  0.00  0.00    -0.357 N 
ATOM     22  H   UNL     1     -37.991  20.070  -0.152  0.00  0.00    +0.142 HD
ATOM     23  H   UNL     1     -37.635  18.791   0.918  0.00  0.00    +0.142 HD
ENDBRANCH  20  21
ENDBRANCH   1  15
TORSDOF 4
ENDMDL
MODEL 4
REMARK VINA RESULT:      -6.1      1.332      1.635
REMARK  Name = 5322
REMARK  4 active torsions:
REMARK  status: ('A' for Active; 'I' for Inactive)
REMARK    1  A    between atoms: S_1  and  N_6
REMARK    2  A    between atoms: S_1  and  C_15
REMARK    3  A    between atoms: N_5  and  C_13
REMARK    4  A    between atoms: C_20  and  N_21
REMARK                            x       y       z     vdW  Elec       q    Type
REMARK                         _______ _______ _______ _____ _____    ______ ____
ROOT
ATOM      1  S   UNL     1     -35.702  20.403   1.133  0.00  0.00    +0.075 S 
ATOM      2  O   UNL     1     -35.234  21.551   0.380  0.00  0.00    -0.150 OA
ATOM      3  O   UNL     1     -37.038  19.881   0.921  0.00  0.00    -0.150 OA
ENDROOT
BRANCH   1   6
ATOM      4  O   UNL     1     -36.365  25.218   2.769  0.00  0.00    -0.193 OA
ATOM      5  N   UNL     1     -35.784  24.241   4.780  0.00  0.00    -0.205 N 
ATOM      6  N   UNL     1     -35.469  20.682   2.799  0.00  0.00    -0.188 N 
ATOM      7  N   UNL     1     -35.932  22.987   2.743  0.00  0.00    -0.304 NA
ATOM      8  C   UNL     1     -35.595  21.944   3.426  0.00  0.00    +0.214 C 
ATOM      9  C   UNL     1     -35.427  23.100   5.468  0.00  0.00    +0.081 C 
ATOM     10  C   UNL     1     -35.310  21.915   4.867  0.00  0.00    +0.067 C 
ATOM     11  C   UNL     1     -36.045  24.206   3.394  0.00  0.00    +0.274 C 
ATOM     12  H   UNL     1     -35.230  19.912   3.364  0.00  0.00    +0.176 HD
BRANCH   5  13
ATOM     13  C   UNL     1     -35.893  25.505   5.498  0.00  0.00    +0.109 C 
ATOM     14  C   UNL     1     -34.514  26.027   5.851  0.00  0.00    +0.025 C 
ENDBRANCH   5  13
ENDBRANCH   1   6
BRANCH   1  15
ATOM     15  C   UNL     1     -34.575  19.070   0.854  0.00  0.00    +0.125 C 
ATOM     16  C   UNL     1     -33.357  19.066   1.511  0.00  0.00    +0.021 C 
ATOM     17  C   UNL     1     -34.930  18.057  -0.020  0.00  0.00    +0.021 C 
ATOM     18  C   UNL     1     -32.467  18.016   1.289  0.00  0.00    +0.015 C 
ATOM     19  C   UNL     1     -34.040  17.005  -0.240  0.00  0.00    +0.015 C 
ATOM     20  C   UNL     1     -32.809  16.985   0.414  0.00  0.00    +0.042 C 
BRANCH  20  21
ATOM     21  N   UNL     1     -31.910  15.921   0.191  0.00  0.00    -0.357 N 
ATOM     22  H   UNL     1     -32.149  15.196  -0.429  0.00  0.00    +0.142 HD
ATOM     23  H   UNL     1     -31.041  15.905   0.655  0.00  0.00    +0.142 HD
ENDBRANCH  20  21
ENDBRANCH   1  15
TORSDOF 4
ENDMDL
MODEL 5
REMARK VINA RESULT:      -6.0      2.315      6.184
REMARK  Name = 5322
REMARK  4 active torsions:
REMARK  status: ('A' for Active; 'I' for Inactive)
REMARK    1  A    between atoms: S_1  and  N_6
REMARK    2  A    between atoms: S_1  and  C_15
REMARK    3  A    between atoms: N_5  and  C_13
REMARK    4  A    between atoms: C_20  and  N_21
REMARK                            x       y       z     vdW  Elec       q    Type
REMARK                         _______ _______ _______ _____ _____    ______ ____
ROOT
ATOM      1  S   UNL     1     -37.630  24.208   2.994  0.00  0.00    +0.075 S 
ATOM      2  O   UNL     1     -38.858  24.380   3.747  0.00  0.00    -0.150 OA
ATOM      3  O   UNL     1     -37.550  24.637   1.612  0.00  0.00    -0.150 OA
ENDROOT
BRANCH   1   6
ATOM      4  O   UNL     1     -33.637  22.853   0.075  0.00  0.00    -0.193 OA
ATOM      5  N   UNL     1     -34.059  20.808   1.062  0.00  0.00    -0.205 N 
ATOM      6  N   UNL     1     -37.118  22.584   3.106  0.00  0.00    -0.188 N 
ATOM      7  N   UNL     1     -35.356  22.761   1.559  0.00  0.00    -0.304 NA
ATOM      8  C   UNL     1     -36.045  22.030   2.368  0.00  0.00    +0.214 C 
ATOM      9  C   UNL     1     -34.823  20.066   1.939  0.00  0.00    +0.081 C 
ATOM     10  C   UNL     1     -35.833  20.600   2.628  0.00  0.00    +0.067 C 
ATOM     11  C   UNL     1     -34.312  22.181   0.854  0.00  0.00    +0.274 C 
ATOM     12  H   UNL     1     -37.603  21.992   3.726  0.00  0.00    +0.176 HD
BRANCH   5  13
ATOM     13  C   UNL     1     -32.970  20.163   0.339  0.00  0.00    +0.109 C 
ATOM     14  C   UNL     1     -32.574  18.874   1.031  0.00  0.00    +0.025 C 
ENDBRANCH   5  13
ENDBRANCH   1   6
BRANCH   1  15
ATOM     15  C   UNL     1     -36.333  25.031   3.868  0.00  0.00    +0.125 C 
ATOM     16  C   UNL     1     -35.726  26.135   3.295  0.00  0.00    +0.021 C 
ATOM     17  C   UNL     1     -35.946  24.554   5.109  0.00  0.00    +0.021 C 
ATOM     18  C   UNL     1     -34.702  26.783   3.984  0.00  0.00    +0.015 C 
ATOM     19  C   UNL     1     -34.922  25.204   5.799  0.00  0.00    +0.015 C 
ATOM     20  C   UNL     1     -34.300  26.318   5.236  0.00  0.00    +0.042 C 
BRANCH  20  21
ATOM     21  N   UNL     1     -33.265  26.975   5.934  0.00  0.00    -0.357 N 
ATOM     22  H   UNL     1     -32.931  27.844   5.616  0.00  0.00    +0.142 HD
ATOM     23  H   UNL     1     -32.877  26.563   6.741  0.00  0.00    +0.142 HD
ENDBRANCH  20  21
ENDBRANCH   1  15
TORSDOF 4
ENDMDL
MODEL 6
REMARK VINA RESULT:      -5.9      3.683      4.544
REMARK  Name = 5322
REMARK  4 active torsions:
REMARK  status: ('A' for Active; 'I' for Inactive)
REMARK    1  A    between atoms: S_1  and  N_6
REMARK    2  A    between atoms: S_1  and  C_15
REMARK    3  A    between atoms: N_5  and  C_13
REMARK    4  A    between atoms: C_20  and  N_21
REMARK                            x       y       z     vdW  Elec       q    Type
REMARK                         _______ _______ _______ _____ _____    ______ ____
ROOT
ATOM      1  S   UNL     1     -38.174  24.698   3.265  0.00  0.00    +0.075 S 
ATOM      2  O   UNL     1     -37.837  25.663   2.236  0.00  0.00    -0.150 OA
ATOM      3  O   UNL     1     -39.532  24.599   3.763  0.00  0.00    -0.150 OA
ENDROOT
BRANCH   1   6
ATOM      4  O   UNL     1     -34.058  27.661   2.502  0.00  0.00    -0.193 OA
ATOM      5  N   UNL     1     -33.639  27.033   4.685  0.00  0.00    -0.205 N 
ATOM      6  N   UNL     1     -37.107  24.876   4.583  0.00  0.00    -0.188 N 
ATOM      7  N   UNL     1     -35.580  26.292   3.490  0.00  0.00    -0.304 NA
ATOM      8  C   UNL     1     -35.917  25.642   4.554  0.00  0.00    +0.214 C 
ATOM      9  C   UNL     1     -34.041  26.323   5.798  0.00  0.00    +0.081 C 
ATOM     10  C   UNL     1     -35.164  25.604   5.814  0.00  0.00    +0.067 C 
ATOM     11  C   UNL     1     -34.407  27.031   3.501  0.00  0.00    +0.274 C 
ATOM     12  H   UNL     1     -37.334  24.414   5.423  0.00  0.00    +0.176 HD
BRANCH   5  13
ATOM     13  C   UNL     1     -32.399  27.799   4.734  0.00  0.00    +0.109 C 
ATOM     14  C   UNL     1     -32.102  28.223   6.159  0.00  0.00    +0.025 C 
ENDBRANCH   5  13
ENDBRANCH   1   6
BRANCH   1  15
ATOM     15  C   UNL     1     -37.720  23.094   2.678  0.00  0.00    +0.125 C 
ATOM     16  C   UNL     1     -38.599  22.395   1.870  0.00  0.00    +0.021 C 
ATOM     17  C   UNL     1     -36.493  22.564   3.041  0.00  0.00    +0.021 C 
ATOM     18  C   UNL     1     -38.241  21.128   1.409  0.00  0.00    +0.015 C 
ATOM     19  C   UNL     1     -36.134  21.298   2.578  0.00  0.00    +0.015 C 
ATOM     20  C   UNL     1     -37.009  20.580   1.763  0.00  0.00    +0.042 C 
BRANCH  20  21
ATOM     21  N   UNL     1     -36.645  19.300   1.294  0.00  0.00    -0.357 N 
ATOM     22  H   UNL     1     -36.241  18.647   1.910  0.00  0.00    +0.142 HD
ATOM     23  H   UNL     1     -36.797  19.059   0.351  0.00  0.00    +0.142 HD
ENDBRANCH  20  21
ENDBRANCH   1  15
TORSDOF 4
ENDMDL
MODEL 7
REMARK VINA RESULT:      -5.9      5.519      8.018
REMARK  Name = 5322
REMARK  4 active torsions:
REMARK  status: ('A' for Active; 'I' for Inactive)
REMARK    1  A    between atoms: S_1  and  N_6
REMARK    2  A    between atoms: S_1  and  C_15
REMARK    3  A    between atoms: N_5  and  C_13
REMARK    4  A    between atoms: C_20  and  N_21
REMARK                            x       y       z     vdW  Elec       q    Type
REMARK                         _______ _______ _______ _____ _____    ______ ____
ROOT
ATOM      1  S   UNL     1     -32.995  27.389   4.533  0.00  0.00    +0.075 S 
ATOM      2  O   UNL     1     -32.838  27.810   5.912  0.00  0.00    -0.150 OA
ATOM      3  O   UNL     1     -31.832  27.109   3.713  0.00  0.00    -0.150 OA
ENDROOT
BRANCH   1   6
ATOM      4  O   UNL     1     -31.012  32.014   3.543  0.00  0.00    -0.193 OA
ATOM      5  N   UNL     1     -33.114  32.332   2.638  0.00  0.00    -0.205 N 
ATOM      6  N   UNL     1     -34.004  28.493   3.712  0.00  0.00    -0.188 N 
ATOM      7  N   UNL     1     -32.454  30.260   3.645  0.00  0.00    -0.304 NA
ATOM      8  C   UNL     1     -33.633  29.814   3.367  0.00  0.00    +0.214 C 
ATOM      9  C   UNL     1     -34.361  31.812   2.361  0.00  0.00    +0.081 C 
ATOM     10  C   UNL     1     -34.700  30.565   2.692  0.00  0.00    +0.067 C 
ATOM     11  C   UNL     1     -32.129  31.560   3.290  0.00  0.00    +0.274 C 
ATOM     12  H   UNL     1     -34.907  28.190   3.462  0.00  0.00    +0.176 HD
BRANCH   5  13
ATOM     13  C   UNL     1     -32.808  33.704   2.250  0.00  0.00    +0.109 C 
ATOM     14  C   UNL     1     -34.081  34.437   1.875  0.00  0.00    +0.025 C 
ENDBRANCH   5  13
ENDBRANCH   1   6
BRANCH   1  15
ATOM     15  C   UNL     1     -34.001  25.936   4.517  0.00  0.00    +0.125 C 
ATOM     16  C   UNL     1     -34.751  25.621   5.637  0.00  0.00    +0.021 C 
ATOM     17  C   UNL     1     -34.019  25.139   3.385  0.00  0.00    +0.021 C 
ATOM     18  C   UNL     1     -35.544  24.474   5.625  0.00  0.00    +0.015 C 
ATOM     19  C   UNL     1     -34.814  23.992   3.373  0.00  0.00    +0.015 C 
ATOM     20  C   UNL     1     -35.575  23.660   4.493  0.00  0.00    +0.042 C 
BRANCH  20  21
ATOM     21  N   UNL     1     -36.379  22.500   4.479  0.00  0.00    -0.357 N 
ATOM     22  H   UNL     1     -36.572  22.045   3.629  0.00  0.00    +0.142 HD
ATOM     23  H   UNL     1     -36.747  22.146   5.322  0.00  0.00    +0.142 HD
ENDBRANCH  20  21
ENDBRANCH   1  15
TORSDOF 4
ENDMDL
MODEL 8
REMARK VINA RESULT:      -5.8      4.274      6.562
REMARK  Name = 5322
REMARK  4 active torsions:
REMARK  status: ('A' for Active; 'I' for Inactive)
REMARK    1  A    between atoms: S_1  and  N_6
REMARK    2  A    between atoms: S_1  and  C_15
REMARK    3  A    between atoms: N_5  and  C_13
REMARK    4  A    between atoms: C_20  and  N_21
REMARK                            x       y       z     vdW  Elec       q    Type
REMARK                         _______ _______ _______ _____ _____    ______ ____
ROOT
ATOM      1  S   UNL     1     -34.502  26.060   5.051  0.00  0.00    +0.075 S 
ATOM      2  O   UNL     1     -35.665  26.907   4.871  0.00  0.00    -0.150 OA
ATOM      3  O   UNL     1     -33.916  25.886   6.366  0.00  0.00    -0.150 OA
ENDROOT
BRANCH   1   6
ATOM      4  O   UNL     1     -32.341  30.645   5.833  0.00  0.00    -0.193 OA
ATOM      5  N   UNL     1     -31.174  30.025   3.938  0.00  0.00    -0.205 N 
ATOM      6  N   UNL     1     -33.283  26.527   3.953  0.00  0.00    -0.188 N 
ATOM      7  N   UNL     1     -32.832  28.614   4.939  0.00  0.00    -0.304 NA
ATOM      8  C   UNL     1     -32.587  27.758   4.004  0.00  0.00    +0.214 C 
ATOM      9  C   UNL     1     -30.946  29.080   2.960  0.00  0.00    +0.081 C 
ATOM     10  C   UNL     1     -31.609  27.924   2.921  0.00  0.00    +0.067 C 
ATOM     11  C   UNL     1     -32.129  29.809   4.955  0.00  0.00    +0.274 C 
ATOM     12  H   UNL     1     -33.048  25.897   3.234  0.00  0.00    +0.176 HD
BRANCH   5  13
ATOM     13  C   UNL     1     -30.415  31.270   3.923  0.00  0.00    +0.109 C 
ATOM     14  C   UNL     1     -29.076  31.075   4.608  0.00  0.00    +0.025 C 
ENDBRANCH   5  13
ENDBRANCH   1   6
BRANCH   1  15
ATOM     15  C   UNL     1     -34.902  24.448   4.445  0.00  0.00    +0.125 C 
ATOM     16  C   UNL     1     -34.930  24.228   3.079  0.00  0.00    +0.021 C 
ATOM     17  C   UNL     1     -35.182  23.437   5.348  0.00  0.00    +0.021 C 
ATOM     18  C   UNL     1     -35.247  22.957   2.601  0.00  0.00    +0.015 C 
ATOM     19  C   UNL     1     -35.497  22.165   4.870  0.00  0.00    +0.015 C 
ATOM     20  C   UNL     1     -35.531  21.926   3.496  0.00  0.00    +0.042 C 
BRANCH  20  21
ATOM     21  N   UNL     1     -35.849  20.639   3.013  0.00  0.00    -0.357 N 
ATOM     22  H   UNL     1     -36.464  20.537   2.251  0.00  0.00    +0.142 HD
ATOM     23  H   UNL     1     -35.455  19.842   3.437  0.00  0.00    +0.142 HD
ENDBRANCH  20  21
ENDBRANCH   1  15
TORSDOF 4
ENDMDL
MODEL 9
REMARK VINA RESULT:      -5.7      1.930      7.024
REMARK  Name = 5322
REMARK  4 active torsions:
REMARK  status: ('A' for Active; 'I' for Inactive)
REMARK    1  A    between atoms: S_1  and  N_6
REMARK    2  A    between atoms: S_1  and  C_15
REMARK    3  A    between atoms: N_5  and  C_13
REMARK    4  A    between atoms: C_20  and  N_21
REMARK                            x       y       z     vdW  Elec       q    Type
REMARK                         _______ _______ _______ _____ _____    ______ ____
ROOT
ATOM      1  S   UNL     1     -35.949  21.252   2.536  0.00  0.00    +0.075 S 
ATOM      2  O   UNL     1     -35.354  20.319   3.474  0.00  0.00    -0.150 OA
ATOM      3  O   UNL     1     -37.224  20.954   1.913  0.00  0.00    -0.150 OA
ENDROOT
BRANCH   1   6
ATOM      4  O   UNL     1     -32.409  17.695   1.476  0.00  0.00    -0.193 OA
ATOM      5  N   UNL     1     -31.716  19.331  -0.001  0.00  0.00    -0.205 N 
ATOM      6  N   UNL     1     -34.813  21.642   1.324  0.00  0.00    -0.188 N 
ATOM      7  N   UNL     1     -33.617  19.621   1.430  0.00  0.00    -0.304 NA
ATOM      8  C   UNL     1     -33.761  20.792   0.909  0.00  0.00    +0.214 C 
ATOM      9  C   UNL     1     -31.910  20.591  -0.530  0.00  0.00    +0.081 C 
ATOM     10  C   UNL     1     -32.906  21.383  -0.129  0.00  0.00    +0.067 C 
ATOM     11  C   UNL     1     -32.573  18.818   0.996  0.00  0.00    +0.274 C 
ATOM     12  H   UNL     1     -34.896  22.519   0.884  0.00  0.00    +0.176 HD
BRANCH   5  13
ATOM     13  C   UNL     1     -30.607  18.516  -0.482  0.00  0.00    +0.109 C 
ATOM     14  C   UNL     1     -30.914  17.982  -1.868  0.00  0.00    +0.025 C 
ENDBRANCH   5  13
ENDBRANCH   1   6
BRANCH   1  15
ATOM     15  C   UNL     1     -36.121  22.811   3.350  0.00  0.00    +0.125 C 
ATOM     16  C   UNL     1     -35.621  22.963   4.632  0.00  0.00    +0.021 C 
ATOM     17  C   UNL     1     -36.757  23.850   2.693  0.00  0.00    +0.021 C 
ATOM     18  C   UNL     1     -35.758  24.192   5.275  0.00  0.00    +0.015 C 
ATOM     19  C   UNL     1     -36.893  25.081   3.336  0.00  0.00    +0.015 C 
ATOM     20  C   UNL     1     -36.394  25.251   4.628  0.00  0.00    +0.042 C 
BRANCH  20  21
ATOM     21  N   UNL     1     -36.531  26.496   5.277  0.00  0.00    -0.357 N 
ATOM     22  H   UNL     1     -35.850  26.792   5.922  0.00  0.00    +0.142 HD
ATOM     23  H   UNL     1     -37.309  27.069   5.085  0.00  0.00    +0.142 HD
ENDBRANCH  20  21
ENDBRANCH   1  15
TORSDOF 4
ENDMDL
