MODEL 1
REMARK VINA RESULT:      -6.4      0.000      0.000
REMARK  Name = 53483342
REMARK  2 active torsions:
REMARK  status: ('A' for Active; 'I' for Inactive)
REMARK    1  A    between atoms: C_9  and  O_19
REMARK    2  A    between atoms: C_11  and  O_21
REMARK                            x       y       z     vdW  Elec       q    Type
REMARK                         _______ _______ _______ _____ _____    ______ ____
ROOT
ATOM      1  O   UNL     1     -39.595  26.592   1.892  0.00  0.00    -0.457 OA
ATOM      2  O   UNL     1     -40.295  22.581   1.867  0.00  0.00    -0.286 OA
ATOM      3  O   UNL     1     -35.143  27.319   4.153  0.00  0.00    -0.283 OA
ATOM      4  O   UNL     1     -33.296  25.732   5.241  0.00  0.00    -0.283 OA
ATOM      5  C   UNL     1     -36.697  24.101   3.612  0.00  0.00    +0.071 C 
ATOM      6  C   UNL     1     -38.835  24.361   2.477  0.00  0.00    +0.107 C 
ATOM      7  C   UNL     1     -36.550  25.497   3.572  0.00  0.00    +0.051 C 
ATOM      8  C   UNL     1     -38.670  25.743   2.446  0.00  0.00    +0.151 C 
ATOM      9  C   UNL     1     -37.858  23.541   3.055  0.00  0.00    +0.143 C 
ATOM     10  C   UNL     1     -37.526  26.318   2.993  0.00  0.00    +0.041 C 
ATOM     11  C   UNL     1     -35.653  23.260   4.227  0.00  0.00    +0.140 C 
ATOM     12  C   UNL     1     -40.053  23.779   1.891  0.00  0.00    +0.204 C 
ATOM     13  C   UNL     1     -35.341  26.115   4.149  0.00  0.00    +0.235 C 
ATOM     14  C   UNL     1     -40.743  26.047   1.341  0.00  0.00    +0.126 C 
ATOM     15  C   UNL     1     -41.016  24.734   1.310  0.00  0.00    +0.075 C 
ATOM     16  C   UNL     1     -34.537  23.772   4.764  0.00  0.00    +0.082 C 
ATOM     17  C   UNL     1     -34.301  25.225   4.764  0.00  0.00    +0.237 C 
ATOM     18  C   UNL     1     -41.674  27.069   0.770  0.00  0.00    +0.073 C 
ENDROOT
BRANCH   9  19
ATOM     19  O   UNL     1     -38.055  22.189   3.066  0.00  0.00    -0.505 OA
ATOM     20  H   UNL     1     -38.301  21.745   2.279  0.00  0.00    +0.292 HD
ENDBRANCH   9  19
BRANCH  11  21
ATOM     21  O   UNL     1     -35.858  21.892   4.237  0.00  0.00    -0.505 OA
ATOM     22  H   UNL     1     -36.027  21.438   3.435  0.00  0.00    +0.292 HD
ENDBRANCH  11  21
TORSDOF 2
ENDMDL
MODEL 2
REMARK VINA RESULT:      -6.3      1.419      6.268
REMARK  Name = 53483342
REMARK  2 active torsions:
REMARK  status: ('A' for Active; 'I' for Inactive)
REMARK    1  A    between atoms: C_9  and  O_19
REMARK    2  A    between atoms: C_11  and  O_21
REMARK                            x       y       z     vdW  Elec       q    Type
REMARK                         _______ _______ _______ _____ _____    ______ ____
ROOT
ATOM      1  O   UNL     1     -36.690  23.001   4.500  0.00  0.00    -0.457 OA
ATOM      2  O   UNL     1     -35.225  26.799   4.396  0.00  0.00    -0.286 OA
ATOM      3  O   UNL     1     -40.430  22.749   1.122  0.00  0.00    -0.283 OA
ATOM      4  O   UNL     1     -41.548  24.462  -0.590  0.00  0.00    -0.283 OA
ATOM      5  C   UNL     1     -38.455  25.694   1.817  0.00  0.00    +0.071 C 
ATOM      6  C   UNL     1     -36.798  25.229   3.539  0.00  0.00    +0.107 C 
ATOM      7  C   UNL     1     -38.889  24.364   1.930  0.00  0.00    +0.051 C 
ATOM      8  C   UNL     1     -37.242  23.913   3.635  0.00  0.00    +0.151 C 
ATOM      9  C   UNL     1     -37.396  26.118   2.638  0.00  0.00    +0.143 C 
ATOM     10  C   UNL     1     -38.290  23.473   2.830  0.00  0.00    +0.041 C 
ATOM     11  C   UNL     1     -39.103  26.611   0.859  0.00  0.00    +0.140 C 
ATOM     12  C   UNL     1     -35.689  25.668   4.402  0.00  0.00    +0.204 C 
ATOM     13  C   UNL     1     -39.998  23.890   1.081  0.00  0.00    +0.235 C 
ATOM     14  C   UNL     1     -35.647  23.412   5.314  0.00  0.00    +0.126 C 
ATOM     15  C   UNL     1     -35.132  24.650   5.314  0.00  0.00    +0.075 C 
ATOM     16  C   UNL     1     -40.112  26.228   0.066  0.00  0.00    +0.082 C 
ATOM     17  C   UNL     1     -40.630  24.851   0.117  0.00  0.00    +0.237 C 
ATOM     18  C   UNL     1     -35.131  22.332   6.211  0.00  0.00    +0.073 C 
ENDROOT
BRANCH   9  19
ATOM     19  O   UNL     1     -36.933  27.401   2.572  0.00  0.00    -0.505 OA
ATOM     20  H   UNL     1     -37.495  28.087   2.268  0.00  0.00    +0.292 HD
ENDBRANCH   9  19
BRANCH  11  21
ATOM     21  O   UNL     1     -38.630  27.909   0.798  0.00  0.00    -0.505 OA
ATOM     22  H   UNL     1     -38.172  28.206   0.037  0.00  0.00    +0.292 HD
ENDBRANCH  11  21
TORSDOF 2
ENDMDL
MODEL 3
REMARK VINA RESULT:      -6.3      1.693      3.343
REMARK  Name = 53483342
REMARK  2 active torsions:
REMARK  status: ('A' for Active; 'I' for Inactive)
REMARK    1  A    between atoms: C_9  and  O_19
REMARK    2  A    between atoms: C_11  and  O_21
REMARK                            x       y       z     vdW  Elec       q    Type
REMARK                         _______ _______ _______ _____ _____    ______ ____
ROOT
ATOM      1  O   UNL     1     -39.033  22.902   0.425  0.00  0.00    -0.457 OA
ATOM      2  O   UNL     1     -39.830  26.736   1.542  0.00  0.00    -0.286 OA
ATOM      3  O   UNL     1     -35.657  21.064   3.694  0.00  0.00    -0.283 OA
ATOM      4  O   UNL     1     -34.394  22.018   5.842  0.00  0.00    -0.283 OA
ATOM      5  C   UNL     1     -37.040  24.401   3.794  0.00  0.00    +0.071 C 
ATOM      6  C   UNL     1     -38.618  24.731   1.969  0.00  0.00    +0.107 C 
ATOM      7  C   UNL     1     -36.834  23.093   3.327  0.00  0.00    +0.051 C 
ATOM      8  C   UNL     1     -38.400  23.430   1.523  0.00  0.00    +0.151 C 
ATOM      9  C   UNL     1     -37.946  25.218   3.096  0.00  0.00    +0.143 C 
ATOM     10  C   UNL     1     -37.507  22.604   2.200  0.00  0.00    +0.041 C 
ATOM     11  C   UNL     1     -36.319  24.891   4.984  0.00  0.00    +0.140 C 
ATOM     12  C   UNL     1     -39.568  25.582   1.234  0.00  0.00    +0.204 C 
ATOM     13  C   UNL     1     -35.889  22.212   4.039  0.00  0.00    +0.235 C 
ATOM     14  C   UNL     1     -39.927  23.702  -0.268  0.00  0.00    +0.126 C 
ATOM     15  C   UNL     1     -40.220  24.968   0.062  0.00  0.00    +0.075 C 
ATOM     16  C   UNL     1     -35.452  24.129   5.665  0.00  0.00    +0.082 C 
ATOM     17  C   UNL     1     -35.176  22.745   5.247  0.00  0.00    +0.237 C 
ATOM     18  C   UNL     1     -40.551  23.018  -1.443  0.00  0.00    +0.073 C 
ENDROOT
BRANCH   9  19
ATOM     19  O   UNL     1     -38.186  26.500   3.503  0.00  0.00    -0.505 OA
ATOM     20  H   UNL     1     -37.810  26.816   4.302  0.00  0.00    +0.292 HD
ENDBRANCH   9  19
BRANCH  11  21
ATOM     21  O   UNL     1     -36.566  26.190   5.391  0.00  0.00    -0.505 OA
ATOM     22  H   UNL     1     -35.990  26.880   5.128  0.00  0.00    +0.292 HD
ENDBRANCH  11  21
TORSDOF 2
ENDMDL
MODEL 4
REMARK VINA RESULT:      -6.1      1.149      5.500
REMARK  Name = 53483342
REMARK  2 active torsions:
REMARK  status: ('A' for Active; 'I' for Inactive)
REMARK    1  A    between atoms: C_9  and  O_19
REMARK    2  A    between atoms: C_11  and  O_21
REMARK                            x       y       z     vdW  Elec       q    Type
REMARK                         _______ _______ _______ _____ _____    ______ ____
ROOT
ATOM      1  O   UNL     1     -35.974  25.844   4.550  0.00  0.00    -0.457 OA
ATOM      2  O   UNL     1     -35.446  21.811   4.328  0.00  0.00    -0.286 OA
ATOM      3  O   UNL     1     -40.040  26.973   1.784  0.00  0.00    -0.283 OA
ATOM      4  O   UNL     1     -41.783  25.573   0.329  0.00  0.00    -0.283 OA
ATOM      5  C   UNL     1     -38.707  23.647   2.253  0.00  0.00    +0.071 C 
ATOM      6  C   UNL     1     -36.735  23.707   3.682  0.00  0.00    +0.107 C 
ATOM      7  C   UNL     1     -38.801  25.041   2.392  0.00  0.00    +0.051 C 
ATOM      8  C   UNL     1     -36.847  25.089   3.807  0.00  0.00    +0.151 C 
ATOM      9  C   UNL     1     -37.656  22.986   2.912  0.00  0.00    +0.143 C 
ATOM     10  C   UNL     1     -37.881  25.763   3.163  0.00  0.00    +0.041 C 
ATOM     11  C   UNL     1     -39.690  22.911   1.436  0.00  0.00    +0.140 C 
ATOM     12  C   UNL     1     -35.633  23.019   4.373  0.00  0.00    +0.204 C 
ATOM     13  C   UNL     1     -39.893  25.763   1.713  0.00  0.00    +0.235 C 
ATOM     14  C   UNL     1     -34.935  25.198   5.201  0.00  0.00    +0.126 C 
ATOM     15  C   UNL     1     -34.722  23.875   5.157  0.00  0.00    +0.075 C 
ATOM     16  C   UNL     1     -40.699  23.521   0.801  0.00  0.00    +0.082 C 
ATOM     17  C   UNL     1     -40.875  24.980   0.892  0.00  0.00    +0.237 C 
ATOM     18  C   UNL     1     -34.050  26.124   5.975  0.00  0.00    +0.073 C 
ENDROOT
BRANCH   9  19
ATOM     19  O   UNL     1     -37.514  21.631   2.812  0.00  0.00    -0.505 OA
ATOM     20  H   UNL     1     -37.934  21.166   2.115  0.00  0.00    +0.292 HD
ENDBRANCH   9  19
BRANCH  11  21
ATOM     21  O   UNL     1     -39.540  21.539   1.339  0.00  0.00    -0.505 OA
ATOM     22  H   UNL     1     -38.683  21.163   1.303  0.00  0.00    +0.292 HD
ENDBRANCH  11  21
TORSDOF 2
ENDMDL
MODEL 5
REMARK VINA RESULT:      -6.1      2.860      5.826
REMARK  Name = 53483342
REMARK  2 active torsions:
REMARK  status: ('A' for Active; 'I' for Inactive)
REMARK    1  A    between atoms: C_9  and  O_19
REMARK    2  A    between atoms: C_11  and  O_21
REMARK                            x       y       z     vdW  Elec       q    Type
REMARK                         _______ _______ _______ _____ _____    ______ ____
ROOT
ATOM      1  O   UNL     1     -36.646  24.668   3.724  0.00  0.00    -0.457 OA
ATOM      2  O   UNL     1     -35.131  21.134   5.066  0.00  0.00    -0.286 OA
ATOM      3  O   UNL     1     -38.866  23.753  -0.714  0.00  0.00    -0.283 OA
ATOM      4  O   UNL     1     -39.228  21.591  -2.235  0.00  0.00    -0.283 OA
ATOM      5  C   UNL     1     -37.206  21.275   1.327  0.00  0.00    +0.071 C 
ATOM      6  C   UNL     1     -36.321  22.289   3.356  0.00  0.00    +0.107 C 
ATOM      7  C   UNL     1     -37.689  22.540   0.953  0.00  0.00    +0.051 C 
ATOM      8  C   UNL     1     -36.808  23.533   2.968  0.00  0.00    +0.151 C 
ATOM      9  C   UNL     1     -36.516  21.164   2.546  0.00  0.00    +0.143 C 
ATOM     10  C   UNL     1     -37.495  23.665   1.763  0.00  0.00    +0.041 C 
ATOM     11  C   UNL     1     -37.425  20.106   0.455  0.00  0.00    +0.140 C 
ATOM     12  C   UNL     1     -35.598  22.178   4.634  0.00  0.00    +0.204 C 
ATOM     13  C   UNL     1     -38.418  22.688  -0.321  0.00  0.00    +0.235 C 
ATOM     14  C   UNL     1     -35.965  24.566   4.926  0.00  0.00    +0.126 C 
ATOM     15  C   UNL     1     -35.450  23.425   5.408  0.00  0.00    +0.075 C 
ATOM     16  C   UNL     1     -38.081  20.188  -0.710  0.00  0.00    +0.082 C 
ATOM     17  C   UNL     1     -38.622  21.474  -1.180  0.00  0.00    +0.237 C 
ATOM     18  C   UNL     1     -35.852  25.865   5.659  0.00  0.00    +0.073 C 
ENDROOT
BRANCH   9  19
ATOM     19  O   UNL     1     -36.023  19.959   2.961  0.00  0.00    -0.505 OA
ATOM     20  H   UNL     1     -36.585  19.211   2.998  0.00  0.00    +0.292 HD
ENDBRANCH   9  19
BRANCH  11  21
ATOM     21  O   UNL     1     -36.923  18.889   0.880  0.00  0.00    -0.505 OA
ATOM     22  H   UNL     1     -37.486  18.143   0.935  0.00  0.00    +0.292 HD
ENDBRANCH  11  21
TORSDOF 2
ENDMDL
MODEL 6
REMARK VINA RESULT:      -6.1      1.721      3.692
REMARK  Name = 53483342
REMARK  2 active torsions:
REMARK  status: ('A' for Active; 'I' for Inactive)
REMARK    1  A    between atoms: C_9  and  O_19
REMARK    2  A    between atoms: C_11  and  O_21
REMARK                            x       y       z     vdW  Elec       q    Type
REMARK                         _______ _______ _______ _____ _____    ______ ____
ROOT
ATOM      1  O   UNL     1     -41.620  23.598   0.612  0.00  0.00    -0.457 OA
ATOM      2  O   UNL     1     -41.572  27.229   2.456  0.00  0.00    -0.286 OA
ATOM      3  O   UNL     1     -37.438  21.152   2.018  0.00  0.00    -0.283 OA
ATOM      4  O   UNL     1     -35.369  21.707   3.608  0.00  0.00    -0.283 OA
ATOM      5  C   UNL     1     -38.363  24.473   3.099  0.00  0.00    +0.071 C 
ATOM      6  C   UNL     1     -40.480  25.142   2.100  0.00  0.00    +0.107 C 
ATOM      7  C   UNL     1     -38.472  23.250   2.418  0.00  0.00    +0.051 C 
ATOM      8  C   UNL     1     -40.570  23.923   1.434  0.00  0.00    +0.151 C 
ATOM      9  C   UNL     1     -39.386  25.421   2.928  0.00  0.00    +0.143 C 
ATOM     10  C   UNL     1     -39.566  22.971   1.590  0.00  0.00    +0.041 C 
ATOM     11  C   UNL     1     -37.200  24.742   3.966  0.00  0.00    +0.140 C 
ATOM     12  C   UNL     1     -41.555  26.131   1.918  0.00  0.00    +0.204 C 
ATOM     13  C   UNL     1     -37.414  22.236   2.578  0.00  0.00    +0.235 C 
ATOM     14  C   UNL     1     -42.633  24.528   0.437  0.00  0.00    +0.126 C 
ATOM     15  C   UNL     1     -42.659  25.734   1.023  0.00  0.00    +0.075 C 
ATOM     16  C   UNL     1     -36.214  23.854   4.145  0.00  0.00    +0.082 C 
ATOM     17  C   UNL     1     -36.247  22.545   3.470  0.00  0.00    +0.237 C 
ATOM     18  C   UNL     1     -43.719  24.062  -0.480  0.00  0.00    +0.073 C 
ENDROOT
BRANCH   9  19
ATOM     19  O   UNL     1     -39.333  26.628   3.566  0.00  0.00    -0.505 OA
ATOM     20  H   UNL     1     -40.112  27.138   3.669  0.00  0.00    +0.292 HD
ENDBRANCH   9  19
BRANCH  11  21
ATOM     21  O   UNL     1     -37.151  25.967   4.608  0.00  0.00    -0.505 OA
ATOM     22  H   UNL     1     -37.304  26.755   4.126  0.00  0.00    +0.292 HD
ENDBRANCH  11  21
TORSDOF 2
ENDMDL
MODEL 7
REMARK VINA RESULT:      -6.1      1.896      6.124
REMARK  Name = 53483342
REMARK  2 active torsions:
REMARK  status: ('A' for Active; 'I' for Inactive)
REMARK    1  A    between atoms: C_9  and  O_19
REMARK    2  A    between atoms: C_11  and  O_21
REMARK                            x       y       z     vdW  Elec       q    Type
REMARK                         _______ _______ _______ _____ _____    ______ ____
ROOT
ATOM      1  O   UNL     1     -36.402  23.047   4.464  0.00  0.00    -0.457 OA
ATOM      2  O   UNL     1     -34.568  26.517   5.550  0.00  0.00    -0.286 OA
ATOM      3  O   UNL     1     -39.097  24.016   0.310  0.00  0.00    -0.283 OA
ATOM      4  O   UNL     1     -39.522  26.169  -1.206  0.00  0.00    -0.283 OA
ATOM      5  C   UNL     1     -37.081  26.432   2.088  0.00  0.00    +0.071 C 
ATOM      6  C   UNL     1     -36.009  25.401   4.016  0.00  0.00    +0.107 C 
ATOM      7  C   UNL     1     -37.667  25.189   1.799  0.00  0.00    +0.051 C 
ATOM      8  C   UNL     1     -36.599  24.178   3.712  0.00  0.00    +0.151 C 
ATOM      9  C   UNL     1     -36.244  26.524   3.213  0.00  0.00    +0.143 C 
ATOM     10  C   UNL     1     -37.432  24.065   2.601  0.00  0.00    +0.041 C 
ATOM     11  C   UNL     1     -37.345  27.599   1.226  0.00  0.00    +0.140 C 
ATOM     12  C   UNL     1     -35.133  25.492   5.196  0.00  0.00    +0.204 C 
ATOM     13  C   UNL     1     -38.550  25.061   0.625  0.00  0.00    +0.235 C 
ATOM     14  C   UNL     1     -35.579  23.130   5.576  0.00  0.00    +0.126 C 
ATOM     15  C   UNL     1     -34.955  24.250   5.971  0.00  0.00    +0.075 C 
ATOM     16  C   UNL     1     -38.138  27.534   0.148  0.00  0.00    +0.082 C 
ATOM     17  C   UNL     1     -38.793  26.271  -0.230  0.00  0.00    +0.237 C 
ATOM     18  C   UNL     1     -35.442  21.837   6.314  0.00  0.00    +0.073 C 
ENDROOT
BRANCH   9  19
ATOM     19  O   UNL     1     -35.647  27.707   3.543  0.00  0.00    -0.505 OA
ATOM     20  H   UNL     1     -36.164  28.417   3.871  0.00  0.00    +0.292 HD
ENDBRANCH   9  19
BRANCH  11  21
ATOM     21  O   UNL     1     -36.738  28.795   1.566  0.00  0.00    -0.505 OA
ATOM     22  H   UNL     1     -35.961  28.794   2.087  0.00  0.00    +0.292 HD
ENDBRANCH  11  21
TORSDOF 2
ENDMDL
MODEL 8
REMARK VINA RESULT:      -6.1      3.902      4.419
REMARK  Name = 53483342
REMARK  2 active torsions:
REMARK  status: ('A' for Active; 'I' for Inactive)
REMARK    1  A    between atoms: C_9  and  O_19
REMARK    2  A    between atoms: C_11  and  O_21
REMARK                            x       y       z     vdW  Elec       q    Type
REMARK                         _______ _______ _______ _____ _____    ______ ____
ROOT
ATOM      1  O   UNL     1     -34.705  22.939  -0.358  0.00  0.00    -0.457 OA
ATOM      2  O   UNL     1     -36.081  19.501   1.338  0.00  0.00    -0.286 OA
ATOM      3  O   UNL     1     -34.099  26.299   3.357  0.00  0.00    -0.283 OA
ATOM      4  O   UNL     1     -34.460  26.278   6.000  0.00  0.00    -0.283 OA
ATOM      5  C   UNL     1     -35.282  22.912   3.793  0.00  0.00    +0.071 C 
ATOM      6  C   UNL     1     -35.375  21.754   1.654  0.00  0.00    +0.107 C 
ATOM      7  C   UNL     1     -34.812  24.048   3.114  0.00  0.00    +0.051 C 
ATOM      8  C   UNL     1     -34.908  22.890   0.999  0.00  0.00    +0.151 C 
ATOM      9  C   UNL     1     -35.562  21.759   3.041  0.00  0.00    +0.143 C 
ATOM     10  C   UNL     1     -34.624  24.043   1.726  0.00  0.00    +0.041 C 
ATOM     11  C   UNL     1     -35.471  22.944   5.256  0.00  0.00    +0.140 C 
ATOM     12  C   UNL     1     -35.667  20.548   0.861  0.00  0.00    +0.204 C 
ATOM     13  C   UNL     1     -34.509  25.273   3.876  0.00  0.00    +0.235 C 
ATOM     14  C   UNL     1     -34.981  21.806  -1.106  0.00  0.00    +0.126 C 
ATOM     15  C   UNL     1     -35.434  20.653  -0.592  0.00  0.00    +0.075 C 
ATOM     16  C   UNL     1     -35.209  24.031   5.993  0.00  0.00    +0.082 C 
ATOM     17  C   UNL     1     -34.712  25.266   5.363  0.00  0.00    +0.237 C 
ATOM     18  C   UNL     1     -34.723  21.980  -2.569  0.00  0.00    +0.073 C 
ENDROOT
BRANCH   9  19
ATOM     19  O   UNL     1     -36.022  20.625   3.649  0.00  0.00    -0.505 OA
ATOM     20  H   UNL     1     -36.093  20.589   4.583  0.00  0.00    +0.292 HD
ENDBRANCH   9  19
BRANCH  11  21
ATOM     21  O   UNL     1     -35.937  21.793   5.865  0.00  0.00    -0.505 OA
ATOM     22  H   UNL     1     -36.481  21.852   6.625  0.00  0.00    +0.292 HD
ENDBRANCH  11  21
TORSDOF 2
ENDMDL
MODEL 9
REMARK VINA RESULT:      -6.0      2.843      3.542
REMARK  Name = 53483342
REMARK  2 active torsions:
REMARK  status: ('A' for Active; 'I' for Inactive)
REMARK    1  A    between atoms: C_9  and  O_19
REMARK    2  A    between atoms: C_11  and  O_21
REMARK                            x       y       z     vdW  Elec       q    Type
REMARK                         _______ _______ _______ _____ _____    ______ ____
ROOT
ATOM      1  O   UNL     1     -37.544  23.182  -0.448  0.00  0.00    -0.457 OA
ATOM      2  O   UNL     1     -36.802  19.326   0.628  0.00  0.00    -0.286 OA
ATOM      3  O   UNL     1     -36.443  26.084   3.530  0.00  0.00    -0.283 OA
ATOM      4  O   UNL     1     -35.534  25.639   5.999  0.00  0.00    -0.283 OA
ATOM      5  C   UNL     1     -36.129  22.485   3.434  0.00  0.00    +0.071 C 
ATOM      6  C   UNL     1     -36.803  21.622   1.259  0.00  0.00    +0.107 C 
ATOM      7  C   UNL     1     -36.416  23.778   2.967  0.00  0.00    +0.051 C 
ATOM      8  C   UNL     1     -37.080  22.912   0.815  0.00  0.00    +0.151 C 
ATOM      9  C   UNL     1     -36.330  21.404   2.559  0.00  0.00    +0.143 C 
ATOM     10  C   UNL     1     -36.888  23.997   1.667  0.00  0.00    +0.041 C 
ATOM     11  C   UNL     1     -35.632  22.282   4.808  0.00  0.00    +0.140 C 
ATOM     12  C   UNL     1     -37.015  20.494   0.338  0.00  0.00    +0.204 C 
ATOM     13  C   UNL     1     -36.215  24.932   3.863  0.00  0.00    +0.235 C 
ATOM     14  C   UNL     1     -37.746  22.122  -1.317  0.00  0.00    +0.126 C 
ATOM     15  C   UNL     1     -37.516  20.838  -1.007  0.00  0.00    +0.075 C 
ATOM     16  C   UNL     1     -35.432  23.297   5.659  0.00  0.00    +0.082 C 
ATOM     17  C   UNL     1     -35.706  24.685   5.253  0.00  0.00    +0.237 C 
ATOM     18  C   UNL     1     -38.253  22.540  -2.661  0.00  0.00    +0.073 C 
ENDROOT
BRANCH   9  19
ATOM     19  O   UNL     1     -36.068  20.125   2.959  0.00  0.00    -0.505 OA
ATOM     20  H   UNL     1     -36.684  19.442   2.777  0.00  0.00    +0.292 HD
ENDBRANCH   9  19
BRANCH  11  21
ATOM     21  O   UNL     1     -35.370  20.984   5.208  0.00  0.00    -0.505 OA
ATOM     22  H   UNL     1     -34.514  20.749   5.508  0.00  0.00    +0.292 HD
ENDBRANCH  11  21
TORSDOF 2
ENDMDL
