MODEL 1
REMARK VINA RESULT:      -6.1      0.000      0.000
REMARK  Name = 56924756
REMARK  4 active torsions:
REMARK  status: ('A' for Active; 'I' for Inactive)
REMARK    1  A    between atoms: C_5  and  C_14
REMARK    2  A    between atoms: C_7  and  C_21
REMARK    3  A    between atoms: N_10  and  C_18
REMARK    4  A    between atoms: C_24  and  O_27
REMARK                            x       y       z     vdW  Elec       q    Type
REMARK                         _______ _______ _______ _____ _____    ______ ____
ROOT
ATOM      1  S   UNL     1     -37.932  26.010  -0.189  0.00  0.00    -0.059 S 
ATOM      2  O   UNL     1     -37.038  22.379   3.122  0.00  0.00    -0.269 OA
ATOM      3  N   UNL     1     -37.423  24.156   1.593  0.00  0.00    -0.224 N 
ATOM      4  N   UNL     1     -36.566  26.374   1.975  0.00  0.00    -0.383 NA
ATOM      5  C   UNL     1     -36.614  27.580   1.303  0.00  0.00    +0.136 C 
ATOM      6  C   UNL     1     -37.228  25.475   1.282  0.00  0.00    +0.217 C 
ATOM      7  C   UNL     1     -36.885  23.559   2.806  0.00  0.00    +0.255 C 
ATOM      8  C   UNL     1     -37.309  27.579   0.113  0.00  0.00    +0.126 C 
ATOM      9  C   UNL     1     -38.210  23.227   0.699  0.00  0.00    +0.123 C 
ENDROOT
BRANCH   5  14
ATOM     10  N   UNL     1     -33.150  29.775   3.806  0.00  0.00    -0.323 N 
ATOM     11  N   UNL     1     -34.831  31.047   2.763  0.00  0.00    -0.234 NA
ATOM     12  N   UNL     1     -36.560  29.928   1.512  0.00  0.00    -0.246 NA
ATOM     13  C   UNL     1     -34.297  29.839   3.035  0.00  0.00    +0.108 C 
ATOM     14  C   UNL     1     -35.973  28.754   1.823  0.00  0.00    +0.089 C 
ATOM     15  C   UNL     1     -34.830  28.647   2.588  0.00  0.00    +0.108 C 
ATOM     16  C   UNL     1     -35.946  31.019   2.008  0.00  0.00    +0.251 C 
ATOM     17  H   UNL     1     -32.768  28.888   3.999  0.00  0.00    +0.148 HD
BRANCH  10  18
ATOM     18  C   UNL     1     -32.480  30.939   4.344  0.00  0.00    +0.070 C 
ATOM     19  C   UNL     1     -32.103  30.682   5.798  0.00  0.00    +0.021 C 
ATOM     20  C   UNL     1     -31.252  31.247   3.499  0.00  0.00    +0.021 C 
ENDBRANCH  10  18
ENDBRANCH   5  14
BRANCH   7  21
ATOM     21  C   UNL     1     -36.080  24.360   3.747  0.00  0.00    +0.054 C 
ATOM     22  C   UNL     1     -36.710  25.108   4.743  0.00  0.00    +0.008 C 
ATOM     23  C   UNL     1     -34.690  24.372   3.642  0.00  0.00    +0.008 C 
ATOM     24  C   UNL     1     -34.558  25.878   5.526  0.00  0.00    +0.139 C 
ATOM     25  C   UNL     1     -35.949  25.867   5.631  0.00  0.00    +0.037 C 
ATOM     26  C   UNL     1     -33.928  25.131   4.531  0.00  0.00    +0.037 C 
BRANCH  24  27
ATOM     27  O   UNL     1     -33.817  26.619   6.393  0.00  0.00    -0.471 OA
ATOM     28  C   UNL     1     -32.588  27.155   5.902  0.00  0.00    +0.252 C 
ENDBRANCH  24  27
ENDBRANCH   7  21
TORSDOF 4
ENDMDL
MODEL 2
REMARK VINA RESULT:      -6.0      1.948      6.390
REMARK  Name = 56924756
REMARK  4 active torsions:
REMARK  status: ('A' for Active; 'I' for Inactive)
REMARK    1  A    between atoms: C_5  and  C_14
REMARK    2  A    between atoms: C_7  and  C_21
REMARK    3  A    between atoms: N_10  and  C_18
REMARK    4  A    between atoms: C_24  and  O_27
REMARK                            x       y       z     vdW  Elec       q    Type
REMARK                         _______ _______ _______ _____ _____    ______ ____
ROOT
ATOM      1  S   UNL     1     -35.084  29.549   1.515  0.00  0.00    -0.059 S 
ATOM      2  O   UNL     1     -32.198  27.569   5.078  0.00  0.00    -0.269 OA
ATOM      3  N   UNL     1     -33.616  28.447   3.388  0.00  0.00    -0.224 N 
ATOM      4  N   UNL     1     -35.564  27.260   2.614  0.00  0.00    -0.383 NA
ATOM      5  C   UNL     1     -36.555  27.491   1.680  0.00  0.00    +0.136 C 
ATOM      6  C   UNL     1     -34.733  28.278   2.613  0.00  0.00    +0.217 C 
ATOM      7  C   UNL     1     -33.194  27.455   4.364  0.00  0.00    +0.255 C 
ATOM      8  C   UNL     1     -36.463  28.679   0.986  0.00  0.00    +0.126 C 
ATOM      9  C   UNL     1     -32.744  29.677   3.283  0.00  0.00    +0.123 C 
ENDROOT
BRANCH   5  14
ATOM     10  N   UNL     1     -38.184  23.024   1.000  0.00  0.00    -0.323 N 
ATOM     11  N   UNL     1     -39.691  24.830   1.034  0.00  0.00    -0.234 NA
ATOM     12  N   UNL     1     -38.854  27.064   1.377  0.00  0.00    -0.246 NA
ATOM     13  C   UNL     1     -38.422  24.381   1.125  0.00  0.00    +0.108 C 
ATOM     14  C   UNL     1     -37.612  26.546   1.457  0.00  0.00    +0.089 C 
ATOM     15  C   UNL     1     -37.332  25.200   1.338  0.00  0.00    +0.108 C 
ATOM     16  C   UNL     1     -39.833  26.163   1.167  0.00  0.00    +0.251 C 
ATOM     17  H   UNL     1     -37.254  22.706   1.068  0.00  0.00    +0.148 HD
BRANCH  10  18
ATOM     18  C   UNL     1     -39.226  22.045   0.774  0.00  0.00    +0.070 C 
ATOM     19  C   UNL     1     -38.696  20.934  -0.123  0.00  0.00    +0.021 C 
ATOM     20  C   UNL     1     -39.699  21.498   2.114  0.00  0.00    +0.021 C 
ENDBRANCH  10  18
ENDBRANCH   5  14
BRANCH   7  21
ATOM     21  C   UNL     1     -33.976  26.222   4.573  0.00  0.00    +0.054 C 
ATOM     22  C   UNL     1     -33.726  25.095   3.790  0.00  0.00    +0.008 C 
ATOM     23  C   UNL     1     -34.968  26.183   5.552  0.00  0.00    +0.008 C 
ATOM     24  C   UNL     1     -35.460  23.892   4.966  0.00  0.00    +0.139 C 
ATOM     25  C   UNL     1     -34.468  23.930   3.986  0.00  0.00    +0.037 C 
ATOM     26  C   UNL     1     -35.711  25.019   5.749  0.00  0.00    +0.037 C 
BRANCH  24  27
ATOM     27  O   UNL     1     -36.183  22.755   5.156  0.00  0.00    -0.471 OA
ATOM     28  C   UNL     1     -35.564  21.711   5.906  0.00  0.00    +0.252 C 
ENDBRANCH  24  27
ENDBRANCH   7  21
TORSDOF 4
ENDMDL
MODEL 3
REMARK VINA RESULT:      -5.9      4.229      6.375
REMARK  Name = 56924756
REMARK  4 active torsions:
REMARK  status: ('A' for Active; 'I' for Inactive)
REMARK    1  A    between atoms: C_5  and  C_14
REMARK    2  A    between atoms: C_7  and  C_21
REMARK    3  A    between atoms: N_10  and  C_18
REMARK    4  A    between atoms: C_24  and  O_27
REMARK                            x       y       z     vdW  Elec       q    Type
REMARK                         _______ _______ _______ _____ _____    ______ ____
ROOT
ATOM      1  S   UNL     1     -39.038  20.563   0.001  0.00  0.00    -0.059 S 
ATOM      2  O   UNL     1     -34.436  19.747   1.761  0.00  0.00    -0.269 OA
ATOM      3  N   UNL     1     -36.625  20.203   0.963  0.00  0.00    -0.224 N 
ATOM      4  N   UNL     1     -37.801  22.222   1.549  0.00  0.00    -0.383 NA
ATOM      5  C   UNL     1     -39.039  22.763   1.260  0.00  0.00    +0.136 C 
ATOM      6  C   UNL     1     -37.691  21.063   0.940  0.00  0.00    +0.217 C 
ATOM      7  C   UNL     1     -35.414  20.493   1.715  0.00  0.00    +0.255 C 
ATOM      8  C   UNL     1     -39.848  22.009   0.437  0.00  0.00    +0.126 C 
ATOM      9  C   UNL     1     -36.633  18.894   0.210  0.00  0.00    +0.123 C 
ENDROOT
BRANCH   5  14
ATOM     10  N   UNL     1     -42.345  26.133   2.150  0.00  0.00    -0.323 N 
ATOM     11  N   UNL     1     -40.117  26.466   2.828  0.00  0.00    -0.234 NA
ATOM     12  N   UNL     1     -38.473  24.764   2.373  0.00  0.00    -0.246 NA
ATOM     13  C   UNL     1     -41.039  25.683   2.231  0.00  0.00    +0.108 C 
ATOM     14  C   UNL     1     -39.445  24.033   1.790  0.00  0.00    +0.089 C 
ATOM     15  C   UNL     1     -40.758  24.445   1.688  0.00  0.00    +0.108 C 
ATOM     16  C   UNL     1     -38.872  25.953   2.863  0.00  0.00    +0.251 C 
ATOM     17  H   UNL     1     -43.010  25.554   1.712  0.00  0.00    +0.148 HD
BRANCH  10  18
ATOM     18  C   UNL     1     -42.787  27.408   2.673  0.00  0.00    +0.070 C 
ATOM     19  C   UNL     1     -43.533  28.172   1.587  0.00  0.00    +0.021 C 
ATOM     20  C   UNL     1     -43.669  27.172   3.891  0.00  0.00    +0.021 C 
ENDBRANCH  10  18
ENDBRANCH   5  14
BRANCH   7  21
ATOM     21  C   UNL     1     -35.279  21.751   2.472  0.00  0.00    +0.054 C 
ATOM     22  C   UNL     1     -34.840  22.909   1.829  0.00  0.00    +0.008 C 
ATOM     23  C   UNL     1     -35.589  21.784   3.831  0.00  0.00    +0.008 C 
ATOM     24  C   UNL     1     -35.021  24.131   3.905  0.00  0.00    +0.139 C 
ATOM     25  C   UNL     1     -34.710  24.098   2.546  0.00  0.00    +0.037 C 
ATOM     26  C   UNL     1     -35.460  22.974   4.548  0.00  0.00    +0.037 C 
BRANCH  24  27
ATOM     27  O   UNL     1     -34.894  25.292   4.603  0.00  0.00    -0.471 OA
ATOM     28  C   UNL     1     -35.994  25.675   5.429  0.00  0.00    +0.252 C 
ENDBRANCH  24  27
ENDBRANCH   7  21
TORSDOF 4
ENDMDL
MODEL 4
REMARK VINA RESULT:      -5.9      4.058      7.578
REMARK  Name = 56924756
REMARK  4 active torsions:
REMARK  status: ('A' for Active; 'I' for Inactive)
REMARK    1  A    between atoms: C_5  and  C_14
REMARK    2  A    between atoms: C_7  and  C_21
REMARK    3  A    between atoms: N_10  and  C_18
REMARK    4  A    between atoms: C_24  and  O_27
REMARK                            x       y       z     vdW  Elec       q    Type
REMARK                         _______ _______ _______ _____ _____    ______ ____
ROOT
ATOM      1  S   UNL     1     -33.774  25.887  -0.732  0.00  0.00    -0.059 S 
ATOM      2  O   UNL     1     -34.860  28.510   3.377  0.00  0.00    -0.269 OA
ATOM      3  N   UNL     1     -34.357  27.197   1.463  0.00  0.00    -0.224 N 
ATOM      4  N   UNL     1     -34.451  24.790   1.508  0.00  0.00    -0.383 NA
ATOM      5  C   UNL     1     -34.225  23.777   0.598  0.00  0.00    +0.136 C 
ATOM      6  C   UNL     1     -34.243  25.946   0.918  0.00  0.00    +0.217 C 
ATOM      7  C   UNL     1     -34.746  27.404   2.850  0.00  0.00    +0.255 C 
ATOM      8  C   UNL     1     -33.850  24.176  -0.667  0.00  0.00    +0.126 C 
ATOM      9  C   UNL     1     -34.086  28.450   0.664  0.00  0.00    +0.123 C 
ENDROOT
BRANCH   5  14
ATOM     10  N   UNL     1     -33.249  19.107   0.032  0.00  0.00    -0.323 N 
ATOM     11  N   UNL     1     -34.729  19.800   1.724  0.00  0.00    -0.234 NA
ATOM     12  N   UNL     1     -35.206  22.147   1.992  0.00  0.00    -0.246 NA
ATOM     13  C   UNL     1     -33.912  20.121   0.699  0.00  0.00    +0.108 C 
ATOM     14  C   UNL     1     -34.375  22.396   0.959  0.00  0.00    +0.089 C 
ATOM     15  C   UNL     1     -33.695  21.414   0.268  0.00  0.00    +0.108 C 
ATOM     16  C   UNL     1     -35.335  20.846   2.317  0.00  0.00    +0.251 C 
ATOM     17  H   UNL     1     -32.655  19.351  -0.715  0.00  0.00    +0.148 HD
BRANCH  10  18
ATOM     18  C   UNL     1     -33.379  17.706   0.371  0.00  0.00    +0.070 C 
ATOM     19  C   UNL     1     -34.350  17.037  -0.593  0.00  0.00    +0.021 C 
ATOM     20  C   UNL     1     -32.007  17.048   0.320  0.00  0.00    +0.021 C 
ENDBRANCH  10  18
ENDBRANCH   5  14
BRANCH   7  21
ATOM     21  C   UNL     1     -35.058  26.258   3.724  0.00  0.00    +0.054 C 
ATOM     22  C   UNL     1     -34.044  25.651   4.467  0.00  0.00    +0.008 C 
ATOM     23  C   UNL     1     -36.365  25.779   3.808  0.00  0.00    +0.008 C 
ATOM     24  C   UNL     1     -35.646  24.088   5.376  0.00  0.00    +0.139 C 
ATOM     25  C   UNL     1     -34.339  24.566   5.292  0.00  0.00    +0.037 C 
ATOM     26  C   UNL     1     -36.660  24.694   4.633  0.00  0.00    +0.037 C 
BRANCH  24  27
ATOM     27  O   UNL     1     -35.932  23.029   6.182  0.00  0.00    -0.471 OA
ATOM     28  C   UNL     1     -35.182  21.833   5.971  0.00  0.00    +0.252 C 
ENDBRANCH  24  27
ENDBRANCH   7  21
TORSDOF 4
ENDMDL
MODEL 5
REMARK VINA RESULT:      -5.8      2.027      6.039
REMARK  Name = 56924756
REMARK  4 active torsions:
REMARK  status: ('A' for Active; 'I' for Inactive)
REMARK    1  A    between atoms: C_5  and  C_14
REMARK    2  A    between atoms: C_7  and  C_21
REMARK    3  A    between atoms: N_10  and  C_18
REMARK    4  A    between atoms: C_24  and  O_27
REMARK                            x       y       z     vdW  Elec       q    Type
REMARK                         _______ _______ _______ _____ _____    ______ ____
ROOT
ATOM      1  S   UNL     1     -33.712  30.100   2.512  0.00  0.00    -0.059 S 
ATOM      2  O   UNL     1     -32.325  26.931   6.115  0.00  0.00    -0.269 OA
ATOM      3  N   UNL     1     -33.041  28.387   4.380  0.00  0.00    -0.224 N 
ATOM      4  N   UNL     1     -34.871  27.826   2.919  0.00  0.00    -0.383 NA
ATOM      5  C   UNL     1     -35.506  28.434   1.854  0.00  0.00    +0.136 C 
ATOM      6  C   UNL     1     -33.909  28.613   3.345  0.00  0.00    +0.217 C 
ATOM      7  C   UNL     1     -33.086  27.171   5.178  0.00  0.00    +0.255 C 
ATOM      8  C   UNL     1     -35.018  29.671   1.488  0.00  0.00    +0.126 C 
ATOM      9  C   UNL     1     -31.974  29.385   4.767  0.00  0.00    +0.123 C 
ENDROOT
BRANCH   5  14
ATOM     10  N   UNL     1     -39.035  25.186   1.591  0.00  0.00    -0.323 N 
ATOM     11  N   UNL     1     -38.684  26.684  -0.188  0.00  0.00    -0.234 NA
ATOM     12  N   UNL     1     -36.908  28.306  -0.038  0.00  0.00    -0.246 NA
ATOM     13  C   UNL     1     -38.327  26.235   1.033  0.00  0.00    +0.108 C 
ATOM     14  C   UNL     1     -36.606  27.807   1.178  0.00  0.00    +0.089 C 
ATOM     15  C   UNL     1     -37.287  26.763   1.770  0.00  0.00    +0.108 C 
ATOM     16  C   UNL     1     -37.943  27.706  -0.657  0.00  0.00    +0.251 C 
ATOM     17  H   UNL     1     -38.767  24.865   2.483  0.00  0.00    +0.148 HD
BRANCH  10  18
ATOM     18  C   UNL     1     -40.148  24.532   0.937  0.00  0.00    +0.070 C 
ATOM     19  C   UNL     1     -40.026  23.024   1.109  0.00  0.00    +0.021 C 
ATOM     20  C   UNL     1     -41.452  25.054   1.525  0.00  0.00    +0.021 C 
ENDBRANCH  10  18
ENDBRANCH   5  14
BRANCH   7  21
ATOM     21  C   UNL     1     -34.099  26.132   4.911  0.00  0.00    +0.054 C 
ATOM     22  C   UNL     1     -35.302  26.132   5.617  0.00  0.00    +0.008 C 
ATOM     23  C   UNL     1     -33.853  25.149   3.954  0.00  0.00    +0.008 C 
ATOM     24  C   UNL     1     -36.012  24.165   4.408  0.00  0.00    +0.139 C 
ATOM     25  C   UNL     1     -36.258  25.148   5.366  0.00  0.00    +0.037 C 
ATOM     26  C   UNL     1     -34.809  24.164   3.702  0.00  0.00    +0.037 C 
BRANCH  24  27
ATOM     27  O   UNL     1     -36.945  23.205   4.164  0.00  0.00    -0.471 OA
ATOM     28  C   UNL     1     -36.830  22.486   2.937  0.00  0.00    +0.252 C 
ENDBRANCH  24  27
ENDBRANCH   7  21
TORSDOF 4
ENDMDL
MODEL 6
REMARK VINA RESULT:      -5.7      5.321      7.841
REMARK  Name = 56924756
REMARK  4 active torsions:
REMARK  status: ('A' for Active; 'I' for Inactive)
REMARK    1  A    between atoms: C_5  and  C_14
REMARK    2  A    between atoms: C_7  and  C_21
REMARK    3  A    between atoms: N_10  and  C_18
REMARK    4  A    between atoms: C_24  and  O_27
REMARK                            x       y       z     vdW  Elec       q    Type
REMARK                         _______ _______ _______ _____ _____    ______ ____
ROOT
ATOM      1  S   UNL     1     -36.970  17.418  -0.900  0.00  0.00    -0.059 S 
ATOM      2  O   UNL     1     -32.820  19.003   1.382  0.00  0.00    -0.269 OA
ATOM      3  N   UNL     1     -34.829  18.316   0.319  0.00  0.00    -0.224 N 
ATOM      4  N   UNL     1     -36.807  19.690   0.321  0.00  0.00    -0.383 NA
ATOM      5  C   UNL     1     -38.086  19.580  -0.188  0.00  0.00    +0.136 C 
ATOM      6  C   UNL     1     -36.130  18.608   0.008  0.00  0.00    +0.217 C 
ATOM      7  C   UNL     1     -33.992  19.228   1.083  0.00  0.00    +0.255 C 
ATOM      8  C   UNL     1     -38.361  18.420  -0.880  0.00  0.00    +0.126 C 
ATOM      9  C   UNL     1     -34.171  17.025  -0.109  0.00  0.00    +0.123 C 
ENDROOT
BRANCH   5  14
ATOM     10  N   UNL     1     -39.470  23.849   1.526  0.00  0.00    -0.323 N 
ATOM     11  N   UNL     1     -40.981  22.533   0.293  0.00  0.00    -0.234 NA
ATOM     12  N   UNL     1     -40.268  20.395  -0.559  0.00  0.00    -0.246 NA
ATOM     13  C   UNL     1     -39.750  22.691   0.822  0.00  0.00    +0.108 C 
ATOM     14  C   UNL     1     -39.060  20.618  -0.003  0.00  0.00    +0.089 C 
ATOM     15  C   UNL     1     -38.740  21.758   0.706  0.00  0.00    +0.108 C 
ATOM     16  C   UNL     1     -41.169  21.379  -0.375  0.00  0.00    +0.251 C 
ATOM     17  H   UNL     1     -38.569  23.955   1.909  0.00  0.00    +0.148 HD
BRANCH  10  18
ATOM     18  C   UNL     1     -40.429  24.914   1.731  0.00  0.00    +0.070 C 
ATOM     19  C   UNL     1     -40.321  25.428   3.161  0.00  0.00    +0.021 C 
ATOM     20  C   UNL     1     -40.168  26.024   0.722  0.00  0.00    +0.021 C 
ENDBRANCH  10  18
ENDBRANCH   5  14
BRANCH   7  21
ATOM     21  C   UNL     1     -34.516  20.530   1.537  0.00  0.00    +0.054 C 
ATOM     22  C   UNL     1     -34.336  21.668   0.750  0.00  0.00    +0.008 C 
ATOM     23  C   UNL     1     -35.188  20.625   2.755  0.00  0.00    +0.008 C 
ATOM     24  C   UNL     1     -35.503  22.993   2.399  0.00  0.00    +0.139 C 
ATOM     25  C   UNL     1     -34.830  22.899   1.181  0.00  0.00    +0.037 C 
ATOM     26  C   UNL     1     -35.682  21.856   3.187  0.00  0.00    +0.037 C 
BRANCH  24  27
ATOM     27  O   UNL     1     -35.984  24.195   2.818  0.00  0.00    -0.471 OA
ATOM     28  C   UNL     1     -36.693  24.213   4.057  0.00  0.00    +0.252 C 
ENDBRANCH  24  27
ENDBRANCH   7  21
TORSDOF 4
ENDMDL
MODEL 7
REMARK VINA RESULT:      -5.7      5.831      9.086
REMARK  Name = 56924756
REMARK  4 active torsions:
REMARK  status: ('A' for Active; 'I' for Inactive)
REMARK    1  A    between atoms: C_5  and  C_14
REMARK    2  A    between atoms: C_7  and  C_21
REMARK    3  A    between atoms: N_10  and  C_18
REMARK    4  A    between atoms: C_24  and  O_27
REMARK                            x       y       z     vdW  Elec       q    Type
REMARK                         _______ _______ _______ _____ _____    ______ ____
ROOT
ATOM      1  S   UNL     1     -40.947  21.241  -0.790  0.00  0.00    -0.059 S 
ATOM      2  O   UNL     1     -40.431  16.906  -3.216  0.00  0.00    -0.269 OA
ATOM      3  N   UNL     1     -40.609  18.953  -2.025  0.00  0.00    -0.224 N 
ATOM      4  N   UNL     1     -38.942  19.649  -0.431  0.00  0.00    -0.383 NA
ATOM      5  C   UNL     1     -38.762  20.741   0.395  0.00  0.00    +0.136 C 
ATOM      6  C   UNL     1     -40.062  19.804  -1.102  0.00  0.00    +0.217 C 
ATOM      7  C   UNL     1     -39.973  17.697  -2.392  0.00  0.00    +0.255 C 
ATOM      8  C   UNL     1     -39.743  21.707   0.339  0.00  0.00    +0.126 C 
ATOM      9  C   UNL     1     -41.912  19.257  -2.726  0.00  0.00    +0.123 C 
ENDROOT
BRANCH   5  14
ATOM     10  N   UNL     1     -36.435  22.630   4.149  0.00  0.00    -0.323 N 
ATOM     11  N   UNL     1     -35.391  20.989   2.826  0.00  0.00    -0.234 NA
ATOM     12  N   UNL     1     -36.574  20.053   0.947  0.00  0.00    -0.246 NA
ATOM     13  C   UNL     1     -36.470  21.759   3.075  0.00  0.00    +0.108 C 
ATOM     14  C   UNL     1     -37.617  20.852   1.253  0.00  0.00    +0.089 C 
ATOM     15  C   UNL     1     -37.622  21.734   2.315  0.00  0.00    +0.108 C 
ATOM     16  C   UNL     1     -35.509  20.171   1.762  0.00  0.00    +0.251 C 
ATOM     17  H   UNL     1     -37.228  23.189   4.322  0.00  0.00    +0.148 HD
BRANCH  10  18
ATOM     18  C   UNL     1     -35.297  22.767   5.033  0.00  0.00    +0.070 C 
ATOM     19  C   UNL     1     -35.081  24.238   5.361  0.00  0.00    +0.021 C 
ATOM     20  C   UNL     1     -35.539  21.947   6.293  0.00  0.00    +0.021 C 
ENDBRANCH  10  18
ENDBRANCH   5  14
BRANCH   7  21
ATOM     21  C   UNL     1     -38.685  17.300  -1.792  0.00  0.00    +0.054 C 
ATOM     22  C   UNL     1     -37.487  17.732  -2.361  0.00  0.00    +0.008 C 
ATOM     23  C   UNL     1     -38.665  16.491  -0.656  0.00  0.00    +0.008 C 
ATOM     24  C   UNL     1     -36.250  16.546  -0.658  0.00  0.00    +0.139 C 
ATOM     25  C   UNL     1     -36.270  17.355  -1.794  0.00  0.00    +0.037 C 
ATOM     26  C   UNL     1     -37.448  16.114  -0.089  0.00  0.00    +0.037 C 
BRANCH  24  27
ATOM     27  O   UNL     1     -35.062  16.179  -0.106  0.00  0.00    -0.471 OA
ATOM     28  C   UNL     1     -34.065  17.193   0.022  0.00  0.00    +0.252 C 
ENDBRANCH  24  27
ENDBRANCH   7  21
TORSDOF 4
ENDMDL
MODEL 8
REMARK VINA RESULT:      -5.7      2.748      4.323
REMARK  Name = 56924756
REMARK  4 active torsions:
REMARK  status: ('A' for Active; 'I' for Inactive)
REMARK    1  A    between atoms: C_5  and  C_14
REMARK    2  A    between atoms: C_7  and  C_21
REMARK    3  A    between atoms: N_10  and  C_18
REMARK    4  A    between atoms: C_24  and  O_27
REMARK                            x       y       z     vdW  Elec       q    Type
REMARK                         _______ _______ _______ _____ _____    ______ ____
ROOT
ATOM      1  S   UNL     1     -34.894  29.786   1.539  0.00  0.00    -0.059 S 
ATOM      2  O   UNL     1     -37.894  25.828   1.013  0.00  0.00    -0.269 OA
ATOM      3  N   UNL     1     -36.433  27.674   1.323  0.00  0.00    -0.224 N 
ATOM      4  N   UNL     1     -34.745  27.689   3.042  0.00  0.00    -0.383 NA
ATOM      5  C   UNL     1     -33.775  28.576   3.465  0.00  0.00    +0.136 C 
ATOM      6  C   UNL     1     -35.397  28.221   2.032  0.00  0.00    +0.217 C 
ATOM      7  C   UNL     1     -36.966  26.354   1.626  0.00  0.00    +0.255 C 
ATOM      8  C   UNL     1     -33.704  29.766   2.772  0.00  0.00    +0.126 C 
ATOM      9  C   UNL     1     -37.095  28.402   0.177  0.00  0.00    +0.123 C 
ENDROOT
BRANCH   5  14
ATOM     10  N   UNL     1     -29.610  28.994   5.822  0.00  0.00    -0.323 N 
ATOM     11  N   UNL     1     -31.312  27.614   6.680  0.00  0.00    -0.234 NA
ATOM     12  N   UNL     1     -33.394  27.417   5.483  0.00  0.00    -0.246 NA
ATOM     13  C   UNL     1     -30.881  28.457   5.719  0.00  0.00    +0.108 C 
ATOM     14  C   UNL     1     -32.900  28.266   4.559  0.00  0.00    +0.089 C 
ATOM     15  C   UNL     1     -31.639  28.823   4.625  0.00  0.00    +0.108 C 
ATOM     16  C   UNL     1     -32.559  27.138   6.502  0.00  0.00    +0.251 C 
ATOM     17  H   UNL     1     -29.305  29.608   5.115  0.00  0.00    +0.148 HD
BRANCH  10  18
ATOM     18  C   UNL     1     -28.703  28.702   6.912  0.00  0.00    +0.070 C 
ATOM     19  C   UNL     1     -27.846  27.496   6.551  0.00  0.00    +0.021 C 
ATOM     20  C   UNL     1     -27.846  29.928   7.193  0.00  0.00    +0.021 C 
ENDBRANCH  10  18
ENDBRANCH   5  14
BRANCH   7  21
ATOM     21  C   UNL     1     -36.387  25.538   2.709  0.00  0.00    +0.054 C 
ATOM     22  C   UNL     1     -35.378  24.617   2.425  0.00  0.00    +0.008 C 
ATOM     23  C   UNL     1     -36.849  25.684   4.016  0.00  0.00    +0.008 C 
ATOM     24  C   UNL     1     -35.295  23.990   4.757  0.00  0.00    +0.139 C 
ATOM     25  C   UNL     1     -34.832  23.842   3.449  0.00  0.00    +0.037 C 
ATOM     26  C   UNL     1     -36.303  24.911   5.041  0.00  0.00    +0.037 C 
BRANCH  24  27
ATOM     27  O   UNL     1     -34.761  23.234   5.755  0.00  0.00    -0.471 OA
ATOM     28  C   UNL     1     -35.472  22.053   6.124  0.00  0.00    +0.252 C 
ENDBRANCH  24  27
ENDBRANCH   7  21
TORSDOF 4
ENDMDL
MODEL 9
REMARK VINA RESULT:      -5.6      4.514      7.112
REMARK  Name = 56924756
REMARK  4 active torsions:
REMARK  status: ('A' for Active; 'I' for Inactive)
REMARK    1  A    between atoms: C_5  and  C_14
REMARK    2  A    between atoms: C_7  and  C_21
REMARK    3  A    between atoms: N_10  and  C_18
REMARK    4  A    between atoms: C_24  and  O_27
REMARK                            x       y       z     vdW  Elec       q    Type
REMARK                         _______ _______ _______ _____ _____    ______ ____
ROOT
ATOM      1  S   UNL     1     -40.762  20.647  -1.211  0.00  0.00    -0.059 S 
ATOM      2  O   UNL     1     -42.404  25.344  -0.780  0.00  0.00    -0.269 OA
ATOM      3  N   UNL     1     -41.566  23.127  -0.934  0.00  0.00    -0.224 N 
ATOM      4  N   UNL     1     -39.642  22.402   0.321  0.00  0.00    -0.383 NA
ATOM      5  C   UNL     1     -38.932  21.224   0.447  0.00  0.00    +0.136 C 
ATOM      6  C   UNL     1     -40.628  22.216  -0.528  0.00  0.00    +0.217 C 
ATOM      7  C   UNL     1     -41.580  24.496  -0.441  0.00  0.00    +0.255 C 
ATOM      8  C   UNL     1     -39.389  20.162  -0.305  0.00  0.00    +0.126 C 
ATOM      9  C   UNL     1     -42.653  22.775  -1.922  0.00  0.00    +0.123 C 
ENDROOT
BRANCH   5  14
ATOM     10  N   UNL     1     -36.301  22.681   4.193  0.00  0.00    -0.323 N 
ATOM     11  N   UNL     1     -35.591  20.847   2.902  0.00  0.00    -0.234 NA
ATOM     12  N   UNL     1     -36.924  20.131   1.027  0.00  0.00    -0.246 NA
ATOM     13  C   UNL     1     -36.500  21.817   3.131  0.00  0.00    +0.108 C 
ATOM     14  C   UNL     1     -37.792  21.123   1.313  0.00  0.00    +0.089 C 
ATOM     15  C   UNL     1     -37.631  22.005   2.362  0.00  0.00    +0.108 C 
ATOM     16  C   UNL     1     -35.861  20.052   1.849  0.00  0.00    +0.251 C 
ATOM     17  H   UNL     1     -36.971  23.386   4.352  0.00  0.00    +0.148 HD
BRANCH  10  18
ATOM     18  C   UNL     1     -35.163  22.607   5.084  0.00  0.00    +0.070 C 
ATOM     19  C   UNL     1     -34.577  23.999   5.278  0.00  0.00    +0.021 C 
ATOM     20  C   UNL     1     -35.603  22.001   6.410  0.00  0.00    +0.021 C 
ENDBRANCH  10  18
ENDBRANCH   5  14
BRANCH   7  21
ATOM     21  C   UNL     1     -40.582  24.952   0.545  0.00  0.00    +0.054 C 
ATOM     22  C   UNL     1     -40.868  24.884   1.909  0.00  0.00    +0.008 C 
ATOM     23  C   UNL     1     -39.354  25.452   0.115  0.00  0.00    +0.008 C 
ATOM     24  C   UNL     1     -38.697  25.817   2.411  0.00  0.00    +0.139 C 
ATOM     25  C   UNL     1     -39.925  25.317   2.842  0.00  0.00    +0.037 C 
ATOM     26  C   UNL     1     -38.411  25.885   1.047  0.00  0.00    +0.037 C 
BRANCH  24  27
ATOM     27  O   UNL     1     -37.778  26.240   3.321  0.00  0.00    -0.471 OA
ATOM     28  C   UNL     1     -36.420  26.310   2.887  0.00  0.00    +0.252 C 
ENDBRANCH  24  27
ENDBRANCH   7  21
TORSDOF 4
ENDMDL
