MODEL 1
REMARK VINA RESULT:      -6.7      0.000      0.000
REMARK  Name = 197004
REMARK  9 active torsions:
REMARK  status: ('A' for Active; 'I' for Inactive)
REMARK    1  A    between atoms: N_3  and  C_8
REMARK    2  A    between atoms: N_4  and  C_20
REMARK    3  A    between atoms: C_5  and  C_32
REMARK    4  A    between atoms: C_11  and  S_14
REMARK    5  A    between atoms: S_14  and  N_17
REMARK    6  A    between atoms: C_23  and  S_26
REMARK    7  A    between atoms: S_26  and  N_29
REMARK    8  A    between atoms: C_32  and  C_33
REMARK    9  A    between atoms: C_33  and  C_34
REMARK                            x       y       z     vdW  Elec       q    Type
REMARK                         _______ _______ _______ _____ _____    ______ ____
ROOT
ATOM      1  O   UNL     1     -33.819  24.772   2.700  0.00  0.00    -0.272 OA
ATOM      2  O   UNL     1     -38.336  24.937   4.052  0.00  0.00    -0.272 OA
ATOM      3  N   UNL     1     -35.735  23.438   2.231  0.00  0.00    -0.179 N 
ATOM      4  N   UNL     1     -37.110  23.554   2.550  0.00  0.00    -0.179 N 
ATOM      5  C   UNL     1     -35.984  25.278   3.638  0.00  0.00    +0.157 C 
ATOM      6  C   UNL     1     -35.011  24.509   2.777  0.00  0.00    +0.254 C 
ATOM      7  C   UNL     1     -37.312  24.570   3.497  0.00  0.00    +0.254 C 
ENDROOT
BRANCH   3   8
ATOM      8  C   UNL     1     -35.106  22.225   1.817  0.00  0.00    +0.073 C 
ATOM      9  C   UNL     1     -35.259  21.061   2.574  0.00  0.00    +0.018 C 
ATOM     10  C   UNL     1     -34.335  22.197   0.653  0.00  0.00    +0.018 C 
ATOM     11  C   UNL     1     -33.875  19.852   1.007  0.00  0.00    +0.122 C 
ATOM     12  C   UNL     1     -34.644  19.877   2.170  0.00  0.00    +0.021 C 
ATOM     13  C   UNL     1     -33.720  21.012   0.249  0.00  0.00    +0.021 C 
BRANCH  11  14
ATOM     14  S   UNL     1     -33.105  18.367   0.502  0.00  0.00    +0.057 S 
ATOM     15  O   UNL     1     -32.493  18.589  -0.800  0.00  0.00    -0.153 OA
ATOM     16  O   UNL     1     -32.298  17.866   1.605  0.00  0.00    -0.153 OA
BRANCH  14  17
ATOM     17  N   UNL     1     -34.463  17.348   0.306  0.00  0.00    -0.203 NA
ATOM     18  H   UNL     1     -34.930  17.568  -0.573  0.00  0.00    +0.144 HD
ATOM     19  H   UNL     1     -35.111  17.491   1.081  0.00  0.00    +0.144 HD
ENDBRANCH  14  17
ENDBRANCH  11  14
ENDBRANCH   3   8
BRANCH   4  20
ATOM     20  C   UNL     1     -38.169  23.034   1.747  0.00  0.00    +0.073 C 
ATOM     21  C   UNL     1     -38.821  21.857   2.123  0.00  0.00    +0.018 C 
ATOM     22  C   UNL     1     -38.557  23.700   0.582  0.00  0.00    +0.018 C 
ATOM     23  C   UNL     1     -40.241  22.016   0.175  0.00  0.00    +0.122 C 
ATOM     24  C   UNL     1     -39.856  21.349   1.337  0.00  0.00    +0.021 C 
ATOM     25  C   UNL     1     -39.591  23.191  -0.204  0.00  0.00    +0.021 C 
BRANCH  23  26
ATOM     26  S   UNL     1     -41.536  21.380  -0.808  0.00  0.00    +0.057 S 
ATOM     27  O   UNL     1     -41.065  21.280  -2.182  0.00  0.00    -0.153 OA
ATOM     28  O   UNL     1     -42.086  20.205  -0.145  0.00  0.00    -0.153 OA
BRANCH  26  29
ATOM     29  N   UNL     1     -42.675  22.650  -0.708  0.00  0.00    -0.203 NA
ATOM     30  H   UNL     1     -43.529  22.380  -1.196  0.00  0.00    +0.144 HD
ATOM     31  H   UNL     1     -42.287  23.489  -1.137  0.00  0.00    +0.144 HD
ENDBRANCH  26  29
ENDBRANCH  23  26
ENDBRANCH   4  20
BRANCH   5  32
ATOM     32  C   UNL     1     -35.536  25.316   5.087  0.00  0.00    +0.018 C 
BRANCH  32  33
ATOM     33  C   UNL     1     -34.718  24.078   5.453  0.00  0.00    +0.001 C 
BRANCH  33  34
ATOM     34  C   UNL     1     -35.603  22.987   6.058  0.00  0.00    +0.000 C 
ATOM     35  C   UNL     1     -34.892  21.643   6.080  0.00  0.00    +0.000 C 
ENDBRANCH  33  34
ENDBRANCH  32  33
ENDBRANCH   5  32
TORSDOF 9
ENDMDL
MODEL 2
REMARK VINA RESULT:      -6.6      3.583      5.899
REMARK  Name = 197004
REMARK  9 active torsions:
REMARK  status: ('A' for Active; 'I' for Inactive)
REMARK    1  A    between atoms: N_3  and  C_8
REMARK    2  A    between atoms: N_4  and  C_20
REMARK    3  A    between atoms: C_5  and  C_32
REMARK    4  A    between atoms: C_11  and  S_14
REMARK    5  A    between atoms: S_14  and  N_17
REMARK    6  A    between atoms: C_23  and  S_26
REMARK    7  A    between atoms: S_26  and  N_29
REMARK    8  A    between atoms: C_32  and  C_33
REMARK    9  A    between atoms: C_33  and  C_34
REMARK                            x       y       z     vdW  Elec       q    Type
REMARK                         _______ _______ _______ _____ _____    ______ ____
ROOT
ATOM      1  O   UNL     1     -35.088  20.974   4.042  0.00  0.00    -0.272 OA
ATOM      2  O   UNL     1     -38.043  21.102   0.367  0.00  0.00    -0.272 OA
ATOM      3  N   UNL     1     -36.252  22.720   2.918  0.00  0.00    -0.179 N 
ATOM      4  N   UNL     1     -37.222  22.743   1.886  0.00  0.00    -0.179 N 
ATOM      5  C   UNL     1     -36.544  20.532   2.170  0.00  0.00    +0.157 C 
ATOM      6  C   UNL     1     -35.873  21.400   3.208  0.00  0.00    +0.254 C 
ATOM      7  C   UNL     1     -37.354  21.471   1.306  0.00  0.00    +0.254 C 
ENDROOT
BRANCH   3   8
ATOM      8  C   UNL     1     -35.455  23.843   3.296  0.00  0.00    +0.073 C 
ATOM      9  C   UNL     1     -35.611  24.422   4.557  0.00  0.00    +0.018 C 
ATOM     10  C   UNL     1     -34.516  24.366   2.405  0.00  0.00    +0.018 C 
ATOM     11  C   UNL     1     -33.895  26.039   4.034  0.00  0.00    +0.122 C 
ATOM     12  C   UNL     1     -34.833  25.518   4.925  0.00  0.00    +0.021 C 
ATOM     13  C   UNL     1     -33.737  25.464   2.774  0.00  0.00    +0.021 C 
BRANCH  11  14
ATOM     14  S   UNL     1     -32.921  27.414   4.496  0.00  0.00    +0.057 S 
ATOM     15  O   UNL     1     -31.588  27.239   3.937  0.00  0.00    -0.153 OA
ATOM     16  O   UNL     1     -33.672  28.629   4.214  0.00  0.00    -0.153 OA
BRANCH  14  17
ATOM     17  N   UNL     1     -32.840  27.199   6.190  0.00  0.00    -0.203 NA
ATOM     18  H   UNL     1     -33.461  26.439   6.466  0.00  0.00    +0.144 HD
ATOM     19  H   UNL     1     -33.128  28.060   6.656  0.00  0.00    +0.144 HD
ENDBRANCH  14  17
ENDBRANCH  11  14
ENDBRANCH   3   8
BRANCH   4  20
ATOM     20  C   UNL     1     -38.211  23.760   1.734  0.00  0.00    +0.073 C 
ATOM     21  C   UNL     1     -38.244  24.540   0.575  0.00  0.00    +0.018 C 
ATOM     22  C   UNL     1     -39.150  23.981   2.745  0.00  0.00    +0.018 C 
ATOM     23  C   UNL     1     -40.147  25.752   1.438  0.00  0.00    +0.122 C 
ATOM     24  C   UNL     1     -39.211  25.534   0.427  0.00  0.00    +0.021 C 
ATOM     25  C   UNL     1     -40.117  24.976   2.597  0.00  0.00    +0.021 C 
BRANCH  23  26
ATOM     26  S   UNL     1     -41.356  26.997   1.253  0.00  0.00    +0.057 S 
ATOM     27  O   UNL     1     -40.732  28.158   0.634  0.00  0.00    -0.153 OA
ATOM     28  O   UNL     1     -42.541  26.405   0.646  0.00  0.00    -0.153 OA
BRANCH  26  29
ATOM     29  N   UNL     1     -41.701  27.363   2.886  0.00  0.00    -0.203 NA
ATOM     30  H   UNL     1     -40.867  27.212   3.452  0.00  0.00    +0.144 HD
ATOM     31  H   UNL     1     -42.453  26.758   3.217  0.00  0.00    +0.144 HD
ENDBRANCH  26  29
ENDBRANCH  23  26
ENDBRANCH   4  20
BRANCH   5  32
ATOM     32  C   UNL     1     -35.529  19.767   1.343  0.00  0.00    +0.018 C 
BRANCH  32  33
ATOM     33  C   UNL     1     -34.496  20.703   0.716  0.00  0.00    +0.001 C 
BRANCH  33  34
ATOM     34  C   UNL     1     -33.109  20.060   0.686  0.00  0.00    +0.000 C 
ATOM     35  C   UNL     1     -33.115  18.693   1.352  0.00  0.00    +0.000 C 
ENDBRANCH  33  34
ENDBRANCH  32  33
ENDBRANCH   5  32
TORSDOF 9
ENDMDL
MODEL 3
REMARK VINA RESULT:      -6.1      2.809      6.386
REMARK  Name = 197004
REMARK  9 active torsions:
REMARK  status: ('A' for Active; 'I' for Inactive)
REMARK    1  A    between atoms: N_3  and  C_8
REMARK    2  A    between atoms: N_4  and  C_20
REMARK    3  A    between atoms: C_5  and  C_32
REMARK    4  A    between atoms: C_11  and  S_14
REMARK    5  A    between atoms: S_14  and  N_17
REMARK    6  A    between atoms: C_23  and  S_26
REMARK    7  A    between atoms: S_26  and  N_29
REMARK    8  A    between atoms: C_32  and  C_33
REMARK    9  A    between atoms: C_33  and  C_34
REMARK                            x       y       z     vdW  Elec       q    Type
REMARK                         _______ _______ _______ _____ _____    ______ ____
ROOT
ATOM      1  O   UNL     1     -40.063  21.994   2.385  0.00  0.00    -0.272 OA
ATOM      2  O   UNL     1     -39.299  26.625   1.909  0.00  0.00    -0.272 OA
ATOM      3  N   UNL     1     -38.105  23.346   2.300  0.00  0.00    -0.179 N 
ATOM      4  N   UNL     1     -37.882  24.744   2.266  0.00  0.00    -0.179 N 
ATOM      5  C   UNL     1     -40.181  24.392   2.145  0.00  0.00    +0.157 C 
ATOM      6  C   UNL     1     -39.480  23.067   2.329  0.00  0.00    +0.254 C 
ATOM      7  C   UNL     1     -39.087  25.430   2.048  0.00  0.00    +0.254 C 
ENDROOT
BRANCH   3   8
ATOM      8  C   UNL     1     -37.137  22.369   1.915  0.00  0.00    +0.073 C 
ATOM      9  C   UNL     1     -36.346  21.746   2.883  0.00  0.00    +0.018 C 
ATOM     10  C   UNL     1     -36.978  22.033   0.569  0.00  0.00    +0.018 C 
ATOM     11  C   UNL     1     -35.243  20.459   1.162  0.00  0.00    +0.122 C 
ATOM     12  C   UNL     1     -35.401  20.793   2.506  0.00  0.00    +0.021 C 
ATOM     13  C   UNL     1     -36.032  21.079   0.193  0.00  0.00    +0.021 C 
BRANCH  11  14
ATOM     14  S   UNL     1     -34.059  19.265   0.691  0.00  0.00    +0.057 S 
ATOM     15  O   UNL     1     -33.348  19.760  -0.479  0.00  0.00    -0.153 OA
ATOM     16  O   UNL     1     -33.312  18.862   1.875  0.00  0.00    -0.153 OA
BRANCH  14  17
ATOM     17  N   UNL     1     -35.071  17.973   0.214  0.00  0.00    -0.203 NA
ATOM     18  H   UNL     1     -35.641  18.263  -0.580  0.00  0.00    +0.144 HD
ATOM     19  H   UNL     1     -35.679  17.713   0.991  0.00  0.00    +0.144 HD
ENDBRANCH  14  17
ENDBRANCH  11  14
ENDBRANCH   3   8
BRANCH   4  20
ATOM     20  C   UNL     1     -36.720  25.386   2.790  0.00  0.00    +0.073 C 
ATOM     21  C   UNL     1     -35.759  25.913   1.923  0.00  0.00    +0.018 C 
ATOM     22  C   UNL     1     -36.538  25.490   4.171  0.00  0.00    +0.018 C 
ATOM     23  C   UNL     1     -34.445  26.642   3.814  0.00  0.00    +0.122 C 
ATOM     24  C   UNL     1     -34.623  26.540   2.435  0.00  0.00    +0.021 C 
ATOM     25  C   UNL     1     -35.402  26.116   4.683  0.00  0.00    +0.021 C 
BRANCH  23  26
ATOM     26  S   UNL     1     -33.023  27.426   4.454  0.00  0.00    +0.057 S 
ATOM     27  O   UNL     1     -31.857  26.914   3.749  0.00  0.00    -0.153 OA
ATOM     28  O   UNL     1     -33.267  28.862   4.500  0.00  0.00    -0.153 OA
BRANCH  26  29
ATOM     29  N   UNL     1     -33.009  26.822   6.053  0.00  0.00    -0.203 NA
ATOM     30  H   UNL     1     -33.345  25.860   6.056  0.00  0.00    +0.144 HD
ATOM     31  H   UNL     1     -33.614  27.397   6.638  0.00  0.00    +0.144 HD
ENDBRANCH  26  29
ENDBRANCH  23  26
ENDBRANCH   4  20
BRANCH   5  32
ATOM     32  C   UNL     1     -41.049  24.394   0.899  0.00  0.00    +0.018 C 
BRANCH  32  33
ATOM     33  C   UNL     1     -40.223  24.130  -0.359  0.00  0.00    +0.001 C 
BRANCH  33  34
ATOM     34  C   UNL     1     -40.909  23.111  -1.270  0.00  0.00    +0.000 C 
ATOM     35  C   UNL     1     -40.283  21.732  -1.134  0.00  0.00    +0.000 C 
ENDBRANCH  33  34
ENDBRANCH  32  33
ENDBRANCH   5  32
TORSDOF 9
ENDMDL
MODEL 4
REMARK VINA RESULT:      -6.1      3.167      6.522
REMARK  Name = 197004
REMARK  9 active torsions:
REMARK  status: ('A' for Active; 'I' for Inactive)
REMARK    1  A    between atoms: N_3  and  C_8
REMARK    2  A    between atoms: N_4  and  C_20
REMARK    3  A    between atoms: C_5  and  C_32
REMARK    4  A    between atoms: C_11  and  S_14
REMARK    5  A    between atoms: S_14  and  N_17
REMARK    6  A    between atoms: C_23  and  S_26
REMARK    7  A    between atoms: S_26  and  N_29
REMARK    8  A    between atoms: C_32  and  C_33
REMARK    9  A    between atoms: C_33  and  C_34
REMARK                            x       y       z     vdW  Elec       q    Type
REMARK                         _______ _______ _______ _____ _____    ______ ____
ROOT
ATOM      1  O   UNL     1     -40.166  22.080   2.217  0.00  0.00    -0.272 OA
ATOM      2  O   UNL     1     -39.319  26.709   1.896  0.00  0.00    -0.272 OA
ATOM      3  N   UNL     1     -38.186  23.401   2.218  0.00  0.00    -0.179 N 
ATOM      4  N   UNL     1     -37.941  24.796   2.232  0.00  0.00    -0.179 N 
ATOM      5  C   UNL     1     -40.241  24.485   2.045  0.00  0.00    +0.157 C 
ATOM      6  C   UNL     1     -39.566  23.144   2.206  0.00  0.00    +0.254 C 
ATOM      7  C   UNL     1     -39.129  25.507   2.004  0.00  0.00    +0.254 C 
ENDROOT
BRANCH   3   8
ATOM      8  C   UNL     1     -37.224  22.420   1.828  0.00  0.00    +0.073 C 
ATOM      9  C   UNL     1     -37.091  22.063   0.484  0.00  0.00    +0.018 C 
ATOM     10  C   UNL     1     -36.413  21.814   2.789  0.00  0.00    +0.018 C 
ATOM     11  C   UNL     1     -35.343  20.502   1.066  0.00  0.00    +0.122 C 
ATOM     12  C   UNL     1     -36.152  21.105   0.104  0.00  0.00    +0.021 C 
ATOM     13  C   UNL     1     -35.473  20.856   2.409  0.00  0.00    +0.021 C 
BRANCH  11  14
ATOM     14  S   UNL     1     -34.167  19.301   0.589  0.00  0.00    +0.057 S 
ATOM     15  O   UNL     1     -33.465  19.790  -0.589  0.00  0.00    -0.153 OA
ATOM     16  O   UNL     1     -33.412  18.899   1.767  0.00  0.00    -0.153 OA
BRANCH  14  17
ATOM     17  N   UNL     1     -35.189  18.012   0.125  0.00  0.00    -0.203 NA
ATOM     18  H   UNL     1     -36.160  18.321   0.154  0.00  0.00    +0.144 HD
ATOM     19  H   UNL     1     -35.062  17.229   0.767  0.00  0.00    +0.144 HD
ENDBRANCH  14  17
ENDBRANCH  11  14
ENDBRANCH   3   8
BRANCH   4  20
ATOM     20  C   UNL     1     -36.781  25.403   2.802  0.00  0.00    +0.073 C 
ATOM     21  C   UNL     1     -36.707  25.615   4.181  0.00  0.00    +0.018 C 
ATOM     22  C   UNL     1     -35.718  25.789   1.983  0.00  0.00    +0.018 C 
ATOM     23  C   UNL     1     -34.513  26.592   3.917  0.00  0.00    +0.122 C 
ATOM     24  C   UNL     1     -35.574  26.208   4.737  0.00  0.00    +0.021 C 
ATOM     25  C   UNL     1     -34.585  26.383   2.539  0.00  0.00    +0.021 C 
BRANCH  23  26
ATOM     26  S   UNL     1     -33.096  27.335   4.614  0.00  0.00    +0.057 S 
ATOM     27  O   UNL     1     -33.207  28.779   4.456  0.00  0.00    -0.153 OA
ATOM     28  O   UNL     1     -32.879  26.768   5.938  0.00  0.00    -0.153 OA
BRANCH  26  29
ATOM     29  N   UNL     1     -31.876  26.759   3.565  0.00  0.00    -0.203 NA
ATOM     30  H   UNL     1     -30.961  26.930   3.980  0.00  0.00    +0.144 HD
ATOM     31  H   UNL     1     -31.941  27.244   2.670  0.00  0.00    +0.144 HD
ENDBRANCH  26  29
ENDBRANCH  23  26
ENDBRANCH   4  20
BRANCH   5  32
ATOM     32  C   UNL     1     -41.078  24.538   0.780  0.00  0.00    +0.018 C 
BRANCH  32  33
ATOM     33  C   UNL     1     -42.561  24.725   1.097  0.00  0.00    +0.001 C 
BRANCH  33  34
ATOM     34  C   UNL     1     -42.812  26.049   1.819  0.00  0.00    +0.000 C 
ATOM     35  C   UNL     1     -44.209  26.101   2.417  0.00  0.00    +0.000 C 
ENDBRANCH  33  34
ENDBRANCH  32  33
ENDBRANCH   5  32
TORSDOF 9
ENDMDL
MODEL 5
REMARK VINA RESULT:      -5.9      5.737      8.052
REMARK  Name = 197004
REMARK  9 active torsions:
REMARK  status: ('A' for Active; 'I' for Inactive)
REMARK    1  A    between atoms: N_3  and  C_8
REMARK    2  A    between atoms: N_4  and  C_20
REMARK    3  A    between atoms: C_5  and  C_32
REMARK    4  A    between atoms: C_11  and  S_14
REMARK    5  A    between atoms: S_14  and  N_17
REMARK    6  A    between atoms: C_23  and  S_26
REMARK    7  A    between atoms: S_26  and  N_29
REMARK    8  A    between atoms: C_32  and  C_33
REMARK    9  A    between atoms: C_33  and  C_34
REMARK                            x       y       z     vdW  Elec       q    Type
REMARK                         _______ _______ _______ _____ _____    ______ ____
ROOT
ATOM      1  O   UNL     1     -30.120  26.436   2.888  0.00  0.00    -0.272 OA
ATOM      2  O   UNL     1     -31.071  31.035   3.339  0.00  0.00    -0.272 OA
ATOM      3  N   UNL     1     -32.130  27.711   2.940  0.00  0.00    -0.179 N 
ATOM      4  N   UNL     1     -32.408  29.100   2.965  0.00  0.00    -0.179 N 
ATOM      5  C   UNL     1     -30.099  28.837   3.124  0.00  0.00    +0.157 C 
ATOM      6  C   UNL     1     -30.745  27.486   2.933  0.00  0.00    +0.254 C 
ATOM      7  C   UNL     1     -31.233  29.832   3.201  0.00  0.00    +0.254 C 
ENDROOT
BRANCH   3   8
ATOM      8  C   UNL     1     -33.065  26.698   3.312  0.00  0.00    +0.073 C 
ATOM      9  C   UNL     1     -33.578  25.827   2.348  0.00  0.00    +0.018 C 
ATOM     10  C   UNL     1     -33.471  26.574   4.643  0.00  0.00    +0.018 C 
ATOM     11  C   UNL     1     -34.895  24.717   4.042  0.00  0.00    +0.122 C 
ATOM     12  C   UNL     1     -34.492  24.839   2.712  0.00  0.00    +0.021 C 
ATOM     13  C   UNL     1     -34.385  25.585   5.007  0.00  0.00    +0.021 C 
BRANCH  11  14
ATOM     14  S   UNL     1     -36.039  23.479   4.497  0.00  0.00    +0.057 S 
ATOM     15  O   UNL     1     -35.829  23.153   5.900  0.00  0.00    -0.153 OA
ATOM     16  O   UNL     1     -37.362  23.880   4.037  0.00  0.00    -0.153 OA
BRANCH  14  17
ATOM     17  N   UNL     1     -35.499  22.170   3.541  0.00  0.00    -0.203 NA
ATOM     18  H   UNL     1     -34.492  22.244   3.401  0.00  0.00    +0.144 HD
ATOM     19  H   UNL     1     -35.970  22.192   2.636  0.00  0.00    +0.144 HD
ENDBRANCH  14  17
ENDBRANCH  11  14
ENDBRANCH   3   8
BRANCH   4  20
ATOM     20  C   UNL     1     -33.586  29.695   2.422  0.00  0.00    +0.073 C 
ATOM     21  C   UNL     1     -34.436  30.442   3.242  0.00  0.00    +0.018 C 
ATOM     22  C   UNL     1     -33.894  29.532   1.070  0.00  0.00    +0.018 C 
ATOM     23  C   UNL     1     -35.892  30.859   1.360  0.00  0.00    +0.122 C 
ATOM     24  C   UNL     1     -35.587  31.023   2.711  0.00  0.00    +0.021 C 
ATOM     25  C   UNL     1     -35.046  30.112   0.539  0.00  0.00    +0.021 C 
BRANCH  23  26
ATOM     26  S   UNL     1     -37.333  31.586   0.696  0.00  0.00    +0.057 S 
ATOM     27  O   UNL     1     -38.076  32.211   1.781  0.00  0.00    -0.153 OA
ATOM     28  O   UNL     1     -36.958  32.374  -0.471  0.00  0.00    -0.153 OA
BRANCH  26  29
ATOM     29  N   UNL     1     -38.185  30.201   0.170  0.00  0.00    -0.203 NA
ATOM     30  H   UNL     1     -37.957  30.011  -0.805  0.00  0.00    +0.144 HD
ATOM     31  H   UNL     1     -39.188  30.365   0.261  0.00  0.00    +0.144 HD
ENDBRANCH  26  29
ENDBRANCH  23  26
ENDBRANCH   4  20
BRANCH   5  32
ATOM     32  C   UNL     1     -29.251  28.876   4.382  0.00  0.00    +0.018 C 
BRANCH  32  33
ATOM     33  C   UNL     1     -30.035  28.388   5.600  0.00  0.00    +0.001 C 
BRANCH  33  34
ATOM     34  C   UNL     1     -30.261  29.519   6.604  0.00  0.00    +0.000 C 
ATOM     35  C   UNL     1     -31.733  29.666   6.955  0.00  0.00    +0.000 C 
ENDBRANCH  33  34
ENDBRANCH  32  33
ENDBRANCH   5  32
TORSDOF 9
ENDMDL
MODEL 6
REMARK VINA RESULT:      -5.7      3.389      6.808
REMARK  Name = 197004
REMARK  9 active torsions:
REMARK  status: ('A' for Active; 'I' for Inactive)
REMARK    1  A    between atoms: N_3  and  C_8
REMARK    2  A    between atoms: N_4  and  C_20
REMARK    3  A    between atoms: C_5  and  C_32
REMARK    4  A    between atoms: C_11  and  S_14
REMARK    5  A    between atoms: S_14  and  N_17
REMARK    6  A    between atoms: C_23  and  S_26
REMARK    7  A    between atoms: S_26  and  N_29
REMARK    8  A    between atoms: C_32  and  C_33
REMARK    9  A    between atoms: C_33  and  C_34
REMARK                            x       y       z     vdW  Elec       q    Type
REMARK                         _______ _______ _______ _____ _____    ______ ____
ROOT
ATOM      1  O   UNL     1     -38.925  27.026   1.483  0.00  0.00    -0.272 OA
ATOM      2  O   UNL     1     -39.842  22.418   1.910  0.00  0.00    -0.272 OA
ATOM      3  N   UNL     1     -37.583  25.106   1.905  0.00  0.00    -0.179 N 
ATOM      4  N   UNL     1     -37.844  23.714   1.924  0.00  0.00    -0.179 N 
ATOM      5  C   UNL     1     -39.873  24.810   1.595  0.00  0.00    +0.157 C 
ATOM      6  C   UNL     1     -38.753  25.822   1.611  0.00  0.00    +0.254 C 
ATOM      7  C   UNL     1     -39.225  23.471   1.867  0.00  0.00    +0.254 C 
ENDROOT
BRANCH   3   8
ATOM      8  C   UNL     1     -36.447  25.718   2.517  0.00  0.00    +0.073 C 
ATOM      9  C   UNL     1     -36.319  25.726   3.908  0.00  0.00    +0.018 C 
ATOM     10  C   UNL     1     -35.460  26.311   1.728  0.00  0.00    +0.018 C 
ATOM     11  C   UNL     1     -34.226  26.916   3.714  0.00  0.00    +0.122 C 
ATOM     12  C   UNL     1     -35.210  26.324   4.506  0.00  0.00    +0.021 C 
ATOM     13  C   UNL     1     -34.351  26.909   2.325  0.00  0.00    +0.021 C 
BRANCH  11  14
ATOM     14  S   UNL     1     -32.837  27.665   4.464  0.00  0.00    +0.057 S 
ATOM     15  O   UNL     1     -31.635  27.123   3.847  0.00  0.00    -0.153 OA
ATOM     16  O   UNL     1     -33.049  29.105   4.493  0.00  0.00    -0.153 OA
BRANCH  14  17
ATOM     17  N   UNL     1     -32.961  27.059   6.057  0.00  0.00    -0.203 NA
ATOM     18  H   UNL     1     -33.187  26.065   6.025  0.00  0.00    +0.144 HD
ATOM     19  H   UNL     1     -33.697  27.560   6.555  0.00  0.00    +0.144 HD
ENDBRANCH  14  17
ENDBRANCH  11  14
ENDBRANCH   3   8
BRANCH   4  20
ATOM     20  C   UNL     1     -36.877  22.709   1.620  0.00  0.00    +0.073 C 
ATOM     21  C   UNL     1     -36.272  21.983   2.649  0.00  0.00    +0.018 C 
ATOM     22  C   UNL     1     -36.530  22.449   0.291  0.00  0.00    +0.018 C 
ATOM     23  C   UNL     1     -34.983  20.744   1.024  0.00  0.00    +0.122 C 
ATOM     24  C   UNL     1     -35.327  21.001   2.350  0.00  0.00    +0.021 C 
ATOM     25  C   UNL     1     -35.585  21.468  -0.006  0.00  0.00    +0.021 C 
BRANCH  23  26
ATOM     26  S   UNL     1     -33.800  19.516   0.651  0.00  0.00    +0.057 S 
ATOM     27  O   UNL     1     -33.473  18.804   1.878  0.00  0.00    -0.153 OA
ATOM     28  O   UNL     1     -34.256  18.773  -0.516  0.00  0.00    -0.153 OA
BRANCH  26  29
ATOM     29  N   UNL     1     -32.462  20.478   0.199  0.00  0.00    -0.203 NA
ATOM     30  H   UNL     1     -32.778  21.240  -0.400  0.00  0.00    +0.144 HD
ATOM     31  H   UNL     1     -31.787  19.905  -0.305  0.00  0.00    +0.144 HD
ENDBRANCH  26  29
ENDBRANCH  23  26
ENDBRANCH   4  20
BRANCH   5  32
ATOM     32  C   UNL     1     -40.927  25.129   2.638  0.00  0.00    +0.018 C 
BRANCH  32  33
ATOM     33  C   UNL     1     -42.184  25.722   2.002  0.00  0.00    +0.001 C 
BRANCH  33  34
ATOM     34  C   UNL     1     -42.411  27.163   2.459  0.00  0.00    +0.000 C 
ATOM     35  C   UNL     1     -42.057  27.343   3.927  0.00  0.00    +0.000 C 
ENDBRANCH  33  34
ENDBRANCH  32  33
ENDBRANCH   5  32
TORSDOF 9
ENDMDL
MODEL 7
REMARK VINA RESULT:      -5.7      3.888      6.343
REMARK  Name = 197004
REMARK  9 active torsions:
REMARK  status: ('A' for Active; 'I' for Inactive)
REMARK    1  A    between atoms: N_3  and  C_8
REMARK    2  A    between atoms: N_4  and  C_20
REMARK    3  A    between atoms: C_5  and  C_32
REMARK    4  A    between atoms: C_11  and  S_14
REMARK    5  A    between atoms: S_14  and  N_17
REMARK    6  A    between atoms: C_23  and  S_26
REMARK    7  A    between atoms: S_26  and  N_29
REMARK    8  A    between atoms: C_32  and  C_33
REMARK    9  A    between atoms: C_33  and  C_34
REMARK                            x       y       z     vdW  Elec       q    Type
REMARK                         _______ _______ _______ _____ _____    ______ ____
ROOT
ATOM      1  O   UNL     1     -36.383  21.326   2.961  0.00  0.00    -0.272 OA
ATOM      2  O   UNL     1     -39.960  22.428   0.090  0.00  0.00    -0.272 OA
ATOM      3  N   UNL     1     -37.567  23.337   2.493  0.00  0.00    -0.179 N 
ATOM      4  N   UNL     1     -38.709  23.642   1.713  0.00  0.00    -0.179 N 
ATOM      5  C   UNL     1     -38.206  21.392   1.382  0.00  0.00    +0.157 C 
ATOM      6  C   UNL     1     -37.268  21.969   2.416  0.00  0.00    +0.254 C 
ATOM      7  C   UNL     1     -39.071  22.541   0.920  0.00  0.00    +0.254 C 
ENDROOT
BRANCH   3   8
ATOM      8  C   UNL     1     -36.608  24.304   2.924  0.00  0.00    +0.073 C 
ATOM      9  C   UNL     1     -36.618  24.764   4.243  0.00  0.00    +0.018 C 
ATOM     10  C   UNL     1     -35.656  24.793   2.027  0.00  0.00    +0.018 C 
ATOM     11  C   UNL     1     -34.732  26.195   3.765  0.00  0.00    +0.122 C 
ATOM     12  C   UNL     1     -35.682  25.708   4.662  0.00  0.00    +0.021 C 
ATOM     13  C   UNL     1     -34.719  25.738   2.447  0.00  0.00    +0.021 C 
BRANCH  11  14
ATOM     14  S   UNL     1     -33.559  27.378   4.292  0.00  0.00    +0.057 S 
ATOM     15  O   UNL     1     -33.936  28.672   3.742  0.00  0.00    -0.153 OA
ATOM     16  O   UNL     1     -33.365  27.229   5.727  0.00  0.00    -0.153 OA
BRANCH  14  17
ATOM     17  N   UNL     1     -32.156  26.825   3.487  0.00  0.00    -0.203 NA
ATOM     18  H   UNL     1     -32.120  25.807   3.528  0.00  0.00    +0.144 HD
ATOM     19  H   UNL     1     -31.329  27.214   3.940  0.00  0.00    +0.144 HD
ENDBRANCH  14  17
ENDBRANCH  11  14
ENDBRANCH   3   8
BRANCH   4  20
ATOM     20  C   UNL     1     -39.607  24.718   1.986  0.00  0.00    +0.073 C 
ATOM     21  C   UNL     1     -39.932  25.632   0.981  0.00  0.00    +0.018 C 
ATOM     22  C   UNL     1     -40.163  24.860   3.260  0.00  0.00    +0.018 C 
ATOM     23  C   UNL     1     -41.362  26.823   2.521  0.00  0.00    +0.122 C 
ATOM     24  C   UNL     1     -40.808  26.683   1.249  0.00  0.00    +0.021 C 
ATOM     25  C   UNL     1     -41.039  25.912   3.527  0.00  0.00    +0.021 C 
BRANCH  23  26
ATOM     26  S   UNL     1     -42.459  28.139   2.855  0.00  0.00    +0.057 S 
ATOM     27  O   UNL     1     -42.134  29.247   1.967  0.00  0.00    -0.153 OA
ATOM     28  O   UNL     1     -43.817  27.613   2.887  0.00  0.00    -0.153 OA
BRANCH  26  29
ATOM     29  N   UNL     1     -41.995  28.555   4.447  0.00  0.00    -0.203 NA
ATOM     30  H   UNL     1     -41.453  29.417   4.429  0.00  0.00    +0.144 HD
ATOM     31  H   UNL     1     -41.430  27.804   4.842  0.00  0.00    +0.144 HD
ENDBRANCH  26  29
ENDBRANCH  23  26
ENDBRANCH   4  20
BRANCH   5  32
ATOM     32  C   UNL     1     -37.446  20.779   0.221  0.00  0.00    +0.018 C 
BRANCH  32  33
ATOM     33  C   UNL     1     -36.447  21.768  -0.379  0.00  0.00    +0.001 C 
BRANCH  33  34
ATOM     34  C   UNL     1     -35.032  21.188  -0.395  0.00  0.00    +0.000 C 
ATOM     35  C   UNL     1     -33.991  22.250  -0.080  0.00  0.00    +0.000 C 
ENDBRANCH  33  34
ENDBRANCH  32  33
ENDBRANCH   5  32
TORSDOF 9
ENDMDL
MODEL 8
REMARK VINA RESULT:      -5.6      2.888      6.760
REMARK  Name = 197004
REMARK  9 active torsions:
REMARK  status: ('A' for Active; 'I' for Inactive)
REMARK    1  A    between atoms: N_3  and  C_8
REMARK    2  A    between atoms: N_4  and  C_20
REMARK    3  A    between atoms: C_5  and  C_32
REMARK    4  A    between atoms: C_11  and  S_14
REMARK    5  A    between atoms: S_14  and  N_17
REMARK    6  A    between atoms: C_23  and  S_26
REMARK    7  A    between atoms: S_26  and  N_29
REMARK    8  A    between atoms: C_32  and  C_33
REMARK    9  A    between atoms: C_33  and  C_34
REMARK                            x       y       z     vdW  Elec       q    Type
REMARK                         _______ _______ _______ _____ _____    ______ ____
ROOT
ATOM      1  O   UNL     1     -36.180  26.730   5.470  0.00  0.00    -0.272 OA
ATOM      2  O   UNL     1     -32.592  25.012   2.936  0.00  0.00    -0.272 OA
ATOM      3  N   UNL     1     -36.025  25.207   3.647  0.00  0.00    -0.179 N 
ATOM      4  N   UNL     1     -34.939  24.610   2.961  0.00  0.00    -0.179 N 
ATOM      5  C   UNL     1     -34.059  26.127   4.494  0.00  0.00    +0.157 C 
ATOM      6  C   UNL     1     -35.558  26.062   4.657  0.00  0.00    +0.254 C 
ATOM      7  C   UNL     1     -33.728  25.213   3.337  0.00  0.00    +0.254 C 
ENDROOT
BRANCH   3   8
ATOM      8  C   UNL     1     -37.353  25.292   3.130  0.00  0.00    +0.073 C 
ATOM      9  C   UNL     1     -37.679  26.272   2.190  0.00  0.00    +0.018 C 
ATOM     10  C   UNL     1     -38.331  24.394   3.562  0.00  0.00    +0.018 C 
ATOM     11  C   UNL     1     -39.951  25.456   2.118  0.00  0.00    +0.122 C 
ATOM     12  C   UNL     1     -38.976  26.354   1.685  0.00  0.00    +0.021 C 
ATOM     13  C   UNL     1     -39.629  24.476   3.057  0.00  0.00    +0.021 C 
BRANCH  11  14
ATOM     14  S   UNL     1     -41.576  25.560   1.486  0.00  0.00    +0.057 S 
ATOM     15  O   UNL     1     -41.959  24.247   0.986  0.00  0.00    -0.153 OA
ATOM     16  O   UNL     1     -42.413  26.233   2.469  0.00  0.00    -0.153 OA
BRANCH  14  17
ATOM     17  N   UNL     1     -41.341  26.609   0.156  0.00  0.00    -0.203 NA
ATOM     18  H   UNL     1     -40.745  26.153  -0.534  0.00  0.00    +0.144 HD
ATOM     19  H   UNL     1     -40.895  27.468   0.476  0.00  0.00    +0.144 HD
ENDBRANCH  14  17
ENDBRANCH  11  14
ENDBRANCH   3   8
BRANCH   4  20
ATOM     20  C   UNL     1     -34.994  23.335   2.321  0.00  0.00    +0.073 C 
ATOM     21  C   UNL     1     -34.688  23.218   0.963  0.00  0.00    +0.018 C 
ATOM     22  C   UNL     1     -35.356  22.200   3.051  0.00  0.00    +0.018 C 
ATOM     23  C   UNL     1     -35.104  20.841   1.070  0.00  0.00    +0.122 C 
ATOM     24  C   UNL     1     -34.742  21.972   0.339  0.00  0.00    +0.021 C 
ATOM     25  C   UNL     1     -35.411  20.955   2.426  0.00  0.00    +0.021 C 
BRANCH  23  26
ATOM     26  S   UNL     1     -35.172  19.282   0.288  0.00  0.00    +0.057 S 
ATOM     27  O   UNL     1     -35.289  19.491  -1.148  0.00  0.00    -0.153 OA
ATOM     28  O   UNL     1     -34.094  18.454   0.812  0.00  0.00    -0.153 OA
BRANCH  26  29
ATOM     29  N   UNL     1     -36.659  18.684   0.880  0.00  0.00    -0.203 NA
ATOM     30  H   UNL     1     -36.483  17.932   1.545  0.00  0.00    +0.144 HD
ATOM     31  H   UNL     1     -37.217  18.330   0.103  0.00  0.00    +0.144 HD
ENDBRANCH  26  29
ENDBRANCH  23  26
ENDBRANCH   4  20
BRANCH   5  32
ATOM     32  C   UNL     1     -33.589  27.544   4.221  0.00  0.00    +0.018 C 
BRANCH  32  33
ATOM     33  C   UNL     1     -32.503  27.974   5.207  0.00  0.00    +0.001 C 
BRANCH  33  34
ATOM     34  C   UNL     1     -31.878  29.308   4.798  0.00  0.00    +0.000 C 
ATOM     35  C   UNL     1     -31.963  30.330   5.921  0.00  0.00    +0.000 C 
ENDBRANCH  33  34
ENDBRANCH  32  33
ENDBRANCH   5  32
TORSDOF 9
ENDMDL
MODEL 9
REMARK VINA RESULT:      -5.6      3.806      8.349
REMARK  Name = 197004
REMARK  9 active torsions:
REMARK  status: ('A' for Active; 'I' for Inactive)
REMARK    1  A    between atoms: N_3  and  C_8
REMARK    2  A    between atoms: N_4  and  C_20
REMARK    3  A    between atoms: C_5  and  C_32
REMARK    4  A    between atoms: C_11  and  S_14
REMARK    5  A    between atoms: S_14  and  N_17
REMARK    6  A    between atoms: C_23  and  S_26
REMARK    7  A    between atoms: S_26  and  N_29
REMARK    8  A    between atoms: C_32  and  C_33
REMARK    9  A    between atoms: C_33  and  C_34
REMARK                            x       y       z     vdW  Elec       q    Type
REMARK                         _______ _______ _______ _____ _____    ______ ____
ROOT
ATOM      1  O   UNL     1     -38.282  19.599  -0.023  0.00  0.00    -0.272 OA
ATOM      2  O   UNL     1     -34.441  17.211  -1.365  0.00  0.00    -0.272 OA
ATOM      3  N   UNL     1     -35.942  19.993   0.165  0.00  0.00    -0.179 N 
ATOM      4  N   UNL     1     -34.795  19.330  -0.335  0.00  0.00    -0.179 N 
ATOM      5  C   UNL     1     -36.656  18.052  -0.907  0.00  0.00    +0.157 C 
ATOM      6  C   UNL     1     -37.110  19.324  -0.232  0.00  0.00    +0.254 C 
ATOM      7  C   UNL     1     -35.145  18.086  -0.885  0.00  0.00    +0.254 C 
ENDROOT
BRANCH   3   8
ATOM      8  C   UNL     1     -35.925  20.916   1.254  0.00  0.00    +0.073 C 
ATOM      9  C   UNL     1     -36.335  22.237   1.062  0.00  0.00    +0.018 C 
ATOM     10  C   UNL     1     -35.498  20.501   2.517  0.00  0.00    +0.018 C 
ATOM     11  C   UNL     1     -35.891  22.721   3.386  0.00  0.00    +0.122 C 
ATOM     12  C   UNL     1     -36.318  23.138   2.126  0.00  0.00    +0.021 C 
ATOM     13  C   UNL     1     -35.481  21.402   3.582  0.00  0.00    +0.021 C 
BRANCH  11  14
ATOM     14  S   UNL     1     -35.870  23.850   4.719  0.00  0.00    +0.057 S 
ATOM     15  O   UNL     1     -36.042  23.102   5.956  0.00  0.00    -0.153 OA
ATOM     16  O   UNL     1     -34.722  24.731   4.559  0.00  0.00    -0.153 OA
BRANCH  14  17
ATOM     17  N   UNL     1     -37.294  24.743   4.411  0.00  0.00    -0.203 NA
ATOM     18  H   UNL     1     -38.074  24.100   4.268  0.00  0.00    +0.144 HD
ATOM     19  H   UNL     1     -37.165  25.312   3.575  0.00  0.00    +0.144 HD
ENDBRANCH  14  17
ENDBRANCH  11  14
ENDBRANCH   3   8
BRANCH   4  20
ATOM     20  C   UNL     1     -33.556  19.975  -0.628  0.00  0.00    +0.073 C 
ATOM     21  C   UNL     1     -32.399  19.625   0.074  0.00  0.00    +0.018 C 
ATOM     22  C   UNL     1     -33.495  20.959  -1.618  0.00  0.00    +0.018 C 
ATOM     23  C   UNL     1     -31.131  21.238  -1.201  0.00  0.00    +0.122 C 
ATOM     24  C   UNL     1     -31.189  20.256  -0.213  0.00  0.00    +0.021 C 
ATOM     25  C   UNL     1     -32.284  21.590  -1.904  0.00  0.00    +0.021 C 
BRANCH  23  26
ATOM     26  S   UNL     1     -29.616  22.027  -1.560  0.00  0.00    +0.057 S 
ATOM     27  O   UNL     1     -28.614  21.551  -0.617  0.00  0.00    -0.153 OA
ATOM     28  O   UNL     1     -29.369  21.925  -2.992  0.00  0.00    -0.153 OA
BRANCH  26  29
ATOM     29  N   UNL     1     -29.997  23.650  -1.185  0.00  0.00    -0.203 NA
ATOM     30  H   UNL     1     -30.832  23.931  -1.698  0.00  0.00    +0.144 HD
ATOM     31  H   UNL     1     -29.217  24.252  -1.448  0.00  0.00    +0.144 HD
ENDBRANCH  26  29
ENDBRANCH  23  26
ENDBRANCH   4  20
BRANCH   5  32
ATOM     32  C   UNL     1     -37.185  16.823  -0.191  0.00  0.00    +0.018 C 
BRANCH  32  33
ATOM     33  C   UNL     1     -37.966  15.915  -1.141  0.00  0.00    +0.001 C 
BRANCH  33  34
ATOM     34  C   UNL     1     -39.459  16.242  -1.120  0.00  0.00    +0.000 C 
ATOM     35  C   UNL     1     -40.294  15.014  -0.793  0.00  0.00    +0.000 C 
ENDBRANCH  33  34
ENDBRANCH  32  33
ENDBRANCH   5  32
TORSDOF 9
ENDMDL
