MODEL 1
REMARK VINA RESULT:      -6.6      0.000      0.000
REMARK  Name = 54194814
REMARK  6 active torsions:
REMARK  status: ('A' for Active; 'I' for Inactive)
REMARK    1  A    between atoms: C_6  and  O_22
REMARK    2  A    between atoms: C_6  and  C_27
REMARK    3  A    between atoms: C_8  and  O_24
REMARK    4  A    between atoms: C_27  and  C_28
REMARK    5  A    between atoms: C_28  and  O_29
REMARK    6  A    between atoms: O_29  and  C_31
REMARK                            x       y       z     vdW  Elec       q    Type
REMARK                         _______ _______ _______ _____ _____    ______ ____
ROOT
ATOM      1  O   UNL     1     -32.495  16.679  -3.268  0.00  0.00    -0.287 OA
ATOM      2  C   UNL     1     -36.066  22.122   1.784  0.00  0.00    +0.031 C 
ATOM      3  C   UNL     1     -34.931  22.381   0.770  0.00  0.00    +0.003 C 
ATOM      4  C   UNL     1     -33.897  21.250   0.726  0.00  0.00    +0.003 C 
ATOM      5  C   UNL     1     -34.598  19.906   0.317  0.00  0.00    +0.034 C 
ATOM      6  C   UNL     1     -36.840  23.459   1.659  0.00  0.00    +0.143 C 
ATOM      7  C   UNL     1     -36.802  20.863   1.319  0.00  0.00    +0.032 C 
ATOM      8  C   UNL     1     -35.870  19.641   1.189  0.00  0.00    +0.111 C 
ATOM      9  C   UNL     1     -34.454  23.789   1.124  0.00  0.00    +0.003 C 
ATOM     10  C   UNL     1     -33.547  18.718   0.244  0.00  0.00    +0.036 C 
ATOM     11  C   UNL     1     -35.731  24.530   1.569  0.00  0.00    +0.034 C 
ATOM     12  C   UNL     1     -32.746  21.590  -0.233  0.00  0.00    +0.004 C 
ATOM     13  C   UNL     1     -31.706  20.465  -0.304  0.00  0.00    +0.019 C 
ATOM     14  C   UNL     1     -35.563  21.923   3.241  0.00  0.00    +0.003 C 
ATOM     15  C   UNL     1     -32.405  19.166  -0.698  0.00  0.00    -0.038 C 
ATOM     16  C   UNL     1     -32.964  18.368   1.635  0.00  0.00    +0.009 C 
ATOM     17  C   UNL     1     -34.187  17.427  -0.246  0.00  0.00    -0.020 C 
ATOM     18  C   UNL     1     -30.540  20.915  -1.197  0.00  0.00    +0.004 C 
ATOM     19  C   UNL     1     -32.085  18.491  -1.817  0.00  0.00    +0.034 C 
ATOM     20  C   UNL     1     -33.863  16.764  -1.359  0.00  0.00    +0.038 C 
ATOM     21  C   UNL     1     -32.794  17.264  -2.233  0.00  0.00    +0.195 C 
ENDROOT
BRANCH   6  22
ATOM     22  O   UNL     1     -37.623  23.490   0.470  0.00  0.00    -0.380 OA
ATOM     23  H   UNL     1     -38.237  22.739   0.468  0.00  0.00    +0.211 HD
ENDBRANCH   6  22
BRANCH   8  24
ATOM     24  O   UNL     1     -36.659  18.605   0.601  0.00  0.00    -0.384 OA
ATOM     25  H   UNL     1     -36.628  18.684  -0.366  0.00  0.00    +0.210 HD
ENDBRANCH   8  24
BRANCH   6  27
ATOM     26  O   UNL     1     -38.767  22.965   2.969  0.00  0.00    -0.290 OA
ATOM     27  C   UNL     1     -37.820  23.723   2.759  0.00  0.00    +0.218 C 
BRANCH  27  28
ATOM     28  C   UNL     1     -37.578  24.967   3.589  0.00  0.00    +0.274 C 
BRANCH  28  29
ATOM     29  O   UNL     1     -36.997  24.633   4.831  0.00  0.00    -0.440 OA
BRANCH  29  31
ATOM     30  O   UNL     1     -35.822  26.577   5.249  0.00  0.00    -0.250 OA
ATOM     31  C   UNL     1     -35.890  25.357   5.197  0.00  0.00    +0.318 C 
ATOM     32  C   UNL     1     -34.755  24.437   5.529  0.00  0.00    +0.121 C 
ENDBRANCH  29  31
ENDBRANCH  28  29
ENDBRANCH  27  28
ENDBRANCH   6  27
TORSDOF 6
ENDMDL
MODEL 2
REMARK VINA RESULT:      -6.5      4.009      6.874
REMARK  Name = 54194814
REMARK  6 active torsions:
REMARK  status: ('A' for Active; 'I' for Inactive)
REMARK    1  A    between atoms: C_6  and  O_22
REMARK    2  A    between atoms: C_6  and  C_27
REMARK    3  A    between atoms: C_8  and  O_24
REMARK    4  A    between atoms: C_27  and  C_28
REMARK    5  A    between atoms: C_28  and  O_29
REMARK    6  A    between atoms: O_29  and  C_31
REMARK                            x       y       z     vdW  Elec       q    Type
REMARK                         _______ _______ _______ _____ _____    ______ ____
ROOT
ATOM      1  O   UNL     1     -34.728  21.385   6.373  0.00  0.00    -0.287 OA
ATOM      2  C   UNL     1     -39.749  25.449   1.257  0.00  0.00    +0.031 C 
ATOM      3  C   UNL     1     -39.547  23.922   1.364  0.00  0.00    +0.003 C 
ATOM      4  C   UNL     1     -38.082  23.526   1.579  0.00  0.00    +0.003 C 
ATOM      5  C   UNL     1     -37.549  24.166   2.910  0.00  0.00    +0.034 C 
ATOM      6  C   UNL     1     -41.266  25.491   0.940  0.00  0.00    +0.143 C 
ATOM      7  C   UNL     1     -39.316  26.052   2.596  0.00  0.00    +0.032 C 
ATOM      8  C   UNL     1     -37.861  25.698   2.967  0.00  0.00    +0.111 C 
ATOM      9  C   UNL     1     -40.273  23.382   0.133  0.00  0.00    +0.003 C 
ATOM     10  C   UNL     1     -36.037  23.756   3.170  0.00  0.00    +0.036 C 
ATOM     11  C   UNL     1     -41.476  24.328  -0.053  0.00  0.00    +0.034 C 
ATOM     12  C   UNL     1     -37.919  21.998   1.595  0.00  0.00    +0.004 C 
ATOM     13  C   UNL     1     -36.462  21.577   1.824  0.00  0.00    +0.019 C 
ATOM     14  C   UNL     1     -38.937  26.103   0.105  0.00  0.00    +0.003 C 
ATOM     15  C   UNL     1     -35.959  22.213   3.118  0.00  0.00    -0.038 C 
ATOM     16  C   UNL     1     -35.078  24.360   2.114  0.00  0.00    +0.009 C 
ATOM     17  C   UNL     1     -35.530  24.287   4.504  0.00  0.00    -0.020 C 
ATOM     18  C   UNL     1     -36.359  20.048   1.726  0.00  0.00    +0.004 C 
ATOM     19  C   UNL     1     -35.531  21.476   4.159  0.00  0.00    +0.034 C 
ATOM     20  C   UNL     1     -35.107  23.547   5.532  0.00  0.00    +0.038 C 
ATOM     21  C   UNL     1     -35.095  22.081   5.433  0.00  0.00    +0.195 C 
ENDROOT
BRANCH   6  22
ATOM     22  O   UNL     1     -42.042  25.258   2.111  0.00  0.00    -0.380 OA
ATOM     23  H   UNL     1     -42.237  24.311   2.187  0.00  0.00    +0.211 HD
ENDBRANCH   6  22
BRANCH   8  24
ATOM     24  O   UNL     1     -37.663  26.189   4.294  0.00  0.00    -0.384 OA
ATOM     25  H   UNL     1     -37.216  25.513   4.826  0.00  0.00    +0.210 HD
ENDBRANCH   8  24
BRANCH   6  27
ATOM     26  O   UNL     1     -41.415  27.228  -0.684  0.00  0.00    -0.290 OA
ATOM     27  C   UNL     1     -41.762  26.804   0.418  0.00  0.00    +0.218 C 
BRANCH  27  28
ATOM     28  C   UNL     1     -42.708  27.569   1.320  0.00  0.00    +0.274 C 
BRANCH  28  29
ATOM     29  O   UNL     1     -41.990  28.291   2.298  0.00  0.00    -0.440 OA
BRANCH  29  31
ATOM     30  O   UNL     1     -42.006  28.748   4.562  0.00  0.00    -0.250 OA
ATOM     31  C   UNL     1     -42.559  28.352   3.545  0.00  0.00    +0.318 C 
ATOM     32  C   UNL     1     -43.974  27.860   3.495  0.00  0.00    +0.121 C 
ENDBRANCH  29  31
ENDBRANCH  28  29
ENDBRANCH  27  28
ENDBRANCH   6  27
TORSDOF 6
ENDMDL
MODEL 3
REMARK VINA RESULT:      -6.5      2.179      7.616
REMARK  Name = 54194814
REMARK  6 active torsions:
REMARK  status: ('A' for Active; 'I' for Inactive)
REMARK    1  A    between atoms: C_6  and  O_22
REMARK    2  A    between atoms: C_6  and  C_27
REMARK    3  A    between atoms: C_8  and  O_24
REMARK    4  A    between atoms: C_27  and  C_28
REMARK    5  A    between atoms: C_28  and  O_29
REMARK    6  A    between atoms: O_29  and  C_31
REMARK                            x       y       z     vdW  Elec       q    Type
REMARK                         _______ _______ _______ _____ _____    ______ ____
ROOT
ATOM      1  O   UNL     1     -33.897  26.471   6.358  0.00  0.00    -0.287 OA
ATOM      2  C   UNL     1     -34.998  20.576   0.706  0.00  0.00    +0.031 C 
ATOM      3  C   UNL     1     -34.289  21.936   0.524  0.00  0.00    +0.003 C 
ATOM      4  C   UNL     1     -35.003  23.084   1.247  0.00  0.00    +0.003 C 
ATOM      5  C   UNL     1     -35.062  22.785   2.787  0.00  0.00    +0.034 C 
ATOM      6  C   UNL     1     -34.112  19.695  -0.212  0.00  0.00    +0.143 C 
ATOM      7  C   UNL     1     -34.963  20.251   2.201  0.00  0.00    +0.032 C 
ATOM      8  C   UNL     1     -35.617  21.349   3.066  0.00  0.00    +0.111 C 
ATOM      9  C   UNL     1     -34.098  22.036  -0.988  0.00  0.00    +0.003 C 
ATOM     10  C   UNL     1     -35.780  23.969   3.566  0.00  0.00    +0.036 C 
ATOM     11  C   UNL     1     -33.842  20.586  -1.443  0.00  0.00    +0.034 C 
ATOM     12  C   UNL     1     -34.310  24.427   0.969  0.00  0.00    +0.004 C 
ATOM     13  C   UNL     1     -34.999  25.590   1.695  0.00  0.00    +0.019 C 
ATOM     14  C   UNL     1     -36.469  20.571   0.205  0.00  0.00    +0.003 C 
ATOM     15  C   UNL     1     -35.053  25.281   3.189  0.00  0.00    -0.038 C 
ATOM     16  C   UNL     1     -37.280  24.083   3.201  0.00  0.00    +0.009 C 
ATOM     17  C   UNL     1     -35.762  23.746   5.072  0.00  0.00    -0.020 C 
ATOM     18  C   UNL     1     -34.320  26.907   1.291  0.00  0.00    +0.004 C 
ATOM     19  C   UNL     1     -34.461  26.068   4.105  0.00  0.00    +0.034 C 
ATOM     20  C   UNL     1     -35.171  24.533   5.975  0.00  0.00    +0.038 C 
ATOM     21  C   UNL     1     -34.462  25.746   5.546  0.00  0.00    +0.195 C 
ENDROOT
BRANCH   6  22
ATOM     22  O   UNL     1     -32.877  19.374   0.420  0.00  0.00    -0.380 OA
ATOM     23  H   UNL     1     -32.834  18.419   0.581  0.00  0.00    +0.211 HD
ENDBRANCH   6  22
BRANCH   8  24
ATOM     24  O   UNL     1     -35.365  20.982   4.423  0.00  0.00    -0.384 OA
ATOM     25  H   UNL     1     -36.092  20.428   4.749  0.00  0.00    +0.210 HD
ENDBRANCH   8  24
BRANCH   6  27
ATOM     26  O   UNL     1     -35.545  18.260  -1.462  0.00  0.00    -0.290 OA
ATOM     27  C   UNL     1     -34.705  18.367  -0.569  0.00  0.00    +0.218 C 
BRANCH  27  28
ATOM     28  C   UNL     1     -34.211  17.177   0.227  0.00  0.00    +0.274 C 
BRANCH  28  29
ATOM     29  O   UNL     1     -33.330  16.390  -0.545  0.00  0.00    -0.440 OA
BRANCH  29  31
ATOM     30  O   UNL     1     -31.496  16.861   0.778  0.00  0.00    -0.250 OA
ATOM     31  C   UNL     1     -32.106  16.124   0.015  0.00  0.00    +0.318 C 
ATOM     32  C   UNL     1     -31.605  14.788  -0.443  0.00  0.00    +0.121 C 
ENDBRANCH  29  31
ENDBRANCH  28  29
ENDBRANCH  27  28
ENDBRANCH   6  27
TORSDOF 6
ENDMDL
MODEL 4
REMARK VINA RESULT:      -6.4      5.090      8.847
REMARK  Name = 54194814
REMARK  6 active torsions:
REMARK  status: ('A' for Active; 'I' for Inactive)
REMARK    1  A    between atoms: C_6  and  O_22
REMARK    2  A    between atoms: C_6  and  C_27
REMARK    3  A    between atoms: C_8  and  O_24
REMARK    4  A    between atoms: C_27  and  C_28
REMARK    5  A    between atoms: C_28  and  O_29
REMARK    6  A    between atoms: O_29  and  C_31
REMARK                            x       y       z     vdW  Elec       q    Type
REMARK                         _______ _______ _______ _____ _____    ______ ____
ROOT
ATOM      1  O   UNL     1     -31.662  33.100   3.349  0.00  0.00    -0.287 OA
ATOM      2  C   UNL     1     -35.305  25.708   3.369  0.00  0.00    +0.031 C 
ATOM      3  C   UNL     1     -34.607  26.418   4.549  0.00  0.00    +0.003 C 
ATOM      4  C   UNL     1     -33.323  27.147   4.134  0.00  0.00    +0.003 C 
ATOM      5  C   UNL     1     -33.658  28.239   3.058  0.00  0.00    +0.034 C 
ATOM      6  C   UNL     1     -36.457  25.005   4.132  0.00  0.00    +0.143 C 
ATOM      7  C   UNL     1     -35.712  26.795   2.372  0.00  0.00    +0.032 C 
ATOM      8  C   UNL     1     -34.515  27.644   1.893  0.00  0.00    +0.111 C 
ATOM      9  C   UNL     1     -34.511  25.326   5.614  0.00  0.00    +0.003 C 
ATOM     10  C   UNL     1     -32.347  29.025   2.623  0.00  0.00    +0.036 C 
ATOM     11  C   UNL     1     -35.794  24.491   5.427  0.00  0.00    +0.034 C 
ATOM     12  C   UNL     1     -32.620  27.765   5.353  0.00  0.00    +0.004 C 
ATOM     13  C   UNL     1     -31.340  28.513   4.960  0.00  0.00    +0.019 C 
ATOM     14  C   UNL     1     -34.407  24.658   2.658  0.00  0.00    +0.003 C 
ATOM     15  C   UNL     1     -31.683  29.567   3.910  0.00  0.00    -0.038 C 
ATOM     16  C   UNL     1     -31.348  28.119   1.864  0.00  0.00    +0.009 C 
ATOM     17  C   UNL     1     -32.663  30.155   1.652  0.00  0.00    -0.020 C 
ATOM     18  C   UNL     1     -30.641  29.014   6.232  0.00  0.00    +0.004 C 
ATOM     19  C   UNL     1     -31.470  30.879   4.116  0.00  0.00    +0.034 C 
ATOM     20  C   UNL     1     -32.449  31.455   1.865  0.00  0.00    +0.038 C 
ATOM     21  C   UNL     1     -31.849  31.908   3.127  0.00  0.00    +0.195 C 
ENDROOT
BRANCH   6  22
ATOM     22  O   UNL     1     -37.491  25.927   4.464  0.00  0.00    -0.380 OA
ATOM     23  H   UNL     1     -37.147  26.833   4.409  0.00  0.00    +0.211 HD
ENDBRANCH   6  22
BRANCH   8  24
ATOM     24  O   UNL     1     -35.072  28.699   1.107  0.00  0.00    -0.384 OA
ATOM     25  H   UNL     1     -34.374  29.104   0.568  0.00  0.00    +0.210 HD
ENDBRANCH   8  24
BRANCH   6  27
ATOM     26  O   UNL     1     -36.986  22.737   3.633  0.00  0.00    -0.290 OA
ATOM     27  C   UNL     1     -37.153  23.925   3.362  0.00  0.00    +0.218 C 
BRANCH  27  28
ATOM     28  C   UNL     1     -38.064  24.382   2.241  0.00  0.00    +0.274 C 
BRANCH  28  29
ATOM     29  O   UNL     1     -39.410  24.391   2.665  0.00  0.00    -0.440 OA
BRANCH  29  31
ATOM     30  O   UNL     1     -39.754  26.674   2.744  0.00  0.00    -0.250 OA
ATOM     31  C   UNL     1     -40.111  25.547   2.430  0.00  0.00    +0.318 C 
ATOM     32  C   UNL     1     -41.399  25.239   1.727  0.00  0.00    +0.121 C 
ENDBRANCH  29  31
ENDBRANCH  28  29
ENDBRANCH  27  28
ENDBRANCH   6  27
TORSDOF 6
ENDMDL
MODEL 5
REMARK VINA RESULT:      -6.3      4.087      6.951
REMARK  Name = 54194814
REMARK  6 active torsions:
REMARK  status: ('A' for Active; 'I' for Inactive)
REMARK    1  A    between atoms: C_6  and  O_22
REMARK    2  A    between atoms: C_6  and  C_27
REMARK    3  A    between atoms: C_8  and  O_24
REMARK    4  A    between atoms: C_27  and  C_28
REMARK    5  A    between atoms: C_28  and  O_29
REMARK    6  A    between atoms: O_29  and  C_31
REMARK                            x       y       z     vdW  Elec       q    Type
REMARK                         _______ _______ _______ _____ _____    ______ ____
ROOT
ATOM      1  O   UNL     1     -34.920  19.459   1.558  0.00  0.00    -0.287 OA
ATOM      2  C   UNL     1     -33.459  27.296   3.645  0.00  0.00    +0.031 C 
ATOM      3  C   UNL     1     -33.407  26.052   4.559  0.00  0.00    +0.003 C 
ATOM      4  C   UNL     1     -34.535  25.053   4.274  0.00  0.00    +0.003 C 
ATOM      5  C   UNL     1     -34.438  24.553   2.789  0.00  0.00    +0.034 C 
ATOM      6  C   UNL     1     -32.294  28.117   4.255  0.00  0.00    +0.143 C 
ATOM      7  C   UNL     1     -33.266  26.804   2.209  0.00  0.00    +0.032 C 
ATOM      8  C   UNL     1     -34.316  25.753   1.793  0.00  0.00    +0.111 C 
ATOM      9  C   UNL     1     -33.300  26.646   5.962  0.00  0.00    +0.003 C 
ATOM     10  C   UNL     1     -35.583  23.500   2.470  0.00  0.00    +0.036 C 
ATOM     11  C   UNL     1     -32.451  27.920   5.778  0.00  0.00    +0.034 C 
ATOM     12  C   UNL     1     -34.492  23.875   5.260  0.00  0.00    +0.004 C 
ATOM     13  C   UNL     1     -35.603  22.855   4.985  0.00  0.00    +0.019 C 
ATOM     14  C   UNL     1     -34.792  28.088   3.751  0.00  0.00    +0.003 C 
ATOM     15  C   UNL     1     -35.497  22.383   3.536  0.00  0.00    -0.038 C 
ATOM     16  C   UNL     1     -36.992  24.141   2.504  0.00  0.00    +0.009 C 
ATOM     17  C   UNL     1     -35.450  22.928   1.065  0.00  0.00    -0.020 C 
ATOM     18  C   UNL     1     -35.563  21.764   6.066  0.00  0.00    +0.004 C 
ATOM     19  C   UNL     1     -35.288  21.093   3.216  0.00  0.00    +0.034 C 
ATOM     20  C   UNL     1     -35.242  21.646   0.757  0.00  0.00    +0.038 C 
ATOM     21  C   UNL     1     -35.130  20.638   1.820  0.00  0.00    +0.195 C 
ENDROOT
BRANCH   6  22
ATOM     22  O   UNL     1     -31.032  27.604   3.840  0.00  0.00    -0.380 OA
ATOM     23  H   UNL     1     -30.331  28.224   4.095  0.00  0.00    +0.211 HD
ENDBRANCH   6  22
BRANCH   8  24
ATOM     24  O   UNL     1     -33.912  25.282   0.506  0.00  0.00    -0.384 OA
ATOM     25  H   UNL     1     -34.348  25.807  -0.183  0.00  0.00    +0.210 HD
ENDBRANCH   8  24
BRANCH   6  27
ATOM     26  O   UNL     1     -32.291  29.892   2.667  0.00  0.00    -0.290 OA
ATOM     27  C   UNL     1     -32.263  29.559   3.851  0.00  0.00    +0.218 C 
BRANCH  27  28
ATOM     28  C   UNL     1     -32.194  30.569   4.977  0.00  0.00    +0.274 C 
BRANCH  28  29
ATOM     29  O   UNL     1     -30.991  31.304   4.916  0.00  0.00    -0.440 OA
BRANCH  29  31
ATOM     30  O   UNL     1     -29.711  30.000   6.328  0.00  0.00    -0.250 OA
ATOM     31  C   UNL     1     -29.853  30.637   5.293  0.00  0.00    +0.318 C 
ATOM     32  C   UNL     1     -28.787  30.797   4.252  0.00  0.00    +0.121 C 
ENDBRANCH  29  31
ENDBRANCH  28  29
ENDBRANCH  27  28
ENDBRANCH   6  27
TORSDOF 6
ENDMDL
MODEL 6
REMARK VINA RESULT:      -6.3      3.778      6.857
REMARK  Name = 54194814
REMARK  6 active torsions:
REMARK  status: ('A' for Active; 'I' for Inactive)
REMARK    1  A    between atoms: C_6  and  O_22
REMARK    2  A    between atoms: C_6  and  C_27
REMARK    3  A    between atoms: C_8  and  O_24
REMARK    4  A    between atoms: C_27  and  C_28
REMARK    5  A    between atoms: C_28  and  O_29
REMARK    6  A    between atoms: O_29  and  C_31
REMARK                            x       y       z     vdW  Elec       q    Type
REMARK                         _______ _______ _______ _____ _____    ______ ____
ROOT
ATOM      1  O   UNL     1     -34.820  19.499   1.598  0.00  0.00    -0.287 OA
ATOM      2  C   UNL     1     -33.469  27.312   3.842  0.00  0.00    +0.031 C 
ATOM      3  C   UNL     1     -33.421  26.053   4.735  0.00  0.00    +0.003 C 
ATOM      4  C   UNL     1     -34.535  25.049   4.414  0.00  0.00    +0.003 C 
ATOM      5  C   UNL     1     -34.407  24.575   2.923  0.00  0.00    +0.034 C 
ATOM      6  C   UNL     1     -32.323  28.133   4.486  0.00  0.00    +0.143 C 
ATOM      7  C   UNL     1     -33.247  26.846   2.401  0.00  0.00    +0.032 C 
ATOM      8  C   UNL     1     -34.280  25.793   1.949  0.00  0.00    +0.111 C 
ATOM      9  C   UNL     1     -33.344  26.625   6.150  0.00  0.00    +0.003 C 
ATOM     10  C   UNL     1     -35.537  23.517   2.567  0.00  0.00    +0.036 C 
ATOM     11  C   UNL     1     -32.504  27.909   6.003  0.00  0.00    +0.034 C 
ATOM     12  C   UNL     1     -34.498  23.855   5.381  0.00  0.00    +0.004 C 
ATOM     13  C   UNL     1     -35.594  22.829   5.069  0.00  0.00    +0.019 C 
ATOM     14  C   UNL     1     -34.811  28.090   3.938  0.00  0.00    +0.003 C 
ATOM     15  C   UNL     1     -35.459  22.384   3.615  0.00  0.00    -0.038 C 
ATOM     16  C   UNL     1     -36.952  24.146   2.586  0.00  0.00    +0.009 C 
ATOM     17  C   UNL     1     -35.374  22.971   1.155  0.00  0.00    -0.020 C 
ATOM     18  C   UNL     1     -35.562  21.721   6.132  0.00  0.00    +0.004 C 
ATOM     19  C   UNL     1     -35.233  21.101   3.277  0.00  0.00    +0.034 C 
ATOM     20  C   UNL     1     -35.148  21.696   0.829  0.00  0.00    +0.038 C 
ATOM     21  C   UNL     1     -35.046  20.672   1.877  0.00  0.00    +0.195 C 
ENDROOT
BRANCH   6  22
ATOM     22  O   UNL     1     -31.049  27.639   4.084  0.00  0.00    -0.380 OA
ATOM     23  H   UNL     1     -30.353  28.218   4.431  0.00  0.00    +0.211 HD
ENDBRANCH   6  22
BRANCH   8  24
ATOM     24  O   UNL     1     -33.849  25.347   0.662  0.00  0.00    -0.384 OA
ATOM     25  H   UNL     1     -34.622  25.197   0.096  0.00  0.00    +0.210 HD
ENDBRANCH   8  24
BRANCH   6  27
ATOM     26  O   UNL     1     -32.689  30.453   4.882  0.00  0.00    -0.290 OA
ATOM     27  C   UNL     1     -32.298  29.582   4.107  0.00  0.00    +0.218 C 
BRANCH  27  28
ATOM     28  C   UNL     1     -31.767  29.904   2.725  0.00  0.00    +0.274 C 
BRANCH  28  29
ATOM     29  O   UNL     1     -32.473  30.988   2.160  0.00  0.00    -0.440 OA
BRANCH  29  31
ATOM     30  O   UNL     1     -33.869  29.854   0.711  0.00  0.00    -0.250 OA
ATOM     31  C   UNL     1     -33.682  30.690   1.585  0.00  0.00    +0.318 C 
ATOM     32  C   UNL     1     -34.764  31.541   2.178  0.00  0.00    +0.121 C 
ENDBRANCH  29  31
ENDBRANCH  28  29
ENDBRANCH  27  28
ENDBRANCH   6  27
TORSDOF 6
ENDMDL
MODEL 7
REMARK VINA RESULT:      -6.2      4.720      9.212
REMARK  Name = 54194814
REMARK  6 active torsions:
REMARK  status: ('A' for Active; 'I' for Inactive)
REMARK    1  A    between atoms: C_6  and  O_22
REMARK    2  A    between atoms: C_6  and  C_27
REMARK    3  A    between atoms: C_8  and  O_24
REMARK    4  A    between atoms: C_27  and  C_28
REMARK    5  A    between atoms: C_28  and  O_29
REMARK    6  A    between atoms: O_29  and  C_31
REMARK                            x       y       z     vdW  Elec       q    Type
REMARK                         _______ _______ _______ _____ _____    ______ ____
ROOT
ATOM      1  O   UNL     1     -31.655  33.678   3.281  0.00  0.00    -0.287 OA
ATOM      2  C   UNL     1     -34.971  26.137   3.463  0.00  0.00    +0.031 C 
ATOM      3  C   UNL     1     -34.248  26.877   4.610  0.00  0.00    +0.003 C 
ATOM      4  C   UNL     1     -33.019  27.660   4.135  0.00  0.00    +0.003 C 
ATOM      5  C   UNL     1     -33.452  28.737   3.078  0.00  0.00    +0.034 C 
ATOM      6  C   UNL     1     -36.054  25.385   4.279  0.00  0.00    +0.143 C 
ATOM      7  C   UNL     1     -35.473  27.206   2.489  0.00  0.00    +0.032 C 
ATOM      8  C   UNL     1     -34.338  28.105   1.955  0.00  0.00    +0.111 C 
ATOM      9  C   UNL     1     -34.055  25.790   5.666  0.00  0.00    +0.003 C 
ATOM     10  C   UNL     1     -32.199  29.578   2.582  0.00  0.00    +0.036 C 
ATOM     11  C   UNL     1     -35.308  24.900   5.540  0.00  0.00    +0.034 C 
ATOM     12  C   UNL     1     -32.285  28.308   5.320  0.00  0.00    +0.004 C 
ATOM     13  C   UNL     1     -31.059  29.110   4.866  0.00  0.00    +0.019 C 
ATOM     14  C   UNL     1     -34.065  25.126   2.708  0.00  0.00    +0.003 C 
ATOM     15  C   UNL     1     -31.497  30.148   3.836  0.00  0.00    -0.038 C 
ATOM     16  C   UNL     1     -31.199  28.716   1.773  0.00  0.00    +0.009 C 
ATOM     17  C   UNL     1     -32.610  30.693   1.629  0.00  0.00    -0.020 C 
ATOM     18  C   UNL     1     -30.321  29.641   6.104  0.00  0.00    +0.004 C 
ATOM     19  C   UNL     1     -31.331  31.468   4.034  0.00  0.00    +0.034 C 
ATOM     20  C   UNL     1     -32.442  32.001   1.834  0.00  0.00    +0.038 C 
ATOM     21  C   UNL     1     -31.801  32.480   3.066  0.00  0.00    +0.195 C 
ENDROOT
BRANCH   6  22
ATOM     22  O   UNL     1     -37.109  26.262   4.662  0.00  0.00    -0.380 OA
ATOM     23  H   UNL     1     -37.947  25.773   4.679  0.00  0.00    +0.211 HD
ENDBRANCH   6  22
BRANCH   8  24
ATOM     24  O   UNL     1     -34.977  29.135   1.198  0.00  0.00    -0.384 OA
ATOM     25  H   UNL     1     -35.363  28.753   0.394  0.00  0.00    +0.210 HD
ENDBRANCH   8  24
BRANCH   6  27
ATOM     26  O   UNL     1     -37.591  24.508   2.685  0.00  0.00    -0.290 OA
ATOM     27  C   UNL     1     -36.739  24.276   3.542  0.00  0.00    +0.218 C 
BRANCH  27  28
ATOM     28  C   UNL     1     -36.323  22.868   3.912  0.00  0.00    +0.274 C 
BRANCH  28  29
ATOM     29  O   UNL     1     -36.528  21.986   2.829  0.00  0.00    -0.440 OA
BRANCH  29  31
ATOM     30  O   UNL     1     -35.077  20.204   3.062  0.00  0.00    -0.250 OA
ATOM     31  C   UNL     1     -35.457  21.207   2.472  0.00  0.00    +0.318 C 
ATOM     32  C   UNL     1     -34.801  21.757   1.241  0.00  0.00    +0.121 C 
ENDBRANCH  29  31
ENDBRANCH  28  29
ENDBRANCH  27  28
ENDBRANCH   6  27
TORSDOF 6
ENDMDL
MODEL 8
REMARK VINA RESULT:      -6.2      5.269      9.059
REMARK  Name = 54194814
REMARK  6 active torsions:
REMARK  status: ('A' for Active; 'I' for Inactive)
REMARK    1  A    between atoms: C_6  and  O_22
REMARK    2  A    between atoms: C_6  and  C_27
REMARK    3  A    between atoms: C_8  and  O_24
REMARK    4  A    between atoms: C_27  and  C_28
REMARK    5  A    between atoms: C_28  and  O_29
REMARK    6  A    between atoms: O_29  and  C_31
REMARK                            x       y       z     vdW  Elec       q    Type
REMARK                         _______ _______ _______ _____ _____    ______ ____
ROOT
ATOM      1  O   UNL     1     -34.126  33.958   1.956  0.00  0.00    -0.287 OA
ATOM      2  C   UNL     1     -35.466  25.947   3.344  0.00  0.00    +0.031 C 
ATOM      3  C   UNL     1     -34.586  26.911   4.167  0.00  0.00    +0.003 C 
ATOM      4  C   UNL     1     -33.783  27.883   3.293  0.00  0.00    +0.003 C 
ATOM      5  C   UNL     1     -34.764  28.756   2.434  0.00  0.00    +0.034 C 
ATOM      6  C   UNL     1     -36.028  25.064   4.488  0.00  0.00    +0.143 C 
ATOM      7  C   UNL     1     -36.481  26.805   2.585  0.00  0.00    +0.032 C 
ATOM      8  C   UNL     1     -35.811  27.866   1.686  0.00  0.00    +0.111 C 
ATOM      9  C   UNL     1     -33.823  25.980   5.108  0.00  0.00    +0.003 C 
ATOM     10  C   UNL     1     -33.961  29.788   1.532  0.00  0.00    +0.036 C 
ATOM     11  C   UNL     1     -34.821  24.849   5.426  0.00  0.00    +0.034 C 
ATOM     12  C   UNL     1     -32.862  28.764   4.151  0.00  0.00    +0.004 C 
ATOM     13  C   UNL     1     -32.059  29.755   3.298  0.00  0.00    +0.019 C 
ATOM     14  C   UNL     1     -34.661  25.078   2.337  0.00  0.00    +0.003 C 
ATOM     15  C   UNL     1     -33.027  30.592   2.465  0.00  0.00    -0.038 C 
ATOM     16  C   UNL     1     -33.120  29.079   0.442  0.00  0.00    +0.009 C 
ATOM     17  C   UNL     1     -34.895  30.711   0.762  0.00  0.00    -0.020 C 
ATOM     18  C   UNL     1     -31.090  30.528   4.205  0.00  0.00    +0.004 C 
ATOM     19  C   UNL     1     -33.098  31.931   2.579  0.00  0.00    +0.034 C 
ATOM     20  C   UNL     1     -34.959  32.040   0.882  0.00  0.00    +0.038 C 
ATOM     21  C   UNL     1     -34.070  32.741   1.818  0.00  0.00    +0.195 C 
ENDROOT
BRANCH   6  22
ATOM     22  O   UNL     1     -37.063  25.740   5.196  0.00  0.00    -0.380 OA
ATOM     23  H   UNL     1     -36.929  26.698   5.129  0.00  0.00    +0.211 HD
ENDBRANCH   6  22
BRANCH   8  24
ATOM     24  O   UNL     1     -36.872  28.677   1.179  0.00  0.00    -0.384 OA
ATOM     25  H   UNL     1     -36.982  29.456   1.746  0.00  0.00    +0.210 HD
ENDBRANCH   8  24
BRANCH   6  27
ATOM     26  O   UNL     1     -36.258  22.694   4.454  0.00  0.00    -0.290 OA
ATOM     27  C   UNL     1     -36.658  23.781   4.040  0.00  0.00    +0.218 C 
BRANCH  27  28
ATOM     28  C   UNL     1     -37.804  23.904   3.058  0.00  0.00    +0.274 C 
BRANCH  28  29
ATOM     29  O   UNL     1     -38.945  24.446   3.689  0.00  0.00    -0.440 OA
BRANCH  29  31
ATOM     30  O   UNL     1     -39.969  26.398   3.000  0.00  0.00    -0.250 OA
ATOM     31  C   UNL     1     -39.778  25.194   2.897  0.00  0.00    +0.318 C 
ATOM     32  C   UNL     1     -40.437  24.325   1.868  0.00  0.00    +0.121 C 
ENDBRANCH  29  31
ENDBRANCH  28  29
ENDBRANCH  27  28
ENDBRANCH   6  27
TORSDOF 6
ENDMDL
MODEL 9
REMARK VINA RESULT:      -6.0      5.402      7.410
REMARK  Name = 54194814
REMARK  6 active torsions:
REMARK  status: ('A' for Active; 'I' for Inactive)
REMARK    1  A    between atoms: C_6  and  O_22
REMARK    2  A    between atoms: C_6  and  C_27
REMARK    3  A    between atoms: C_8  and  O_24
REMARK    4  A    between atoms: C_27  and  C_28
REMARK    5  A    between atoms: C_28  and  O_29
REMARK    6  A    between atoms: O_29  and  C_31
REMARK                            x       y       z     vdW  Elec       q    Type
REMARK                         _______ _______ _______ _____ _____    ______ ____
ROOT
ATOM      1  O   UNL     1     -40.470  24.213  -2.272  0.00  0.00    -0.287 OA
ATOM      2  C   UNL     1     -35.488  25.764   4.106  0.00  0.00    +0.031 C 
ATOM      3  C   UNL     1     -35.865  24.387   3.519  0.00  0.00    +0.003 C 
ATOM      4  C   UNL     1     -37.342  24.293   3.116  0.00  0.00    +0.003 C 
ATOM      5  C   UNL     1     -37.664  25.376   2.026  0.00  0.00    +0.034 C 
ATOM      6  C   UNL     1     -34.014  25.485   4.498  0.00  0.00    +0.143 C 
ATOM      7  C   UNL     1     -35.715  26.799   3.002  0.00  0.00    +0.032 C 
ATOM      8  C   UNL     1     -37.161  26.791   2.465  0.00  0.00    +0.111 C 
ATOM      9  C   UNL     1     -35.331  23.400   4.555  0.00  0.00    +0.003 C 
ATOM     10  C   UNL     1     -39.184  25.289   1.574  0.00  0.00    +0.036 C 
ATOM     11  C   UNL     1     -34.043  24.059   5.089  0.00  0.00    +0.034 C 
ATOM     12  C   UNL     1     -37.690  22.882   2.616  0.00  0.00    +0.004 C 
ATOM     13  C   UNL     1     -39.160  22.768   2.193  0.00  0.00    +0.019 C 
ATOM     14  C   UNL     1     -36.317  26.151   5.362  0.00  0.00    +0.003 C 
ATOM     15  C   UNL     1     -39.456  23.831   1.138  0.00  0.00    -0.038 C 
ATOM     16  C   UNL     1     -40.156  25.680   2.715  0.00  0.00    +0.009 C 
ATOM     17  C   UNL     1     -39.495  26.266   0.448  0.00  0.00    -0.020 C 
ATOM     18  C   UNL     1     -39.459  21.313   1.805  0.00  0.00    +0.004 C 
ATOM     19  C   UNL     1     -39.873  23.513  -0.101  0.00  0.00    +0.034 C 
ATOM     20  C   UNL     1     -39.907  25.941  -0.780  0.00  0.00    +0.038 C 
ATOM     21  C   UNL     1     -40.110  24.532  -1.144  0.00  0.00    +0.195 C 
ENDROOT
BRANCH   6  22
ATOM     22  O   UNL     1     -33.166  25.505   3.354  0.00  0.00    -0.380 OA
ATOM     23  H   UNL     1     -32.535  24.770   3.405  0.00  0.00    +0.211 HD
ENDBRANCH   6  22
BRANCH   8  24
ATOM     24  O   UNL     1     -37.171  27.682   1.349  0.00  0.00    -0.384 OA
ATOM     25  H   UNL     1     -36.956  27.191   0.541  0.00  0.00    +0.210 HD
ENDBRANCH   8  24
BRANCH   6  27
ATOM     26  O   UNL     1     -33.353  26.290   6.640  0.00  0.00    -0.290 OA
ATOM     27  C   UNL     1     -33.410  26.492   5.428  0.00  0.00    +0.218 C 
BRANCH  27  28
ATOM     28  C   UNL     1     -32.881  27.760   4.791  0.00  0.00    +0.274 C 
BRANCH  28  29
ATOM     29  O   UNL     1     -31.472  27.723   4.702  0.00  0.00    -0.440 OA
BRANCH  29  31
ATOM     30  O   UNL     1     -29.832  27.874   6.322  0.00  0.00    -0.250 OA
ATOM     31  C   UNL     1     -30.785  28.344   5.714  0.00  0.00    +0.318 C 
ATOM     32  C   UNL     1     -31.367  29.699   5.983  0.00  0.00    +0.121 C 
ENDBRANCH  29  31
ENDBRANCH  28  29
ENDBRANCH  27  28
ENDBRANCH   6  27
TORSDOF 6
ENDMDL
