MODEL 1
REMARK VINA RESULT:      -6.4      0.000      0.000
REMARK  Name = 194137
REMARK  6 active torsions:
REMARK  status: ('A' for Active; 'I' for Inactive)
REMARK    1  A    between atoms: N_4  and  C_28
REMARK    2  A    between atoms: C_13  and  S_18
REMARK    3  A    between atoms: C_15  and  O_26
REMARK    4  A    between atoms: S_18  and  C_20
REMARK    5  A    between atoms: C_28  and  C_29
REMARK    6  A    between atoms: C_29  and  C_30
REMARK                            x       y       z     vdW  Elec       q    Type
REMARK                         _______ _______ _______ _____ _____    ______ ____
ROOT
ATOM      1  O   UNL     1     -38.942  22.767   2.897  0.00  0.00    -0.252 OA
ATOM      2  O   UNL     1     -40.365  20.323  -1.217  0.00  0.00    -0.226 OA
ATOM      3  N   UNL     1     -37.424  21.537   1.751  0.00  0.00    -0.182 N 
ATOM      4  N   UNL     1     -36.666  23.263   3.102  0.00  0.00    -0.288 N 
ATOM      5  N   UNL     1     -37.760  20.182  -0.013  0.00  0.00    -0.375 NA
ATOM      6  N   UNL     1     -39.576  21.551   0.624  0.00  0.00    -0.212 N 
ATOM      7  C   UNL     1     -36.280  20.750   1.629  0.00  0.00    +0.089 C 
ATOM      8  C   UNL     1     -36.517  19.951   0.506  0.00  0.00    +0.131 C 
ATOM      9  C   UNL     1     -38.288  21.092   0.767  0.00  0.00    +0.257 C 
ATOM     10  C   UNL     1     -37.761  22.562   2.652  0.00  0.00    +0.314 C 
ATOM     11  C   UNL     1     -35.103  20.607   2.381  0.00  0.00    +0.018 C 
ATOM     12  C   UNL     1     -35.539  19.037   0.072  0.00  0.00    +0.096 C 
ATOM     13  C   UNL     1     -34.351  18.922   0.797  0.00  0.00    +0.045 C 
ATOM     14  C   UNL     1     -34.142  19.690   1.939  0.00  0.00    +0.006 C 
ATOM     15  C   UNL     1     -40.511  21.153  -0.329  0.00  0.00    +0.408 C 
ATOM     16  H   UNL     1     -35.767  22.980   2.819  0.00  0.00    +0.151 HD
ATOM     17  H   UNL     1     -39.871  22.237   1.267  0.00  0.00    +0.162 HD
ENDROOT
BRANCH  13  18
ATOM     18  S   UNL     1     -33.084  17.776   0.248  0.00  0.00    +0.084 S 
ATOM     19  O   UNL     1     -32.232  17.481   1.452  0.00  0.00    -0.247 OA
BRANCH  18  20
ATOM     20  C   UNL     1     -32.176  19.028  -0.693  0.00  0.00    +0.060 C 
ATOM     21  C   UNL     1     -32.518  19.287  -2.021  0.00  0.00    +0.009 C 
ATOM     22  C   UNL     1     -31.135  19.734  -0.091  0.00  0.00    +0.009 C 
ATOM     23  C   UNL     1     -31.817  20.250  -2.746  0.00  0.00    +0.001 C 
ATOM     24  C   UNL     1     -30.434  20.697  -0.816  0.00  0.00    +0.001 C 
ATOM     25  C   UNL     1     -30.776  20.956  -2.143  0.00  0.00    +0.000 C 
ENDBRANCH  18  20
ENDBRANCH  13  18
BRANCH  15  26
ATOM     26  O   UNL     1     -41.676  21.848  -0.133  0.00  0.00    -0.430 OA
ATOM     27  C   UNL     1     -41.610  23.262  -0.349  0.00  0.00    +0.257 C 
ENDBRANCH  15  26
BRANCH   4  28
ATOM     28  C   UNL     1     -36.800  24.404   3.979  0.00  0.00    +0.091 C 
BRANCH  28  29
ATOM     29  C   UNL     1     -35.904  24.300   5.210  0.00  0.00    +0.021 C 
BRANCH  29  30
ATOM     30  C   UNL     1     -35.041  23.037   5.204  0.00  0.00    +0.002 C 
ATOM     31  C   UNL     1     -35.401  22.114   6.358  0.00  0.00    +0.000 C 
ENDBRANCH  29  30
ENDBRANCH  28  29
ENDBRANCH   4  28
TORSDOF 6
ENDMDL
MODEL 2
REMARK VINA RESULT:      -6.2      1.853      2.541
REMARK  Name = 194137
REMARK  6 active torsions:
REMARK  status: ('A' for Active; 'I' for Inactive)
REMARK    1  A    between atoms: N_4  and  C_28
REMARK    2  A    between atoms: C_13  and  S_18
REMARK    3  A    between atoms: C_15  and  O_26
REMARK    4  A    between atoms: S_18  and  C_20
REMARK    5  A    between atoms: C_28  and  C_29
REMARK    6  A    between atoms: C_29  and  C_30
REMARK                            x       y       z     vdW  Elec       q    Type
REMARK                         _______ _______ _______ _____ _____    ______ ____
ROOT
ATOM      1  O   UNL     1     -38.815  24.441   3.780  0.00  0.00    -0.252 OA
ATOM      2  O   UNL     1     -41.584  23.655  -0.300  0.00  0.00    -0.226 OA
ATOM      3  N   UNL     1     -38.050  23.049   2.165  0.00  0.00    -0.182 N 
ATOM      4  N   UNL     1     -36.519  24.043   3.596  0.00  0.00    -0.288 N 
ATOM      5  N   UNL     1     -39.105  22.336   0.310  0.00  0.00    -0.375 NA
ATOM      6  N   UNL     1     -40.154  24.075   1.517  0.00  0.00    -0.212 N 
ATOM      7  C   UNL     1     -37.324  21.959   1.687  0.00  0.00    +0.089 C 
ATOM      8  C   UNL     1     -37.993  21.570   0.521  0.00  0.00    +0.131 C 
ATOM      9  C   UNL     1     -39.137  23.172   1.318  0.00  0.00    +0.257 C 
ATOM     10  C   UNL     1     -37.847  23.894   3.270  0.00  0.00    +0.314 C 
ATOM     11  C   UNL     1     -36.208  21.243   2.151  0.00  0.00    +0.018 C 
ATOM     12  C   UNL     1     -37.507  20.495  -0.245  0.00  0.00    +0.096 C 
ATOM     13  C   UNL     1     -36.374  19.808   0.195  0.00  0.00    +0.045 C 
ATOM     14  C   UNL     1     -35.742  20.172   1.380  0.00  0.00    +0.006 C 
ATOM     15  C   UNL     1     -41.284  24.259   0.722  0.00  0.00    +0.408 C 
ATOM     16  H   UNL     1     -35.842  23.533   3.093  0.00  0.00    +0.151 HD
ATOM     17  H   UNL     1     -40.076  24.656   2.308  0.00  0.00    +0.162 HD
ENDROOT
BRANCH  13  18
ATOM     18  S   UNL     1     -35.729  18.445  -0.778  0.00  0.00    +0.084 S 
ATOM     19  O   UNL     1     -36.178  17.186  -0.090  0.00  0.00    -0.247 OA
BRANCH  18  20
ATOM     20  C   UNL     1     -34.019  18.705  -0.248  0.00  0.00    +0.060 C 
ATOM     21  C   UNL     1     -33.446  17.859   0.703  0.00  0.00    +0.009 C 
ATOM     22  C   UNL     1     -33.272  19.752  -0.788  0.00  0.00    +0.009 C 
ATOM     23  C   UNL     1     -32.128  18.060   1.112  0.00  0.00    +0.001 C 
ATOM     24  C   UNL     1     -31.954  19.953  -0.379  0.00  0.00    +0.001 C 
ATOM     25  C   UNL     1     -31.382  19.106   0.571  0.00  0.00    +0.000 C 
ENDBRANCH  18  20
ENDBRANCH  13  18
BRANCH  15  26
ATOM     26  O   UNL     1     -42.054  25.256   1.260  0.00  0.00    -0.430 OA
ATOM     27  C   UNL     1     -41.346  26.328   1.893  0.00  0.00    +0.257 C 
ENDBRANCH  15  26
BRANCH   4  28
ATOM     28  C   UNL     1     -36.088  24.927   4.655  0.00  0.00    +0.091 C 
BRANCH  28  29
ATOM     29  C   UNL     1     -34.967  24.325   5.496  0.00  0.00    +0.021 C 
BRANCH  29  30
ATOM     30  C   UNL     1     -34.843  22.811   5.314  0.00  0.00    +0.002 C 
ATOM     31  C   UNL     1     -35.467  22.059   6.480  0.00  0.00    +0.000 C 
ENDBRANCH  29  30
ENDBRANCH  28  29
ENDBRANCH   4  28
TORSDOF 6
ENDMDL
MODEL 3
REMARK VINA RESULT:      -6.2      5.073     10.267
REMARK  Name = 194137
REMARK  6 active torsions:
REMARK  status: ('A' for Active; 'I' for Inactive)
REMARK    1  A    between atoms: N_4  and  C_28
REMARK    2  A    between atoms: C_13  and  S_18
REMARK    3  A    between atoms: C_15  and  O_26
REMARK    4  A    between atoms: S_18  and  C_20
REMARK    5  A    between atoms: C_28  and  C_29
REMARK    6  A    between atoms: C_29  and  C_30
REMARK                            x       y       z     vdW  Elec       q    Type
REMARK                         _______ _______ _______ _____ _____    ______ ____
ROOT
ATOM      1  O   UNL     1     -38.140  21.056   1.783  0.00  0.00    -0.252 OA
ATOM      2  O   UNL     1     -36.348  24.164   5.254  0.00  0.00    -0.226 OA
ATOM      3  N   UNL     1     -39.016  23.136   1.974  0.00  0.00    -0.182 N 
ATOM      4  N   UNL     1     -39.222  22.024  -0.050  0.00  0.00    -0.288 N 
ATOM      5  N   UNL     1     -38.578  24.706   3.526  0.00  0.00    -0.375 NA
ATOM      6  N   UNL     1     -37.155  22.821   3.503  0.00  0.00    -0.212 N 
ATOM      7  C   UNL     1     -40.034  24.083   1.882  0.00  0.00    +0.089 C 
ATOM      8  C   UNL     1     -39.706  25.052   2.836  0.00  0.00    +0.131 C 
ATOM      9  C   UNL     1     -38.217  23.551   3.025  0.00  0.00    +0.257 C 
ATOM     10  C   UNL     1     -38.764  21.961   1.246  0.00  0.00    +0.314 C 
ATOM     11  C   UNL     1     -41.213  24.186   1.125  0.00  0.00    +0.018 C 
ATOM     12  C   UNL     1     -40.522  26.187   2.998  0.00  0.00    +0.096 C 
ATOM     13  C   UNL     1     -41.674  26.309   2.218  0.00  0.00    +0.045 C 
ATOM     14  C   UNL     1     -42.017  25.318   1.303  0.00  0.00    +0.006 C 
ATOM     15  C   UNL     1     -36.307  23.159   4.557  0.00  0.00    +0.408 C 
ATOM     16  H   UNL     1     -39.715  22.824  -0.346  0.00  0.00    +0.151 HD
ATOM     17  H   UNL     1     -36.971  21.966   3.052  0.00  0.00    +0.162 HD
ENDROOT
BRANCH  13  18
ATOM     18  S   UNL     1     -42.717  27.758   2.397  0.00  0.00    +0.084 S 
ATOM     19  O   UNL     1     -42.107  28.584   3.496  0.00  0.00    -0.247 OA
BRANCH  18  20
ATOM     20  C   UNL     1     -44.074  26.846   3.173  0.00  0.00    +0.060 C 
ATOM     21  C   UNL     1     -44.393  27.074   4.512  0.00  0.00    +0.009 C 
ATOM     22  C   UNL     1     -44.801  25.913   2.432  0.00  0.00    +0.009 C 
ATOM     23  C   UNL     1     -45.438  26.370   5.109  0.00  0.00    +0.001 C 
ATOM     24  C   UNL     1     -45.846  25.209   3.030  0.00  0.00    +0.001 C 
ATOM     25  C   UNL     1     -46.165  25.438   4.369  0.00  0.00    +0.000 C 
ENDBRANCH  18  20
ENDBRANCH  13  18
BRANCH  15  26
ATOM     26  O   UNL     1     -35.376  22.168   4.720  0.00  0.00    -0.430 OA
ATOM     27  C   UNL     1     -35.140  21.740   6.067  0.00  0.00    +0.257 C 
ENDBRANCH  15  26
BRANCH   4  28
ATOM     28  C   UNL     1     -39.000  20.949  -0.990  0.00  0.00    +0.091 C 
BRANCH  28  29
ATOM     29  C   UNL     1     -40.303  20.390  -1.554  0.00  0.00    +0.021 C 
BRANCH  29  30
ATOM     30  C   UNL     1     -41.534  20.887  -0.793  0.00  0.00    +0.002 C 
ATOM     31  C   UNL     1     -42.413  21.763  -1.673  0.00  0.00    +0.000 C 
ENDBRANCH  29  30
ENDBRANCH  28  29
ENDBRANCH   4  28
TORSDOF 6
ENDMDL
MODEL 4
REMARK VINA RESULT:      -6.0      6.815     10.056
REMARK  Name = 194137
REMARK  6 active torsions:
REMARK  status: ('A' for Active; 'I' for Inactive)
REMARK    1  A    between atoms: N_4  and  C_28
REMARK    2  A    between atoms: C_13  and  S_18
REMARK    3  A    between atoms: C_15  and  O_26
REMARK    4  A    between atoms: S_18  and  C_20
REMARK    5  A    between atoms: C_28  and  C_29
REMARK    6  A    between atoms: C_29  and  C_30
REMARK                            x       y       z     vdW  Elec       q    Type
REMARK                         _______ _______ _______ _____ _____    ______ ____
ROOT
ATOM      1  O   UNL     1     -33.191  25.965   5.107  0.00  0.00    -0.252 OA
ATOM      2  O   UNL     1     -37.612  24.171   3.638  0.00  0.00    -0.226 OA
ATOM      3  N   UNL     1     -34.448  27.158   3.648  0.00  0.00    -0.182 N 
ATOM      4  N   UNL     1     -32.872  28.275   4.932  0.00  0.00    -0.288 N 
ATOM      5  N   UNL     1     -36.376  26.569   2.649  0.00  0.00    -0.375 NA
ATOM      6  N   UNL     1     -35.613  25.157   4.382  0.00  0.00    -0.212 N 
ATOM      7  C   UNL     1     -34.641  28.052   2.596  0.00  0.00    +0.089 C 
ATOM      8  C   UNL     1     -35.861  27.672   2.027  0.00  0.00    +0.131 C 
ATOM      9  C   UNL     1     -35.500  26.262   3.573  0.00  0.00    +0.257 C 
ATOM     10  C   UNL     1     -33.432  27.059   4.615  0.00  0.00    +0.314 C 
ATOM     11  C   UNL     1     -33.886  29.102   2.049  0.00  0.00    +0.018 C 
ATOM     12  C   UNL     1     -36.385  28.390   0.936  0.00  0.00    +0.096 C 
ATOM     13  C   UNL     1     -35.653  29.460   0.417  0.00  0.00    +0.045 C 
ATOM     14  C   UNL     1     -34.419  29.802   0.960  0.00  0.00    +0.006 C 
ATOM     15  C   UNL     1     -36.630  24.204   4.369  0.00  0.00    +0.408 C 
ATOM     16  H   UNL     1     -33.168  29.080   4.446  0.00  0.00    +0.151 HD
ATOM     17  H   UNL     1     -34.896  25.022   5.044  0.00  0.00    +0.162 HD
ENDROOT
BRANCH  13  18
ATOM     18  S   UNL     1     -36.313  30.399  -0.963  0.00  0.00    +0.084 S 
ATOM     19  O   UNL     1     -35.128  30.837  -1.780  0.00  0.00    -0.247 OA
BRANCH  18  20
ATOM     20  C   UNL     1     -36.755  31.829   0.055  0.00  0.00    +0.060 C 
ATOM     21  C   UNL     1     -37.820  31.744   0.952  0.00  0.00    +0.009 C 
ATOM     22  C   UNL     1     -36.032  33.016  -0.058  0.00  0.00    +0.009 C 
ATOM     23  C   UNL     1     -38.162  32.846   1.735  0.00  0.00    +0.001 C 
ATOM     24  C   UNL     1     -36.374  34.119   0.725  0.00  0.00    +0.001 C 
ATOM     25  C   UNL     1     -37.439  34.033   1.622  0.00  0.00    +0.000 C 
ENDBRANCH  18  20
ENDBRANCH  13  18
BRANCH  15  26
ATOM     26  O   UNL     1     -36.375  23.261   5.329  0.00  0.00    -0.430 OA
ATOM     27  C   UNL     1     -34.995  22.960   5.566  0.00  0.00    +0.257 C 
ENDBRANCH  15  26
BRANCH   4  28
ATOM     28  C   UNL     1     -31.862  28.405   5.956  0.00  0.00    +0.091 C 
BRANCH  28  29
ATOM     29  C   UNL     1     -31.715  29.841   6.451  0.00  0.00    +0.021 C 
BRANCH  29  30
ATOM     30  C   UNL     1     -31.871  30.868   5.328  0.00  0.00    +0.002 C 
ATOM     31  C   UNL     1     -30.520  31.389   4.861  0.00  0.00    +0.000 C 
ENDBRANCH  29  30
ENDBRANCH  28  29
ENDBRANCH   4  28
TORSDOF 6
ENDMDL
MODEL 5
REMARK VINA RESULT:      -6.0      3.575      6.314
REMARK  Name = 194137
REMARK  6 active torsions:
REMARK  status: ('A' for Active; 'I' for Inactive)
REMARK    1  A    between atoms: N_4  and  C_28
REMARK    2  A    between atoms: C_13  and  S_18
REMARK    3  A    between atoms: C_15  and  O_26
REMARK    4  A    between atoms: S_18  and  C_20
REMARK    5  A    between atoms: C_28  and  C_29
REMARK    6  A    between atoms: C_29  and  C_30
REMARK                            x       y       z     vdW  Elec       q    Type
REMARK                         _______ _______ _______ _____ _____    ______ ____
ROOT
ATOM      1  O   UNL     1     -38.869  19.883  -1.466  0.00  0.00    -0.252 OA
ATOM      2  O   UNL     1     -41.254  23.673   0.743  0.00  0.00    -0.226 OA
ATOM      3  N   UNL     1     -38.184  20.594   0.574  0.00  0.00    -0.182 N 
ATOM      4  N   UNL     1     -37.680  18.425  -0.077  0.00  0.00    -0.288 N 
ATOM      5  N   UNL     1     -38.904  22.367   1.757  0.00  0.00    -0.375 NA
ATOM      6  N   UNL     1     -40.165  21.795  -0.157  0.00  0.00    -0.212 N 
ATOM      7  C   UNL     1     -37.239  20.816   1.573  0.00  0.00    +0.089 C 
ATOM      8  C   UNL     1     -37.740  21.901   2.301  0.00  0.00    +0.131 C 
ATOM      9  C   UNL     1     -39.119  21.604   0.714  0.00  0.00    +0.257 C 
ATOM     10  C   UNL     1     -38.265  19.618  -0.435  0.00  0.00    +0.314 C 
ATOM     11  C   UNL     1     -35.999  20.242   1.897  0.00  0.00    +0.018 C 
ATOM     12  C   UNL     1     -37.037  22.385   3.420  0.00  0.00    +0.096 C 
ATOM     13  C   UNL     1     -35.823  21.787   3.766  0.00  0.00    +0.045 C 
ATOM     14  C   UNL     1     -35.310  20.739   3.010  0.00  0.00    +0.006 C 
ATOM     15  C   UNL     1     -41.142  22.787  -0.095  0.00  0.00    +0.408 C 
ATOM     16  H   UNL     1     -37.223  18.358   0.793  0.00  0.00    +0.151 HD
ATOM     17  H   UNL     1     -40.232  21.162  -0.908  0.00  0.00    +0.162 HD
ENDROOT
BRANCH  13  18
ATOM     18  S   UNL     1     -34.921  22.379   5.200  0.00  0.00    +0.084 S 
ATOM     19  O   UNL     1     -35.865  22.268   6.367  0.00  0.00    -0.247 OA
BRANCH  18  20
ATOM     20  C   UNL     1     -34.985  24.113   4.688  0.00  0.00    +0.060 C 
ATOM     21  C   UNL     1     -34.310  24.526   3.538  0.00  0.00    +0.009 C 
ATOM     22  C   UNL     1     -35.708  25.037   5.441  0.00  0.00    +0.009 C 
ATOM     23  C   UNL     1     -34.358  25.863   3.144  0.00  0.00    +0.001 C 
ATOM     24  C   UNL     1     -35.756  26.374   5.047  0.00  0.00    +0.001 C 
ATOM     25  C   UNL     1     -35.081  26.787   3.898  0.00  0.00    +0.000 C 
ENDBRANCH  18  20
ENDBRANCH  13  18
BRANCH  15  26
ATOM     26  O   UNL     1     -42.005  22.634  -1.148  0.00  0.00    -0.430 OA
ATOM     27  C   UNL     1     -42.801  21.443  -1.143  0.00  0.00    +0.257 C 
ENDBRANCH  15  26
BRANCH   4  28
ATOM     28  C   UNL     1     -37.717  17.268  -0.942  0.00  0.00    +0.091 C 
BRANCH  28  29
ATOM     29  C   UNL     1     -38.030  15.983  -0.182  0.00  0.00    +0.021 C 
BRANCH  29  30
ATOM     30  C   UNL     1     -39.401  15.406  -0.541  0.00  0.00    +0.002 C 
ATOM     31  C   UNL     1     -40.134  16.295  -1.534  0.00  0.00    +0.000 C 
ENDBRANCH  29  30
ENDBRANCH  28  29
ENDBRANCH   4  28
TORSDOF 6
ENDMDL
MODEL 6
REMARK VINA RESULT:      -6.0      4.634      8.880
REMARK  Name = 194137
REMARK  6 active torsions:
REMARK  status: ('A' for Active; 'I' for Inactive)
REMARK    1  A    between atoms: N_4  and  C_28
REMARK    2  A    between atoms: C_13  and  S_18
REMARK    3  A    between atoms: C_15  and  O_26
REMARK    4  A    between atoms: S_18  and  C_20
REMARK    5  A    between atoms: C_28  and  C_29
REMARK    6  A    between atoms: C_29  and  C_30
REMARK                            x       y       z     vdW  Elec       q    Type
REMARK                         _______ _______ _______ _____ _____    ______ ____
ROOT
ATOM      1  O   UNL     1     -36.919  21.575   1.848  0.00  0.00    -0.252 OA
ATOM      2  O   UNL     1     -41.017  20.516  -0.801  0.00  0.00    -0.226 OA
ATOM      3  N   UNL     1     -38.728  22.930   2.005  0.00  0.00    -0.182 N 
ATOM      4  N   UNL     1     -37.200  22.906   3.749  0.00  0.00    -0.288 N 
ATOM      5  N   UNL     1     -40.645  22.853   0.829  0.00  0.00    -0.375 NA
ATOM      6  N   UNL     1     -39.186  21.011   0.587  0.00  0.00    -0.212 N 
ATOM      7  C   UNL     1     -39.368  24.152   2.205  0.00  0.00    +0.089 C 
ATOM      8  C   UNL     1     -40.564  24.048   1.488  0.00  0.00    +0.131 C 
ATOM      9  C   UNL     1     -39.529  22.232   1.118  0.00  0.00    +0.257 C 
ATOM     10  C   UNL     1     -37.519  22.415   2.504  0.00  0.00    +0.314 C 
ATOM     11  C   UNL     1     -39.030  25.337   2.877  0.00  0.00    +0.018 C 
ATOM     12  C   UNL     1     -41.483  25.114   1.492  0.00  0.00    +0.096 C 
ATOM     13  C   UNL     1     -41.165  26.279   2.193  0.00  0.00    +0.045 C 
ATOM     14  C   UNL     1     -39.953  26.390   2.867  0.00  0.00    +0.006 C 
ATOM     15  C   UNL     1     -39.926  20.247  -0.314  0.00  0.00    +0.408 C 
ATOM     16  H   UNL     1     -37.781  23.588   4.159  0.00  0.00    +0.151 HD
ATOM     17  H   UNL     1     -38.322  20.635   0.873  0.00  0.00    +0.162 HD
ENDROOT
BRANCH  13  18
ATOM     18  S   UNL     1     -42.332  27.641   2.225  0.00  0.00    +0.084 S 
ATOM     19  O   UNL     1     -42.040  28.418   3.479  0.00  0.00    -0.247 OA
BRANCH  18  20
ATOM     20  C   UNL     1     -43.749  26.589   2.626  0.00  0.00    +0.060 C 
ATOM     21  C   UNL     1     -44.336  26.660   3.890  0.00  0.00    +0.009 C 
ATOM     22  C   UNL     1     -44.254  25.706   1.672  0.00  0.00    +0.009 C 
ATOM     23  C   UNL     1     -45.426  25.848   4.199  0.00  0.00    +0.001 C 
ATOM     24  C   UNL     1     -45.345  24.893   1.981  0.00  0.00    +0.001 C 
ATOM     25  C   UNL     1     -45.931  24.965   3.245  0.00  0.00    +0.000 C 
ENDBRANCH  18  20
ENDBRANCH  13  18
BRANCH  15  26
ATOM     26  O   UNL     1     -39.239  19.097  -0.599  0.00  0.00    -0.430 OA
ATOM     27  C   UNL     1     -38.288  19.179  -1.667  0.00  0.00    +0.257 C 
ENDBRANCH  15  26
BRANCH   4  28
ATOM     28  C   UNL     1     -36.035  22.450   4.473  0.00  0.00    +0.091 C 
BRANCH  28  29
ATOM     29  C   UNL     1     -35.515  23.494   5.457  0.00  0.00    +0.021 C 
BRANCH  29  30
ATOM     30  C   UNL     1     -35.271  24.853   4.799  0.00  0.00    +0.002 C 
ATOM     31  C   UNL     1     -35.994  25.967   5.540  0.00  0.00    +0.000 C 
ENDBRANCH  29  30
ENDBRANCH  28  29
ENDBRANCH   4  28
TORSDOF 6
ENDMDL
MODEL 7
REMARK VINA RESULT:      -5.9      3.948      7.747
REMARK  Name = 194137
REMARK  6 active torsions:
REMARK  status: ('A' for Active; 'I' for Inactive)
REMARK    1  A    between atoms: N_4  and  C_28
REMARK    2  A    between atoms: C_13  and  S_18
REMARK    3  A    between atoms: C_15  and  O_26
REMARK    4  A    between atoms: S_18  and  C_20
REMARK    5  A    between atoms: C_28  and  C_29
REMARK    6  A    between atoms: C_29  and  C_30
REMARK                            x       y       z     vdW  Elec       q    Type
REMARK                         _______ _______ _______ _____ _____    ______ ____
ROOT
ATOM      1  O   UNL     1     -36.115  21.254   2.143  0.00  0.00    -0.252 OA
ATOM      2  O   UNL     1     -39.879  19.874  -0.833  0.00  0.00    -0.226 OA
ATOM      3  N   UNL     1     -38.053  22.428   2.179  0.00  0.00    -0.182 N 
ATOM      4  N   UNL     1     -36.667  22.509   4.037  0.00  0.00    -0.288 N 
ATOM      5  N   UNL     1     -39.858  22.198   0.857  0.00  0.00    -0.375 NA
ATOM      6  N   UNL     1     -38.215  20.508   0.700  0.00  0.00    -0.212 N 
ATOM      7  C   UNL     1     -38.820  23.580   2.348  0.00  0.00    +0.089 C 
ATOM      8  C   UNL     1     -39.943  23.380   1.538  0.00  0.00    +0.131 C 
ATOM      9  C   UNL     1     -38.713  21.678   1.222  0.00  0.00    +0.257 C 
ATOM     10  C   UNL     1     -36.841  22.019   2.763  0.00  0.00    +0.314 C 
ATOM     11  C   UNL     1     -38.650  24.776   3.062  0.00  0.00    +0.018 C 
ATOM     12  C   UNL     1     -40.958  24.354   1.486  0.00  0.00    +0.096 C 
ATOM     13  C   UNL     1     -40.807  25.527   2.228  0.00  0.00    +0.045 C 
ATOM     14  C   UNL     1     -39.666  25.737   2.996  0.00  0.00    +0.006 C 
ATOM     15  C   UNL     1     -38.808  19.698  -0.267  0.00  0.00    +0.408 C 
ATOM     16  H   UNL     1     -37.340  23.123   4.410  0.00  0.00    +0.151 HD
ATOM     17  H   UNL     1     -37.344  20.209   1.047  0.00  0.00    +0.162 HD
ENDROOT
BRANCH  13  18
ATOM     18  S   UNL     1     -42.099  26.772   2.190  0.00  0.00    +0.084 S 
ATOM     19  O   UNL     1     -43.404  26.026   2.234  0.00  0.00    -0.247 OA
BRANCH  18  20
ATOM     20  C   UNL     1     -41.833  27.181   0.448  0.00  0.00    +0.060 C 
ATOM     21  C   UNL     1     -42.824  26.901  -0.495  0.00  0.00    +0.009 C 
ATOM     22  C   UNL     1     -40.638  27.777   0.045  0.00  0.00    +0.009 C 
ATOM     23  C   UNL     1     -42.618  27.215  -1.838  0.00  0.00    +0.001 C 
ATOM     24  C   UNL     1     -40.432  28.091  -1.298  0.00  0.00    +0.001 C 
ATOM     25  C   UNL     1     -41.423  27.811  -2.239  0.00  0.00    +0.000 C 
ENDBRANCH  18  20
ENDBRANCH  13  18
BRANCH  15  26
ATOM     26  O   UNL     1     -37.993  18.625  -0.515  0.00  0.00    -0.430 OA
ATOM     27  C   UNL     1     -36.591  18.840  -0.322  0.00  0.00    +0.257 C 
ENDBRANCH  15  26
BRANCH   4  28
ATOM     28  C   UNL     1     -35.522  22.149   4.842  0.00  0.00    +0.091 C 
BRANCH  28  29
ATOM     29  C   UNL     1     -35.186  23.211   5.885  0.00  0.00    +0.021 C 
BRANCH  29  30
ATOM     30  C   UNL     1     -34.797  24.550   5.256  0.00  0.00    +0.002 C 
ATOM     31  C   UNL     1     -35.819  25.630   5.574  0.00  0.00    +0.000 C 
ENDBRANCH  29  30
ENDBRANCH  28  29
ENDBRANCH   4  28
TORSDOF 6
ENDMDL
MODEL 8
REMARK VINA RESULT:      -5.9      4.057      7.399
REMARK  Name = 194137
REMARK  6 active torsions:
REMARK  status: ('A' for Active; 'I' for Inactive)
REMARK    1  A    between atoms: N_4  and  C_28
REMARK    2  A    between atoms: C_13  and  S_18
REMARK    3  A    between atoms: C_15  and  O_26
REMARK    4  A    between atoms: S_18  and  C_20
REMARK    5  A    between atoms: C_28  and  C_29
REMARK    6  A    between atoms: C_29  and  C_30
REMARK                            x       y       z     vdW  Elec       q    Type
REMARK                         _______ _______ _______ _____ _____    ______ ____
ROOT
ATOM      1  O   UNL     1     -35.430  20.122   2.590  0.00  0.00    -0.252 OA
ATOM      2  O   UNL     1     -38.548  18.959  -1.132  0.00  0.00    -0.226 OA
ATOM      3  N   UNL     1     -36.873  21.688   1.815  0.00  0.00    -0.182 N 
ATOM      4  N   UNL     1     -36.047  21.906   3.971  0.00  0.00    -0.288 N 
ATOM      5  N   UNL     1     -38.268  21.561   0.054  0.00  0.00    -0.375 NA
ATOM      6  N   UNL     1     -37.218  19.550   0.713  0.00  0.00    -0.212 N 
ATOM      7  C   UNL     1     -37.281  22.991   1.535  0.00  0.00    +0.089 C 
ATOM      8  C   UNL     1     -38.167  22.862   0.460  0.00  0.00    +0.131 C 
ATOM      9  C   UNL     1     -37.461  20.897   0.843  0.00  0.00    +0.257 C 
ATOM     10  C   UNL     1     -36.029  21.166   2.811  0.00  0.00    +0.314 C 
ATOM     11  C   UNL     1     -36.950  24.254   2.050  0.00  0.00    +0.018 C 
ATOM     12  C   UNL     1     -38.799  24.001  -0.073  0.00  0.00    +0.096 C 
ATOM     13  C   UNL     1     -38.500  25.254   0.466  0.00  0.00    +0.045 C 
ATOM     14  C   UNL     1     -37.583  25.378   1.504  0.00  0.00    +0.006 C 
ATOM     15  C   UNL     1     -37.758  18.686  -0.237  0.00  0.00    +0.408 C 
ATOM     16  H   UNL     1     -36.579  22.734   4.003  0.00  0.00    +0.151 HD
ATOM     17  H   UNL     1     -36.593  19.152   1.362  0.00  0.00    +0.162 HD
ENDROOT
BRANCH  13  18
ATOM     18  S   UNL     1     -39.309  26.716  -0.189  0.00  0.00    +0.084 S 
ATOM     19  O   UNL     1     -38.798  27.878   0.618  0.00  0.00    -0.247 OA
BRANCH  18  20
ATOM     20  C   UNL     1     -40.920  26.303   0.525  0.00  0.00    +0.060 C 
ATOM     21  C   UNL     1     -41.925  25.768  -0.282  0.00  0.00    +0.009 C 
ATOM     22  C   UNL     1     -41.158  26.520   1.882  0.00  0.00    +0.009 C 
ATOM     23  C   UNL     1     -43.166  25.450   0.268  0.00  0.00    +0.001 C 
ATOM     24  C   UNL     1     -42.400  26.203   2.432  0.00  0.00    +0.001 C 
ATOM     25  C   UNL     1     -43.404  25.667   1.624  0.00  0.00    +0.000 C 
ENDBRANCH  18  20
ENDBRANCH  13  18
BRANCH  15  26
ATOM     26  O   UNL     1     -37.265  17.425  -0.029  0.00  0.00    -0.430 OA
ATOM     27  C   UNL     1     -38.108  16.342  -0.440  0.00  0.00    +0.257 C 
ENDBRANCH  15  26
BRANCH   4  28
ATOM     28  C   UNL     1     -35.304  21.502   5.143  0.00  0.00    +0.091 C 
BRANCH  28  29
ATOM     29  C   UNL     1     -34.999  22.674   6.072  0.00  0.00    +0.021 C 
BRANCH  29  30
ATOM     30  C   UNL     1     -35.608  23.988   5.579  0.00  0.00    +0.002 C 
ATOM     31  C   UNL     1     -34.538  25.046   5.354  0.00  0.00    +0.000 C 
ENDBRANCH  29  30
ENDBRANCH  28  29
ENDBRANCH   4  28
TORSDOF 6
ENDMDL
MODEL 9
REMARK VINA RESULT:      -5.8      5.610      7.769
REMARK  Name = 194137
REMARK  6 active torsions:
REMARK  status: ('A' for Active; 'I' for Inactive)
REMARK    1  A    between atoms: N_4  and  C_28
REMARK    2  A    between atoms: C_13  and  S_18
REMARK    3  A    between atoms: C_15  and  O_26
REMARK    4  A    between atoms: S_18  and  C_20
REMARK    5  A    between atoms: C_28  and  C_29
REMARK    6  A    between atoms: C_29  and  C_30
REMARK                            x       y       z     vdW  Elec       q    Type
REMARK                         _______ _______ _______ _____ _____    ______ ____
ROOT
ATOM      1  O   UNL     1     -32.833  30.065   3.795  0.00  0.00    -0.252 OA
ATOM      2  O   UNL     1     -37.050  30.229   1.127  0.00  0.00    -0.226 OA
ATOM      3  N   UNL     1     -33.930  28.139   3.325  0.00  0.00    -0.182 N 
ATOM      4  N   UNL     1     -31.663  28.040   3.806  0.00  0.00    -0.288 N 
ATOM      5  N   UNL     1     -35.925  27.869   2.320  0.00  0.00    -0.375 NA
ATOM      6  N   UNL     1     -35.003  30.043   2.265  0.00  0.00    -0.212 N 
ATOM      7  C   UNL     1     -34.331  26.828   3.579  0.00  0.00    +0.089 C 
ATOM      8  C   UNL     1     -35.552  26.695   2.911  0.00  0.00    +0.131 C 
ATOM      9  C   UNL     1     -34.970  28.715   2.617  0.00  0.00    +0.257 C 
ATOM     10  C   UNL     1     -32.771  28.848   3.685  0.00  0.00    +0.314 C 
ATOM     11  C   UNL     1     -33.806  25.772   4.340  0.00  0.00    +0.018 C 
ATOM     12  C   UNL     1     -36.239  25.466   2.935  0.00  0.00    +0.096 C 
ATOM     13  C   UNL     1     -35.697  24.403   3.660  0.00  0.00    +0.045 C 
ATOM     14  C   UNL     1     -34.504  24.558   4.359  0.00  0.00    +0.006 C 
ATOM     15  C   UNL     1     -36.009  30.704   1.562  0.00  0.00    +0.408 C 
ATOM     16  H   UNL     1     -31.765  27.067   3.691  0.00  0.00    +0.151 HD
ATOM     17  H   UNL     1     -34.230  30.589   2.540  0.00  0.00    +0.162 HD
ENDROOT
BRANCH  13  18
ATOM     18  S   UNL     1     -36.548  22.823   3.687  0.00  0.00    +0.084 S 
ATOM     19  O   UNL     1     -36.201  22.180   5.002  0.00  0.00    -0.247 OA
BRANCH  18  20
ATOM     20  C   UNL     1     -35.448  22.063   2.469  0.00  0.00    +0.060 C 
ATOM     21  C   UNL     1     -34.921  22.829   1.429  0.00  0.00    +0.009 C 
ATOM     22  C   UNL     1     -35.126  20.709   2.569  0.00  0.00    +0.009 C 
ATOM     23  C   UNL     1     -34.074  22.242   0.489  0.00  0.00    +0.001 C 
ATOM     24  C   UNL     1     -34.279  20.122   1.629  0.00  0.00    +0.001 C 
ATOM     25  C   UNL     1     -33.753  20.889   0.589  0.00  0.00    +0.000 C 
ENDBRANCH  18  20
ENDBRANCH  13  18
BRANCH  15  26
ATOM     26  O   UNL     1     -35.664  32.021   1.415  0.00  0.00    -0.430 OA
ATOM     27  C   UNL     1     -34.269  32.291   1.233  0.00  0.00    +0.257 C 
ENDBRANCH  15  26
BRANCH   4  28
ATOM     28  C   UNL     1     -30.355  28.580   4.097  0.00  0.00    +0.091 C 
BRANCH  28  29
ATOM     29  C   UNL     1     -29.985  28.445   5.571  0.00  0.00    +0.021 C 
BRANCH  29  30
ATOM     30  C   UNL     1     -30.270  29.720   6.368  0.00  0.00    +0.002 C 
ATOM     31  C   UNL     1     -31.587  29.621   7.121  0.00  0.00    +0.000 C 
ENDBRANCH  29  30
ENDBRANCH  28  29
ENDBRANCH   4  28
TORSDOF 6
ENDMDL
