MODEL 1
REMARK VINA RESULT:      -6.1      0.000      0.000
REMARK  Name = 5486715
REMARK  13 active torsions:
REMARK  status: ('A' for Active; 'I' for Inactive)
REMARK    1  A    between atoms: C_1  and  C_4
REMARK    2  A    between atoms: C_1  and  N_12
REMARK    3  A    between atoms: C_1  and  C_27
REMARK    4  A    between atoms: N_3  and  C_6
REMARK    5  A    between atoms: C_6  and  C_7
REMARK    6  A    between atoms: C_7  and  C_9
REMARK    7  A    between atoms: C_9  and  O_10
REMARK    8  A    between atoms: N_12  and  CA_15
REMARK    9  A    between atoms: CA_15  and  C_17
REMARK   10  A    between atoms: CA_15  and  CB_20
REMARK   11  A    between atoms: C_17  and  O_18
REMARK   12  A    between atoms: CB_20  and  CG_21
REMARK   13  A    between atoms: C_27  and  C_28
REMARK                            x       y       z     vdW  Elec       q    Type
REMARK                         _______ _______ _______ _____ _____    ______ ____
ROOT
ATOM      1  C   UNK A   0     -35.625  20.498   2.518  0.00  0.00    +0.022 C 
ENDROOT
BRANCH   1   4
ATOM      2  O   UNK A   0     -36.830  22.540   3.017  0.00  0.00    -0.277 OA
ATOM      3  N   UNK A   0     -35.441  21.644   4.645  0.00  0.00    -0.305 N 
ATOM      4  C   UNK A   0     -36.049  21.668   3.399  0.00  0.00    +0.203 C 
ATOM      5  H   UNK A   0     -34.829  20.905   4.862  0.00  0.00    +0.149 HD
BRANCH   3   6
ATOM      6  C   UNK A   0     -35.678  22.669   5.635  0.00  0.00    +0.101 C 
BRANCH   6   7
ATOM      7  C   UNK A   0     -34.923  23.954   5.320  0.00  0.00    +0.131 C 
BRANCH   7   9
ATOM      8  O   UNK A   0     -35.487  26.312   5.562  0.00  0.00    -0.250 OA
ATOM      9  C   UNK A   0     -35.822  25.171   5.278  0.00  0.00    +0.316 C 
BRANCH   9  10
ATOM     10  O   UNK A   0     -37.077  24.847   4.871  0.00  0.00    -0.480 OA
ATOM     11  H   UNK A   0     -37.485  25.333   4.180  0.00  0.00    +0.295 HD
ENDBRANCH   9  10
ENDBRANCH   7   9
ENDBRANCH   6   7
ENDBRANCH   3   6
ENDBRANCH   1   4
BRANCH   1  12
ATOM     12  N   PHE A   1     -36.852  19.821   2.095  0.00  0.00    +0.399 N 
ATOM     13  H1  PHE A   1     -37.645  20.220   2.598  0.00  0.00    -0.083 HD
ATOM     14  H2  PHE A   1     -36.765  18.827   2.303  0.00  0.00    -0.083 HD
BRANCH  12  15
ATOM     15  CA  PHE A   1     -37.062  19.984   0.666  0.00  0.00    +0.045 C 
BRANCH  15  17
ATOM     16  OXT PHE A   1     -38.664  21.369  -0.539  0.00  0.00    -0.253 OA
ATOM     17  C   PHE A   1     -38.312  20.833   0.504  0.00  0.00    +0.294 C 
BRANCH  17  18
ATOM     18  O   PHE A   1     -39.036  20.910   1.650  0.00  0.00    -0.482 OA
ATOM     19  H   PHE A   1     -38.730  20.485   2.427  0.00  0.00    +0.295 HD
ENDBRANCH  17  18
ENDBRANCH  15  17
BRANCH  15  20
ATOM     20  CB  PHE A   1     -37.210  18.606   0.002  0.00  0.00    +0.016 C 
BRANCH  20  21
ATOM     21  CG  PHE A   1     -35.996  18.209  -0.806  0.00  0.00    -0.024 C 
ATOM     22  CD1 PHE A   1     -35.519  19.071  -1.780  0.00  0.00    -0.004 C 
ATOM     23  CD2 PHE A   1     -35.383  16.993  -0.557  0.00  0.00    -0.004 C 
ATOM     24  CE1 PHE A   1     -34.399  18.705  -2.526  0.00  0.00    -0.000 C 
ATOM     25  CE2 PHE A   1     -34.263  16.626  -1.303  0.00  0.00    -0.000 C 
ATOM     26  CZ  PHE A   1     -33.771  17.483  -2.288  0.00  0.00    -0.000 C 
ENDBRANCH  20  21
ENDBRANCH  15  20
ENDBRANCH  12  15
ENDBRANCH   1  12
BRANCH   1  27
ATOM     27  C   UNK A   0     -34.851  20.995   1.287  0.00  0.00    +0.014 C 
BRANCH  27  28
ATOM     28  C   UNK A   0     -33.610  20.182   1.008  0.00  0.00    -0.024 C 
ATOM     29  C   UNK A   0     -32.658  20.675   0.131  0.00  0.00    -0.004 C 
ATOM     30  C   UNK A   0     -33.447  18.956   1.634  0.00  0.00    -0.004 C 
ATOM     31  C   UNK A   0     -31.511  19.923  -0.127  0.00  0.00    -0.000 C 
ATOM     32  C   UNK A   0     -32.301  18.204   1.376  0.00  0.00    -0.000 C 
ATOM     33  C   UNK A   0     -31.333  18.688   0.496  0.00  0.00    -0.000 C 
ENDBRANCH  27  28
ENDBRANCH   1  27
TORSDOF 13
ENDMDL
MODEL 2
REMARK VINA RESULT:      -6.0      2.496      6.110
REMARK  Name = 5486715
REMARK  13 active torsions:
REMARK  status: ('A' for Active; 'I' for Inactive)
REMARK    1  A    between atoms: C_1  and  C_4
REMARK    2  A    between atoms: C_1  and  N_12
REMARK    3  A    between atoms: C_1  and  C_27
REMARK    4  A    between atoms: N_3  and  C_6
REMARK    5  A    between atoms: C_6  and  C_7
REMARK    6  A    between atoms: C_7  and  C_9
REMARK    7  A    between atoms: C_9  and  O_10
REMARK    8  A    between atoms: N_12  and  CA_15
REMARK    9  A    between atoms: CA_15  and  C_17
REMARK   10  A    between atoms: CA_15  and  CB_20
REMARK   11  A    between atoms: C_17  and  O_18
REMARK   12  A    between atoms: CB_20  and  CG_21
REMARK   13  A    between atoms: C_27  and  C_28
REMARK                            x       y       z     vdW  Elec       q    Type
REMARK                         _______ _______ _______ _____ _____    ______ ____
ROOT
ATOM      1  C   UNK A   0     -36.148  22.135   2.279  0.00  0.00    +0.022 C 
ENDROOT
BRANCH   1   4
ATOM      2  O   UNK A   0     -37.896  22.036   0.604  0.00  0.00    -0.277 OA
ATOM      3  N   UNK A   0     -37.289  24.107   1.453  0.00  0.00    -0.305 N 
ATOM      4  C   UNK A   0     -37.210  22.726   1.358  0.00  0.00    +0.203 C 
ATOM      5  H   UNK A   0     -36.699  24.576   2.086  0.00  0.00    +0.149 HD
BRANCH   3   6
ATOM      6  C   UNK A   0     -38.210  24.880   0.653  0.00  0.00    +0.101 C 
BRANCH   6   7
ATOM      7  C   UNK A   0     -39.374  25.416   1.477  0.00  0.00    +0.131 C 
BRANCH   7   9
ATOM      8  O   UNK A   0     -39.505  24.518   3.739  0.00  0.00    -0.250 OA
ATOM      9  C   UNK A   0     -39.109  25.380   2.967  0.00  0.00    +0.316 C 
BRANCH   9  10
ATOM     10  O   UNK A   0     -38.353  26.438   3.362  0.00  0.00    -0.480 OA
ATOM     11  H   UNK A   0     -37.421  26.352   3.421  0.00  0.00    +0.295 HD
ENDBRANCH   9  10
ENDBRANCH   7   9
ENDBRANCH   6   7
ENDBRANCH   3   6
ENDBRANCH   1   4
BRANCH   1  12
ATOM     12  N   PHE A   1     -36.666  22.241   3.644  0.00  0.00    +0.399 N 
ATOM     13  H1  PHE A   1     -36.932  21.313   3.974  0.00  0.00    -0.083 HD
ATOM     14  H2  PHE A   1     -37.475  22.861   3.640  0.00  0.00    -0.083 HD
BRANCH  12  15
ATOM     15  CA  PHE A   1     -35.658  22.793   4.534  0.00  0.00    +0.045 C 
BRANCH  15  17
ATOM     16  OXT PHE A   1     -35.916  22.118   6.861  0.00  0.00    -0.253 OA
ATOM     17  C   PHE A   1     -35.561  21.849   5.720  0.00  0.00    +0.294 C 
BRANCH  17  18
ATOM     18  O   PHE A   1     -35.061  20.634   5.374  0.00  0.00    -0.482 OA
ATOM     19  H   PHE A   1     -34.392  20.237   5.895  0.00  0.00    +0.295 HD
ENDBRANCH  17  18
ENDBRANCH  15  17
BRANCH  15  20
ATOM     20  CB  PHE A   1     -36.064  24.213   4.960  0.00  0.00    +0.016 C 
BRANCH  20  21
ATOM     21  CG  PHE A   1     -34.973  25.232   4.719  0.00  0.00    -0.024 C 
ATOM     22  CD1 PHE A   1     -34.440  25.922   5.795  0.00  0.00    -0.004 C 
ATOM     23  CD2 PHE A   1     -34.528  25.455   3.426  0.00  0.00    -0.004 C 
ATOM     24  CE1 PHE A   1     -33.434  26.863   5.572  0.00  0.00    -0.000 C 
ATOM     25  CE2 PHE A   1     -33.523  26.396   3.203  0.00  0.00    -0.000 C 
ATOM     26  CZ  PHE A   1     -32.976  27.100   4.276  0.00  0.00    -0.000 C 
ENDBRANCH  20  21
ENDBRANCH  15  20
ENDBRANCH  12  15
ENDBRANCH   1  12
BRANCH   1  27
ATOM     27  C   UNK A   0     -35.883  20.663   1.932  0.00  0.00    +0.014 C 
BRANCH  27  28
ATOM     28  C   UNK A   0     -34.518  20.439   1.327  0.00  0.00    -0.024 C 
ATOM     29  C   UNK A   0     -33.953  21.431   0.541  0.00  0.00    -0.004 C 
ATOM     30  C   UNK A   0     -33.857  19.246   1.567  0.00  0.00    -0.004 C 
ATOM     31  C   UNK A   0     -32.692  21.224  -0.018  0.00  0.00    -0.000 C 
ATOM     32  C   UNK A   0     -32.596  19.039   1.007  0.00  0.00    -0.000 C 
ATOM     33  C   UNK A   0     -32.013  20.028   0.215  0.00  0.00    -0.000 C 
ENDBRANCH  27  28
ENDBRANCH   1  27
TORSDOF 13
ENDMDL
MODEL 3
REMARK VINA RESULT:      -5.8      2.345      3.294
REMARK  Name = 5486715
REMARK  13 active torsions:
REMARK  status: ('A' for Active; 'I' for Inactive)
REMARK    1  A    between atoms: C_1  and  C_4
REMARK    2  A    between atoms: C_1  and  N_12
REMARK    3  A    between atoms: C_1  and  C_27
REMARK    4  A    between atoms: N_3  and  C_6
REMARK    5  A    between atoms: C_6  and  C_7
REMARK    6  A    between atoms: C_7  and  C_9
REMARK    7  A    between atoms: C_9  and  O_10
REMARK    8  A    between atoms: N_12  and  CA_15
REMARK    9  A    between atoms: CA_15  and  C_17
REMARK   10  A    between atoms: CA_15  and  CB_20
REMARK   11  A    between atoms: C_17  and  O_18
REMARK   12  A    between atoms: CB_20  and  CG_21
REMARK   13  A    between atoms: C_27  and  C_28
REMARK                            x       y       z     vdW  Elec       q    Type
REMARK                         _______ _______ _______ _____ _____    ______ ____
ROOT
ATOM      1  C   UNK A   0     -36.189  22.290   3.487  0.00  0.00    +0.022 C 
ENDROOT
BRANCH   1   4
ATOM      2  O   UNK A   0     -36.093  22.590   5.889  0.00  0.00    -0.277 OA
ATOM      3  N   UNK A   0     -34.739  23.915   4.551  0.00  0.00    -0.305 N 
ATOM      4  C   UNK A   0     -35.681  22.923   4.778  0.00  0.00    +0.203 C 
ATOM      5  H   UNK A   0     -34.470  24.113   3.625  0.00  0.00    +0.149 HD
BRANCH   3   6
ATOM      6  C   UNK A   0     -34.140  24.666   5.629  0.00  0.00    +0.101 C 
BRANCH   6   7
ATOM      7  C   UNK A   0     -34.234  26.169   5.401  0.00  0.00    +0.131 C 
BRANCH   7   9
ATOM      8  O   UNK A   0     -35.334  26.797   3.319  0.00  0.00    -0.250 OA
ATOM      9  C   UNK A   0     -35.398  26.560   4.517  0.00  0.00    +0.316 C 
BRANCH   9  10
ATOM     10  O   UNK A   0     -36.558  26.614   5.221  0.00  0.00    -0.480 OA
ATOM     11  H   UNK A   0     -37.201  25.939   5.118  0.00  0.00    +0.295 HD
ENDBRANCH   9  10
ENDBRANCH   7   9
ENDBRANCH   6   7
ENDBRANCH   3   6
ENDBRANCH   1   4
BRANCH   1  12
ATOM     12  N   PHE A   1     -37.591  22.685   3.346  0.00  0.00    +0.399 N 
ATOM     13  H1  PHE A   1     -37.884  23.186   4.185  0.00  0.00    -0.083 HD
ATOM     14  H2  PHE A   1     -38.156  21.845   3.221  0.00  0.00    -0.083 HD
BRANCH  12  15
ATOM     15  CA  PHE A   1     -37.769  23.546   2.188  0.00  0.00    +0.045 C 
BRANCH  15  17
ATOM     16  OXT PHE A   1     -38.395  25.895   2.038  0.00  0.00    -0.253 OA
ATOM     17  C   PHE A   1     -38.272  24.880   2.712  0.00  0.00    +0.294 C 
BRANCH  17  18
ATOM     18  O   PHE A   1     -38.612  24.825   4.026  0.00  0.00    -0.482 OA
ATOM     19  H   PHE A   1     -38.589  25.601   4.549  0.00  0.00    +0.295 HD
ENDBRANCH  17  18
ENDBRANCH  15  17
BRANCH  15  20
ATOM     20  CB  PHE A   1     -38.762  22.900   1.209  0.00  0.00    +0.016 C 
BRANCH  20  21
ATOM     21  CG  PHE A   1     -38.095  21.952   0.237  0.00  0.00    -0.024 C 
ATOM     22  CD1 PHE A   1     -37.413  22.467  -0.853  0.00  0.00    -0.004 C 
ATOM     23  CD2 PHE A   1     -38.178  20.587   0.457  0.00  0.00    -0.004 C 
ATOM     24  CE1 PHE A   1     -36.799  21.593  -1.749  0.00  0.00    -0.000 C 
ATOM     25  CE2 PHE A   1     -37.564  19.712  -0.439  0.00  0.00    -0.000 C 
ATOM     26  CZ  PHE A   1     -36.874  20.215  -1.542  0.00  0.00    -0.000 C 
ENDBRANCH  20  21
ENDBRANCH  15  20
ENDBRANCH  12  15
ENDBRANCH   1  12
BRANCH   1  27
ATOM     27  C   UNK A   0     -35.381  22.791   2.280  0.00  0.00    +0.014 C 
BRANCH  27  28
ATOM     28  C   UNK A   0     -34.674  21.677   1.545  0.00  0.00    -0.024 C 
ATOM     29  C   UNK A   0     -33.900  21.979   0.437  0.00  0.00    -0.004 C 
ATOM     30  C   UNK A   0     -34.815  20.373   1.993  0.00  0.00    -0.004 C 
ATOM     31  C   UNK A   0     -33.248  20.949  -0.241  0.00  0.00    -0.000 C 
ATOM     32  C   UNK A   0     -34.162  19.344   1.315  0.00  0.00    -0.000 C 
ATOM     33  C   UNK A   0     -33.378  19.632   0.197  0.00  0.00    -0.000 C 
ENDBRANCH  27  28
ENDBRANCH   1  27
TORSDOF 13
ENDMDL
MODEL 4
REMARK VINA RESULT:      -5.8      1.364      1.759
REMARK  Name = 5486715
REMARK  13 active torsions:
REMARK  status: ('A' for Active; 'I' for Inactive)
REMARK    1  A    between atoms: C_1  and  C_4
REMARK    2  A    between atoms: C_1  and  N_12
REMARK    3  A    between atoms: C_1  and  C_27
REMARK    4  A    between atoms: N_3  and  C_6
REMARK    5  A    between atoms: C_6  and  C_7
REMARK    6  A    between atoms: C_7  and  C_9
REMARK    7  A    between atoms: C_9  and  O_10
REMARK    8  A    between atoms: N_12  and  CA_15
REMARK    9  A    between atoms: CA_15  and  C_17
REMARK   10  A    between atoms: CA_15  and  CB_20
REMARK   11  A    between atoms: C_17  and  O_18
REMARK   12  A    between atoms: CB_20  and  CG_21
REMARK   13  A    between atoms: C_27  and  C_28
REMARK                            x       y       z     vdW  Elec       q    Type
REMARK                         _______ _______ _______ _____ _____    ______ ____
ROOT
ATOM      1  C   UNK A   0     -35.804  20.797   2.789  0.00  0.00    +0.022 C 
ENDROOT
BRANCH   1   4
ATOM      2  O   UNK A   0     -35.068  20.883   5.095  0.00  0.00    -0.277 OA
ATOM      3  N   UNK A   0     -35.882  22.823   4.117  0.00  0.00    -0.305 N 
ATOM      4  C   UNK A   0     -35.530  21.481   4.124  0.00  0.00    +0.203 C 
ATOM      5  H   UNK A   0     -36.245  23.216   3.291  0.00  0.00    +0.149 HD
BRANCH   3   6
ATOM      6  C   UNK A   0     -35.732  23.661   5.284  0.00  0.00    +0.101 C 
BRANCH   6   7
ATOM      7  C   UNK A   0     -36.199  25.088   5.027  0.00  0.00    +0.131 C 
BRANCH   7   9
ATOM      8  O   UNK A   0     -36.769  25.554   2.704  0.00  0.00    -0.250 OA
ATOM      9  C   UNK A   0     -37.110  25.203   3.825  0.00  0.00    +0.316 C 
BRANCH   9  10
ATOM     10  O   UNK A   0     -38.387  24.857   4.136  0.00  0.00    -0.480 OA
ATOM     11  H   UNK A   0     -38.556  24.314   4.882  0.00  0.00    +0.295 HD
ENDBRANCH   9  10
ENDBRANCH   7   9
ENDBRANCH   6   7
ENDBRANCH   3   6
ENDBRANCH   1   4
BRANCH   1  12
ATOM     12  N   PHE A   1     -37.238  20.933   2.531  0.00  0.00    +0.399 N 
ATOM     13  H1  PHE A   1     -37.646  21.555   3.229  0.00  0.00    -0.083 HD
ATOM     14  H2  PHE A   1     -37.669  20.011   2.584  0.00  0.00    -0.083 HD
BRANCH  12  15
ATOM     15  CA  PHE A   1     -37.472  21.483   1.206  0.00  0.00    +0.045 C 
BRANCH  15  17
ATOM     16  OXT PHE A   1     -39.313  22.759   2.163  0.00  0.00    -0.253 OA
ATOM     17  C   PHE A   1     -38.365  22.698   1.390  0.00  0.00    +0.294 C 
BRANCH  17  18
ATOM     18  O   PHE A   1     -37.977  23.747   0.619  0.00  0.00    -0.482 OA
ATOM     19  H   PHE A   1     -38.351  24.594   0.758  0.00  0.00    +0.295 HD
ENDBRANCH  17  18
ENDBRANCH  15  17
BRANCH  15  20
ATOM     20  CB  PHE A   1     -38.124  20.419   0.309  0.00  0.00    +0.016 C 
BRANCH  20  21
ATOM     21  CG  PHE A   1     -37.112  19.577  -0.435  0.00  0.00    -0.024 C 
ATOM     22  CD1 PHE A   1     -36.414  20.135  -1.494  0.00  0.00    -0.004 C 
ATOM     23  CD2 PHE A   1     -36.901  18.266  -0.042  0.00  0.00    -0.004 C 
ATOM     24  CE1 PHE A   1     -35.480  19.358  -2.180  0.00  0.00    -0.000 C 
ATOM     25  CE2 PHE A   1     -35.967  17.489  -0.728  0.00  0.00    -0.000 C 
ATOM     26  CZ  PHE A   1     -35.257  18.035  -1.797  0.00  0.00    -0.000 C 
ENDBRANCH  20  21
ENDBRANCH  15  20
ENDBRANCH  12  15
ENDBRANCH   1  12
BRANCH   1  27
ATOM     27  C   UNK A   0     -35.004  21.465   1.660  0.00  0.00    +0.014 C 
BRANCH  27  28
ATOM     28  C   UNK A   0     -33.908  20.580   1.117  0.00  0.00    -0.024 C 
ATOM     29  C   UNK A   0     -33.064  21.071   0.134  0.00  0.00    -0.004 C 
ATOM     30  C   UNK A   0     -33.767  19.293   1.610  0.00  0.00    -0.004 C 
ATOM     31  C   UNK A   0     -32.051  20.253  -0.368  0.00  0.00    -0.000 C 
ATOM     32  C   UNK A   0     -32.755  18.475   1.108  0.00  0.00    -0.000 C 
ATOM     33  C   UNK A   0     -31.896  18.955   0.119  0.00  0.00    -0.000 C 
ENDBRANCH  27  28
ENDBRANCH   1  27
TORSDOF 13
ENDMDL
MODEL 5
REMARK VINA RESULT:      -5.6      3.193      7.302
REMARK  Name = 5486715
REMARK  13 active torsions:
REMARK  status: ('A' for Active; 'I' for Inactive)
REMARK    1  A    between atoms: C_1  and  C_4
REMARK    2  A    between atoms: C_1  and  N_12
REMARK    3  A    between atoms: C_1  and  C_27
REMARK    4  A    between atoms: N_3  and  C_6
REMARK    5  A    between atoms: C_6  and  C_7
REMARK    6  A    between atoms: C_7  and  C_9
REMARK    7  A    between atoms: C_9  and  O_10
REMARK    8  A    between atoms: N_12  and  CA_15
REMARK    9  A    between atoms: CA_15  and  C_17
REMARK   10  A    between atoms: CA_15  and  CB_20
REMARK   11  A    between atoms: C_17  and  O_18
REMARK   12  A    between atoms: CB_20  and  CG_21
REMARK   13  A    between atoms: C_27  and  C_28
REMARK                            x       y       z     vdW  Elec       q    Type
REMARK                         _______ _______ _______ _____ _____    ______ ____
ROOT
ATOM      1  C   UNK A   0     -38.056  22.954   2.002  0.00  0.00    +0.022 C 
ENDROOT
BRANCH   1   4
ATOM      2  O   UNK A   0     -40.320  22.344   1.395  0.00  0.00    -0.277 OA
ATOM      3  N   UNK A   0     -38.562  21.157   0.457  0.00  0.00    -0.305 N 
ATOM      4  C   UNK A   0     -39.113  22.143   1.262  0.00  0.00    +0.203 C 
ATOM      5  H   UNK A   0     -37.582  21.071   0.413  0.00  0.00    +0.149 HD
BRANCH   3   6
ATOM      6  C   UNK A   0     -39.379  20.253  -0.318  0.00  0.00    +0.101 C 
BRANCH   6   7
ATOM      7  C   UNK A   0     -38.539  19.267  -1.120  0.00  0.00    +0.131 C 
BRANCH   7   9
ATOM      8  O   UNK A   0     -36.130  19.522  -0.855  0.00  0.00    -0.250 OA
ATOM      9  C   UNK A   0     -37.182  19.008  -0.503  0.00  0.00    +0.316 C 
BRANCH   9  10
ATOM     10  O   UNK A   0     -37.266  18.121   0.523  0.00  0.00    -0.480 OA
ATOM     11  H   UNK A   0     -37.037  17.222   0.385  0.00  0.00    +0.295 HD
ENDBRANCH   9  10
ENDBRANCH   7   9
ENDBRANCH   6   7
ENDBRANCH   3   6
ENDBRANCH   1   4
BRANCH   1  12
ATOM     12  N   PHE A   1     -37.544  22.100   3.075  0.00  0.00    +0.399 N 
ATOM     13  H1  PHE A   1     -37.950  21.169   2.985  0.00  0.00    -0.083 HD
ATOM     14  H2  PHE A   1     -37.799  22.512   3.972  0.00  0.00    -0.083 HD
BRANCH  12  15
ATOM     15  CA  PHE A   1     -36.095  21.998   3.003  0.00  0.00    +0.045 C 
BRANCH  15  17
ATOM     16  OXT PHE A   1     -34.684  20.164   2.241  0.00  0.00    -0.253 OA
ATOM     17  C   PHE A   1     -35.779  20.563   2.618  0.00  0.00    +0.294 C 
BRANCH  17  18
ATOM     18  O   PHE A   1     -36.848  19.739   2.770  0.00  0.00    -0.482 OA
ATOM     19  H   PHE A   1     -37.245  19.637   3.612  0.00  0.00    +0.295 HD
ENDBRANCH  17  18
ENDBRANCH  15  17
BRANCH  15  20
ATOM     20  CB  PHE A   1     -35.480  22.380   4.359  0.00  0.00    +0.016 C 
BRANCH  20  21
ATOM     21  CG  PHE A   1     -35.246  23.867   4.500  0.00  0.00    -0.024 C 
ATOM     22  CD1 PHE A   1     -36.170  24.636   5.189  0.00  0.00    -0.004 C 
ATOM     23  CD2 PHE A   1     -34.113  24.431   3.938  0.00  0.00    -0.004 C 
ATOM     24  CE1 PHE A   1     -35.954  26.008   5.318  0.00  0.00    -0.000 C 
ATOM     25  CE2 PHE A   1     -33.897  25.803   4.067  0.00  0.00    -0.000 C 
ATOM     26  CZ  PHE A   1     -34.818  26.591   4.757  0.00  0.00    -0.000 C 
ENDBRANCH  20  21
ENDBRANCH  15  20
ENDBRANCH  12  15
ENDBRANCH   1  12
BRANCH   1  27
ATOM     27  C   UNK A   0     -36.911  23.350   1.058  0.00  0.00    +0.014 C 
BRANCH  27  28
ATOM     28  C   UNK A   0     -36.564  24.817   1.140  0.00  0.00    -0.024 C 
ATOM     29  C   UNK A   0     -35.393  25.272   0.558  0.00  0.00    -0.004 C 
ATOM     30  C   UNK A   0     -37.424  25.681   1.799  0.00  0.00    -0.004 C 
ATOM     31  C   UNK A   0     -35.072  26.627   0.635  0.00  0.00    -0.000 C 
ATOM     32  C   UNK A   0     -37.104  27.037   1.877  0.00  0.00    -0.000 C 
ATOM     33  C   UNK A   0     -35.928  27.510   1.294  0.00  0.00    -0.000 C 
ENDBRANCH  27  28
ENDBRANCH   1  27
TORSDOF 13
ENDMDL
MODEL 6
REMARK VINA RESULT:      -5.6      2.144      4.411
REMARK  Name = 5486715
REMARK  13 active torsions:
REMARK  status: ('A' for Active; 'I' for Inactive)
REMARK    1  A    between atoms: C_1  and  C_4
REMARK    2  A    between atoms: C_1  and  N_12
REMARK    3  A    between atoms: C_1  and  C_27
REMARK    4  A    between atoms: N_3  and  C_6
REMARK    5  A    between atoms: C_6  and  C_7
REMARK    6  A    between atoms: C_7  and  C_9
REMARK    7  A    between atoms: C_9  and  O_10
REMARK    8  A    between atoms: N_12  and  CA_15
REMARK    9  A    between atoms: CA_15  and  C_17
REMARK   10  A    between atoms: CA_15  and  CB_20
REMARK   11  A    between atoms: C_17  and  O_18
REMARK   12  A    between atoms: CB_20  and  CG_21
REMARK   13  A    between atoms: C_27  and  C_28
REMARK                            x       y       z     vdW  Elec       q    Type
REMARK                         _______ _______ _______ _____ _____    ______ ____
ROOT
ATOM      1  C   UNK A   0     -36.766  21.872   1.610  0.00  0.00    +0.022 C 
ENDROOT
BRANCH   1   4
ATOM      2  O   UNK A   0     -39.064  21.118   1.746  0.00  0.00    -0.277 OA
ATOM      3  N   UNK A   0     -38.652  23.391   1.533  0.00  0.00    -0.305 N 
ATOM      4  C   UNK A   0     -38.278  22.060   1.647  0.00  0.00    +0.203 C 
ATOM      5  H   UNK A   0     -37.951  24.078   1.459  0.00  0.00    +0.149 HD
BRANCH   3   6
ATOM      6  C   UNK A   0     -40.037  23.801   1.520  0.00  0.00    +0.101 C 
BRANCH   6   7
ATOM      7  C   UNK A   0     -40.258  25.098   2.287  0.00  0.00    +0.131 C 
BRANCH   7   9
ATOM      8  O   UNK A   0     -38.284  26.517   2.453  0.00  0.00    -0.250 OA
ATOM      9  C   UNK A   0     -38.991  25.634   2.917  0.00  0.00    +0.316 C 
BRANCH   9  10
ATOM     10  O   UNK A   0     -38.721  25.013   4.095  0.00  0.00    -0.480 OA
ATOM     11  H   UNK A   0     -38.335  24.158   4.096  0.00  0.00    +0.295 HD
ENDBRANCH   9  10
ENDBRANCH   7   9
ENDBRANCH   6   7
ENDBRANCH   3   6
ENDBRANCH   1   4
BRANCH   1  12
ATOM     12  N   PHE A   1     -36.401  21.662   0.208  0.00  0.00    +0.399 N 
ATOM     13  H1  PHE A   1     -35.740  22.385  -0.078  0.00  0.00    -0.083 HD
ATOM     14  H2  PHE A   1     -37.245  21.710  -0.361  0.00  0.00    -0.083 HD
BRANCH  12  15
ATOM     15  CA  PHE A   1     -35.788  20.356   0.027  0.00  0.00    +0.045 C 
BRANCH  15  17
ATOM     16  OXT PHE A   1     -37.521  19.255  -1.284  0.00  0.00    -0.253 OA
ATOM     17  C   PHE A   1     -36.921  19.375  -0.224  0.00  0.00    +0.294 C 
BRANCH  17  18
ATOM     18  O   PHE A   1     -37.184  18.601   0.861  0.00  0.00    -0.482 OA
ATOM     19  H   PHE A   1     -37.015  18.928   1.722  0.00  0.00    +0.295 HD
ENDBRANCH  17  18
ENDBRANCH  15  17
BRANCH  15  20
ATOM     20  CB  PHE A   1     -34.972  19.987   1.276  0.00  0.00    +0.016 C 
BRANCH  20  21
ATOM     21  CG  PHE A   1     -33.543  19.613   0.955  0.00  0.00    -0.024 C 
ATOM     22  CD1 PHE A   1     -32.764  20.486   0.214  0.00  0.00    -0.004 C 
ATOM     23  CD2 PHE A   1     -33.041  18.405   1.409  0.00  0.00    -0.004 C 
ATOM     24  CE1 PHE A   1     -31.445  20.140  -0.083  0.00  0.00    -0.000 C 
ATOM     25  CE2 PHE A   1     -31.723  18.059   1.112  0.00  0.00    -0.000 C 
ATOM     26  CZ  PHE A   1     -30.925  18.927   0.366  0.00  0.00    -0.000 C 
ENDBRANCH  20  21
ENDBRANCH  15  20
ENDBRANCH  12  15
ENDBRANCH   1  12
BRANCH   1  27
ATOM     27  C   UNK A   0     -36.048  23.114   2.157  0.00  0.00    +0.014 C 
BRANCH  27  28
ATOM     28  C   UNK A   0     -35.704  22.994   3.622  0.00  0.00    -0.024 C 
ATOM     29  C   UNK A   0     -35.547  21.737   4.183  0.00  0.00    -0.004 C 
ATOM     30  C   UNK A   0     -35.552  24.145   4.380  0.00  0.00    -0.004 C 
ATOM     31  C   UNK A   0     -35.229  21.627   5.536  0.00  0.00    -0.000 C 
ATOM     32  C   UNK A   0     -35.234  24.034   5.734  0.00  0.00    -0.000 C 
ATOM     33  C   UNK A   0     -35.073  22.775   6.312  0.00  0.00    -0.000 C 
ENDBRANCH  27  28
ENDBRANCH   1  27
TORSDOF 13
ENDMDL
MODEL 7
REMARK VINA RESULT:      -5.6      1.849      2.558
REMARK  Name = 5486715
REMARK  13 active torsions:
REMARK  status: ('A' for Active; 'I' for Inactive)
REMARK    1  A    between atoms: C_1  and  C_4
REMARK    2  A    between atoms: C_1  and  N_12
REMARK    3  A    between atoms: C_1  and  C_27
REMARK    4  A    between atoms: N_3  and  C_6
REMARK    5  A    between atoms: C_6  and  C_7
REMARK    6  A    between atoms: C_7  and  C_9
REMARK    7  A    between atoms: C_9  and  O_10
REMARK    8  A    between atoms: N_12  and  CA_15
REMARK    9  A    between atoms: CA_15  and  C_17
REMARK   10  A    between atoms: CA_15  and  CB_20
REMARK   11  A    between atoms: C_17  and  O_18
REMARK   12  A    between atoms: CB_20  and  CG_21
REMARK   13  A    between atoms: C_27  and  C_28
REMARK                            x       y       z     vdW  Elec       q    Type
REMARK                         _______ _______ _______ _____ _____    ______ ____
ROOT
ATOM      1  C   UNK A   0     -35.554  20.227   2.078  0.00  0.00    +0.022 C 
ENDROOT
BRANCH   1   4
ATOM      2  O   UNK A   0     -35.508  21.627   4.055  0.00  0.00    -0.277 OA
ATOM      3  N   UNK A   0     -36.879  22.246   2.289  0.00  0.00    -0.305 N 
ATOM      4  C   UNK A   0     -35.953  21.431   2.925  0.00  0.00    +0.203 C 
ATOM      5  H   UNK A   0     -37.178  22.009   1.382  0.00  0.00    +0.149 HD
BRANCH   3   6
ATOM      6  C   UNK A   0     -37.416  23.431   2.916  0.00  0.00    +0.101 C 
BRANCH   6   7
ATOM      7  C   UNK A   0     -38.919  23.560   2.701  0.00  0.00    +0.131 C 
BRANCH   7   9
ATOM      8  O   UNK A   0     -39.992  21.429   2.205  0.00  0.00    -0.250 OA
ATOM      9  C   UNK A   0     -39.485  22.472   1.816  0.00  0.00    +0.316 C 
BRANCH   9  10
ATOM     10  O   UNK A   0     -39.370  22.793   0.500  0.00  0.00    -0.480 OA
ATOM     11  H   UNK A   0     -39.035  23.633   0.251  0.00  0.00    +0.295 HD
ENDBRANCH   9  10
ENDBRANCH   7   9
ENDBRANCH   6   7
ENDBRANCH   3   6
ENDBRANCH   1   4
BRANCH   1  12
ATOM     12  N   PHE A   1     -36.795  19.615   1.602  0.00  0.00    +0.399 N 
ATOM     13  H1  PHE A   1     -37.574  20.247   1.790  0.00  0.00    -0.083 HD
ATOM     14  H2  PHE A   1     -36.932  18.730   2.090  0.00  0.00    -0.083 HD
BRANCH  12  15
ATOM     15  CA  PHE A   1     -36.725  19.355   0.174  0.00  0.00    +0.045 C 
BRANCH  15  17
ATOM     16  OXT PHE A   1     -37.757  21.020  -1.275  0.00  0.00    -0.253 OA
ATOM     17  C   PHE A   1     -37.879  20.112  -0.463  0.00  0.00    +0.294 C 
BRANCH  17  18
ATOM     18  O   PHE A   1     -39.088  19.644  -0.059  0.00  0.00    -0.482 OA
ATOM     19  H   PHE A   1     -39.547  20.072   0.637  0.00  0.00    +0.295 HD
ENDBRANCH  17  18
ENDBRANCH  15  17
BRANCH  15  20
ATOM     20  CB  PHE A   1     -36.815  17.843  -0.084  0.00  0.00    +0.016 C 
BRANCH  20  21
ATOM     21  CG  PHE A   1     -35.546  17.272  -0.677  0.00  0.00    -0.024 C 
ATOM     22  CD1 PHE A   1     -34.917  17.948  -1.710  0.00  0.00    -0.004 C 
ATOM     23  CD2 PHE A   1     -35.038  16.086  -0.176  0.00  0.00    -0.004 C 
ATOM     24  CE1 PHE A   1     -33.747  17.421  -2.257  0.00  0.00    -0.000 C 
ATOM     25  CE2 PHE A   1     -33.868  15.559  -0.723  0.00  0.00    -0.000 C 
ATOM     26  CZ  PHE A   1     -33.223  16.227  -1.764  0.00  0.00    -0.000 C 
ENDBRANCH  20  21
ENDBRANCH  15  20
ENDBRANCH  12  15
ENDBRANCH   1  12
BRANCH   1  27
ATOM     27  C   UNK A   0     -34.694  20.663   0.883  0.00  0.00    +0.014 C 
BRANCH  27  28
ATOM     28  C   UNK A   0     -33.397  19.895   0.784  0.00  0.00    -0.024 C 
ATOM     29  C   UNK A   0     -32.393  20.363  -0.048  0.00  0.00    -0.004 C 
ATOM     30  C   UNK A   0     -33.237  18.736   1.526  0.00  0.00    -0.004 C 
ATOM     31  C   UNK A   0     -31.196  19.653  -0.140  0.00  0.00    -0.000 C 
ATOM     32  C   UNK A   0     -32.039  18.026   1.434  0.00  0.00    -0.000 C 
ATOM     33  C   UNK A   0     -31.018  18.485   0.602  0.00  0.00    -0.000 C 
ENDBRANCH  27  28
ENDBRANCH   1  27
TORSDOF 13
ENDMDL
MODEL 8
REMARK VINA RESULT:      -5.6      1.955      4.474
REMARK  Name = 5486715
REMARK  13 active torsions:
REMARK  status: ('A' for Active; 'I' for Inactive)
REMARK    1  A    between atoms: C_1  and  C_4
REMARK    2  A    between atoms: C_1  and  N_12
REMARK    3  A    between atoms: C_1  and  C_27
REMARK    4  A    between atoms: N_3  and  C_6
REMARK    5  A    between atoms: C_6  and  C_7
REMARK    6  A    between atoms: C_7  and  C_9
REMARK    7  A    between atoms: C_9  and  O_10
REMARK    8  A    between atoms: N_12  and  CA_15
REMARK    9  A    between atoms: CA_15  and  C_17
REMARK   10  A    between atoms: CA_15  and  CB_20
REMARK   11  A    between atoms: C_17  and  O_18
REMARK   12  A    between atoms: CB_20  and  CG_21
REMARK   13  A    between atoms: C_27  and  C_28
REMARK                            x       y       z     vdW  Elec       q    Type
REMARK                         _______ _______ _______ _____ _____    ______ ____
ROOT
ATOM      1  C   UNK A   0     -36.653  19.507   0.204  0.00  0.00    +0.022 C 
ENDROOT
BRANCH   1   4
ATOM      2  O   UNK A   0     -38.736  19.838  -0.988  0.00  0.00    -0.277 OA
ATOM      3  N   UNK A   0     -37.764  21.656   0.075  0.00  0.00    -0.305 N 
ATOM      4  C   UNK A   0     -37.837  20.324  -0.302  0.00  0.00    +0.203 C 
ATOM      5  H   UNK A   0     -37.005  21.955   0.626  0.00  0.00    +0.149 HD
BRANCH   3   6
ATOM      6  C   UNK A   0     -38.767  22.620  -0.314  0.00  0.00    +0.101 C 
BRANCH   6   7
ATOM      7  C   UNK A   0     -39.594  23.097   0.872  0.00  0.00    +0.131 C 
BRANCH   7   9
ATOM      8  O   UNK A   0     -40.283  21.128   2.131  0.00  0.00    -0.250 OA
ATOM      9  C   UNK A   0     -39.581  22.124   2.031  0.00  0.00    +0.316 C 
BRANCH   9  10
ATOM     10  O   UNK A   0     -38.670  22.486   2.972  0.00  0.00    -0.480 OA
ATOM     11  H   UNK A   0     -38.804  22.249   3.869  0.00  0.00    +0.295 HD
ENDBRANCH   9  10
ENDBRANCH   7   9
ENDBRANCH   6   7
ENDBRANCH   3   6
ENDBRANCH   1   4
BRANCH   1  12
ATOM     12  N   PHE A   1     -36.632  19.651   1.660  0.00  0.00    +0.399 N 
ATOM     13  H1  PHE A   1     -36.829  18.746   2.089  0.00  0.00    -0.083 HD
ATOM     14  H2  PHE A   1     -37.339  20.332   1.932  0.00  0.00    -0.083 HD
BRANCH  12  15
ATOM     15  CA  PHE A   1     -35.332  20.120   2.111  0.00  0.00    +0.045 C 
BRANCH  15  17
ATOM     16  OXT PHE A   1     -35.931  22.393   2.752  0.00  0.00    -0.253 OA
ATOM     17  C   PHE A   1     -35.593  21.262   3.079  0.00  0.00    +0.294 C 
BRANCH  17  18
ATOM     18  O   PHE A   1     -35.446  20.884   4.375  0.00  0.00    -0.482 OA
ATOM     19  H   PHE A   1     -35.958  21.294   5.044  0.00  0.00    +0.295 HD
ENDBRANCH  17  18
ENDBRANCH  15  17
BRANCH  15  20
ATOM     20  CB  PHE A   1     -34.494  20.568   0.903  0.00  0.00    +0.016 C 
BRANCH  20  21
ATOM     21  CG  PHE A   1     -33.193  19.809   0.777  0.00  0.00    -0.024 C 
ATOM     22  CD1 PHE A   1     -32.190  20.313  -0.034  0.00  0.00    -0.004 C 
ATOM     23  CD2 PHE A   1     -33.030  18.624   1.476  0.00  0.00    -0.004 C 
ATOM     24  CE1 PHE A   1     -30.989  19.612  -0.150  0.00  0.00    -0.000 C 
ATOM     25  CE2 PHE A   1     -31.829  17.923   1.359  0.00  0.00    -0.000 C 
ATOM     26  CZ  PHE A   1     -30.809  18.417   0.546  0.00  0.00    -0.000 C 
ENDBRANCH  20  21
ENDBRANCH  15  20
ENDBRANCH  12  15
ENDBRANCH   1  12
BRANCH   1  27
ATOM     27  C   UNK A   0     -36.812  18.026  -0.173  0.00  0.00    +0.014 C 
BRANCH  27  28
ATOM     28  C   UNK A   0     -35.549  17.429  -0.746  0.00  0.00    -0.024 C 
ATOM     29  C   UNK A   0     -35.066  16.238  -0.230  0.00  0.00    -0.004 C 
ATOM     30  C   UNK A   0     -34.896  18.084  -1.778  0.00  0.00    -0.004 C 
ATOM     31  C   UNK A   0     -33.899  15.687  -0.760  0.00  0.00    -0.000 C 
ATOM     32  C   UNK A   0     -33.730  17.533  -2.308  0.00  0.00    -0.000 C 
ATOM     33  C   UNK A   0     -33.231  16.334  -1.799  0.00  0.00    -0.000 C 
ENDBRANCH  27  28
ENDBRANCH   1  27
TORSDOF 13
ENDMDL
MODEL 9
REMARK VINA RESULT:      -5.5      4.265      6.637
REMARK  Name = 5486715
REMARK  13 active torsions:
REMARK  status: ('A' for Active; 'I' for Inactive)
REMARK    1  A    between atoms: C_1  and  C_4
REMARK    2  A    between atoms: C_1  and  N_12
REMARK    3  A    between atoms: C_1  and  C_27
REMARK    4  A    between atoms: N_3  and  C_6
REMARK    5  A    between atoms: C_6  and  C_7
REMARK    6  A    between atoms: C_7  and  C_9
REMARK    7  A    between atoms: C_9  and  O_10
REMARK    8  A    between atoms: N_12  and  CA_15
REMARK    9  A    between atoms: CA_15  and  C_17
REMARK   10  A    between atoms: CA_15  and  CB_20
REMARK   11  A    between atoms: C_17  and  O_18
REMARK   12  A    between atoms: CB_20  and  CG_21
REMARK   13  A    between atoms: C_27  and  C_28
REMARK                            x       y       z     vdW  Elec       q    Type
REMARK                         _______ _______ _______ _____ _____    ______ ____
ROOT
ATOM      1  C   UNK A   0     -35.272  25.033   3.946  0.00  0.00    +0.022 C 
ENDROOT
BRANCH   1   4
ATOM      2  O   UNK A   0     -34.619  26.381   5.850  0.00  0.00    -0.277 OA
ATOM      3  N   UNK A   0     -33.590  26.772   3.808  0.00  0.00    -0.305 N 
ATOM      4  C   UNK A   0     -34.470  26.117   4.657  0.00  0.00    +0.203 C 
ATOM      5  H   UNK A   0     -33.539  26.492   2.866  0.00  0.00    +0.149 HD
BRANCH   3   6
ATOM      6  C   UNK A   0     -32.747  27.853   4.262  0.00  0.00    +0.101 C 
BRANCH   6   7
ATOM      7  C   UNK A   0     -32.988  29.136   3.477  0.00  0.00    +0.131 C 
BRANCH   7   9
ATOM      8  O   UNK A   0     -34.229  28.804   1.406  0.00  0.00    -0.250 OA
ATOM      9  C   UNK A   0     -34.219  29.069   2.599  0.00  0.00    +0.316 C 
BRANCH   9  10
ATOM     10  O   UNK A   0     -35.347  29.337   3.308  0.00  0.00    -0.480 OA
ATOM     11  H   UNK A   0     -36.017  29.877   2.935  0.00  0.00    +0.295 HD
ENDBRANCH   9  10
ENDBRANCH   7   9
ENDBRANCH   6   7
ENDBRANCH   3   6
ENDBRANCH   1   4
BRANCH   1  12
ATOM     12  N   PHE A   1     -34.655  23.753   4.297  0.00  0.00    +0.399 N 
ATOM     13  H1  PHE A   1     -34.197  23.839   5.205  0.00  0.00    -0.083 HD
ATOM     14  H2  PHE A   1     -33.973  23.510   3.579  0.00  0.00    -0.083 HD
BRANCH  12  15
ATOM     15  CA  PHE A   1     -35.656  22.702   4.366  0.00  0.00    +0.045 C 
BRANCH  15  17
ATOM     16  OXT PHE A   1     -35.433  22.421   6.775  0.00  0.00    -0.253 OA
ATOM     17  C   PHE A   1     -35.396  21.936   5.652  0.00  0.00    +0.294 C 
BRANCH  17  18
ATOM     18  O   PHE A   1     -35.147  20.620   5.428  0.00  0.00    -0.482 OA
ATOM     19  H   PHE A   1     -35.782  20.091   4.986  0.00  0.00    +0.295 HD
ENDBRANCH  17  18
ENDBRANCH  15  17
BRANCH  15  20
ATOM     20  CB  PHE A   1     -35.548  21.800   3.126  0.00  0.00    +0.016 C 
BRANCH  20  21
ATOM     21  CG  PHE A   1     -36.534  22.172   2.042  0.00  0.00    -0.024 C 
ATOM     22  CD1 PHE A   1     -36.116  22.972   0.991  0.00  0.00    -0.004 C 
ATOM     23  CD2 PHE A   1     -37.835  21.704   2.119  0.00  0.00    -0.004 C 
ATOM     24  CE1 PHE A   1     -37.027  23.316  -0.009  0.00  0.00    -0.000 C 
ATOM     25  CE2 PHE A   1     -38.745  22.047   1.120  0.00  0.00    -0.000 C 
ATOM     26  CZ  PHE A   1     -38.341  22.853   0.055  0.00  0.00    -0.000 C 
ENDBRANCH  20  21
ENDBRANCH  15  20
ENDBRANCH  12  15
ENDBRANCH   1  12
BRANCH   1  27
ATOM     27  C   UNK A   0     -36.738  25.050   4.404  0.00  0.00    +0.014 C 
BRANCH  27  28
ATOM     28  C   UNK A   0     -37.689  25.468   3.309  0.00  0.00    -0.024 C 
ATOM     29  C   UNK A   0     -38.994  25.004   3.329  0.00  0.00    -0.004 C 
ATOM     30  C   UNK A   0     -37.238  26.307   2.302  0.00  0.00    -0.004 C 
ATOM     31  C   UNK A   0     -39.872  25.390   2.316  0.00  0.00    -0.000 C 
ATOM     32  C   UNK A   0     -38.116  26.693   1.289  0.00  0.00    -0.000 C 
ATOM     33  C   UNK A   0     -39.434  26.235   1.297  0.00  0.00    -0.000 C 
ENDBRANCH  27  28
ENDBRANCH   1  27
TORSDOF 13
ENDMDL
