MODEL 1
REMARK VINA RESULT:      -6.4      0.000      0.000
REMARK  Name = 192440
REMARK  6 active torsions:
REMARK  status: ('A' for Active; 'I' for Inactive)
REMARK    1  A    between atoms: C_2  and  N_8
REMARK    2  A    between atoms: C_2  and  C_21
REMARK    3  A    between atoms: C_3  and  O_16
REMARK    4  A    between atoms: C_4  and  O_18
REMARK    5  A    between atoms: C_5  and  C_22
REMARK    6  A    between atoms: C_22  and  O_23
REMARK                            x       y       z     vdW  Elec       q    Type
REMARK                         _______ _______ _______ _____ _____    ______ ____
ROOT
ATOM      1  O   UNL     1     -35.186  22.881   3.983  0.00  0.00    -0.325 OA
ATOM      2  C   UNL     1     -36.134  23.828   3.446  0.00  0.00    +0.269 C 
ATOM      3  C   UNL     1     -36.607  24.648   4.647  0.00  0.00    +0.198 C 
ATOM      4  C   UNL     1     -35.401  24.642   5.564  0.00  0.00    +0.172 C 
ATOM      5  C   UNL     1     -34.844  23.242   5.340  0.00  0.00    +0.176 C 
ENDROOT
BRANCH   2   8
ATOM      6  O   UNL     1     -36.123  21.028   2.921  0.00  0.00    -0.252 OA
ATOM      7  O   UNL     1     -40.386  21.161   1.200  0.00  0.00    -0.270 OA
ATOM      8  N   UNL     1     -37.221  23.087   2.860  0.00  0.00    -0.209 N 
ATOM      9  N   UNL     1     -38.250  21.109   2.065  0.00  0.00    -0.236 N 
ATOM     10  C   UNL     1     -38.376  23.773   2.516  0.00  0.00    +0.072 C 
ATOM     11  C   UNL     1     -37.118  21.699   2.640  0.00  0.00    +0.316 C 
ATOM     12  C   UNL     1     -39.456  23.206   1.967  0.00  0.00    +0.047 C 
ATOM     13  C   UNL     1     -39.428  21.743   1.702  0.00  0.00    +0.250 C 
ATOM     14  C   UNL     1     -40.693  23.963   1.602  0.00  0.00    +0.037 C 
ATOM     15  H   UNL     1     -38.204  20.139   1.901  0.00  0.00    +0.159 HD
ENDBRANCH   2   8
BRANCH   3  16
ATOM     16  O   UNL     1     -37.051  25.952   4.333  0.00  0.00    -0.377 OA
ATOM     17  H   UNL     1     -37.901  25.902   3.869  0.00  0.00    +0.211 HD
ENDBRANCH   3  16
BRANCH   4  18
ATOM     18  O   UNL     1     -34.430  25.589   5.128  0.00  0.00    -0.379 OA
ATOM     19  H   UNL     1     -33.710  25.127   4.670  0.00  0.00    +0.211 HD
ENDBRANCH   4  18
BRANCH   2  21
ATOM     20  N   UNL     1     -34.950  25.253   1.580  0.00  0.00    -0.192 NA
ATOM     21  C   UNL     1     -35.472  24.624   2.403  0.00  0.00    +0.122 C 
ENDBRANCH   2  21
BRANCH   5  22
ATOM     22  C   UNL     1     -35.449  22.199   6.270  0.00  0.00    +0.169 C 
BRANCH  22  23
ATOM     23  O   UNL     1     -35.251  20.917   5.702  0.00  0.00    -0.379 OA
ATOM     24  H   UNL     1     -34.886  21.011   4.808  0.00  0.00    +0.211 HD
ENDBRANCH  22  23
ENDBRANCH   5  22
TORSDOF 6
ENDMDL
MODEL 2
REMARK VINA RESULT:      -6.0      1.391      2.213
REMARK  Name = 192440
REMARK  6 active torsions:
REMARK  status: ('A' for Active; 'I' for Inactive)
REMARK    1  A    between atoms: C_2  and  N_8
REMARK    2  A    between atoms: C_2  and  C_21
REMARK    3  A    between atoms: C_3  and  O_16
REMARK    4  A    between atoms: C_4  and  O_18
REMARK    5  A    between atoms: C_5  and  C_22
REMARK    6  A    between atoms: C_22  and  O_23
REMARK                            x       y       z     vdW  Elec       q    Type
REMARK                         _______ _______ _______ _____ _____    ______ ____
ROOT
ATOM      1  O   UNL     1     -35.392  23.338   3.695  0.00  0.00    -0.325 OA
ATOM      2  C   UNL     1     -35.985  24.634   3.466  0.00  0.00    +0.269 C 
ATOM      3  C   UNL     1     -36.058  25.293   4.844  0.00  0.00    +0.198 C 
ATOM      4  C   UNL     1     -34.870  24.700   5.572  0.00  0.00    +0.172 C 
ATOM      5  C   UNL     1     -34.853  23.275   5.035  0.00  0.00    +0.176 C 
ENDROOT
BRANCH   2   8
ATOM      6  O   UNL     1     -37.782  26.704   2.690  0.00  0.00    -0.252 OA
ATOM      7  O   UNL     1     -40.978  23.670   1.373  0.00  0.00    -0.270 OA
ATOM      8  N   UNL     1     -37.300  24.431   2.915  0.00  0.00    -0.209 N 
ATOM      9  N   UNL     1     -39.367  25.180   2.037  0.00  0.00    -0.236 N 
ATOM     10  C   UNL     1     -37.747  23.130   2.740  0.00  0.00    +0.072 C 
ATOM     11  C   UNL     1     -38.116  25.524   2.561  0.00  0.00    +0.316 C 
ATOM     12  C   UNL     1     -38.944  22.804   2.238  0.00  0.00    +0.047 C 
ATOM     13  C   UNL     1     -39.866  23.902   1.840  0.00  0.00    +0.250 C 
ATOM     14  C   UNL     1     -39.410  21.395   2.056  0.00  0.00    +0.037 C 
ATOM     15  H   UNL     1     -39.956  25.926   1.782  0.00  0.00    +0.159 HD
ENDBRANCH   2   8
BRANCH   3  16
ATOM     16  O   UNL     1     -36.040  26.706   4.824  0.00  0.00    -0.377 OA
ATOM     17  H   UNL     1     -36.803  27.033   4.323  0.00  0.00    +0.211 HD
ENDBRANCH   3  16
BRANCH   4  18
ATOM     18  O   UNL     1     -33.662  25.345   5.178  0.00  0.00    -0.379 OA
ATOM     19  H   UNL     1     -32.956  25.121   5.804  0.00  0.00    +0.211 HD
ENDBRANCH   4  18
BRANCH   2  21
ATOM     20  N   UNL     1     -34.511  25.949   1.731  0.00  0.00    -0.192 NA
ATOM     21  C   UNL     1     -35.161  25.369   2.496  0.00  0.00    +0.122 C 
ENDBRANCH   2  21
BRANCH   5  22
ATOM     22  C   UNL     1     -35.718  22.318   5.844  0.00  0.00    +0.169 C 
BRANCH  22  23
ATOM     23  O   UNL     1     -35.237  21.000   5.652  0.00  0.00    -0.379 OA
ATOM     24  H   UNL     1     -35.912  20.364   5.939  0.00  0.00    +0.211 HD
ENDBRANCH  22  23
ENDBRANCH   5  22
TORSDOF 6
ENDMDL
MODEL 3
REMARK VINA RESULT:      -6.0      2.534      4.062
REMARK  Name = 192440
REMARK  6 active torsions:
REMARK  status: ('A' for Active; 'I' for Inactive)
REMARK    1  A    between atoms: C_2  and  N_8
REMARK    2  A    between atoms: C_2  and  C_21
REMARK    3  A    between atoms: C_3  and  O_16
REMARK    4  A    between atoms: C_4  and  O_18
REMARK    5  A    between atoms: C_5  and  C_22
REMARK    6  A    between atoms: C_22  and  O_23
REMARK                            x       y       z     vdW  Elec       q    Type
REMARK                         _______ _______ _______ _____ _____    ______ ____
ROOT
ATOM      1  O   UNL     1     -34.759  26.096   1.758  0.00  0.00    -0.325 OA
ATOM      2  C   UNL     1     -35.793  25.768   2.711  0.00  0.00    +0.269 C 
ATOM      3  C   UNL     1     -35.292  26.307   4.051  0.00  0.00    +0.198 C 
ATOM      4  C   UNL     1     -34.455  27.504   3.648  0.00  0.00    +0.172 C 
ATOM      5  C   UNL     1     -33.820  27.021   2.351  0.00  0.00    +0.176 C 
ENDROOT
BRANCH   2   8
ATOM      6  O   UNL     1     -37.622  24.328   4.352  0.00  0.00    -0.252 OA
ATOM      7  O   UNL     1     -36.180  20.282   2.707  0.00  0.00    -0.270 OA
ATOM      8  N   UNL     1     -35.930  24.335   2.745  0.00  0.00    -0.209 N 
ATOM      9  N   UNL     1     -36.894  22.317   3.523  0.00  0.00    -0.236 N 
ATOM     10  C   UNL     1     -35.114  23.575   1.919  0.00  0.00    +0.072 C 
ATOM     11  C   UNL     1     -36.868  23.715   3.594  0.00  0.00    +0.316 C 
ATOM     12  C   UNL     1     -35.141  22.239   1.853  0.00  0.00    +0.047 C 
ATOM     13  C   UNL     1     -36.105  21.508   2.719  0.00  0.00    +0.250 C 
ATOM     14  C   UNL     1     -34.253  21.436   0.957  0.00  0.00    +0.037 C 
ATOM     15  H   UNL     1     -37.540  21.860   4.107  0.00  0.00    +0.159 HD
ENDBRANCH   2   8
BRANCH   3  16
ATOM     16  O   UNL     1     -36.310  26.635   4.974  0.00  0.00    -0.377 OA
ATOM     17  H   UNL     1     -36.367  27.599   5.064  0.00  0.00    +0.211 HD
ENDBRANCH   3  16
BRANCH   4  18
ATOM     18  O   UNL     1     -35.285  28.624   3.354  0.00  0.00    -0.379 OA
ATOM     19  H   UNL     1     -34.843  29.194   2.704  0.00  0.00    +0.211 HD
ENDBRANCH   4  18
BRANCH   2  21
ATOM     20  N   UNL     1     -38.058  26.836   1.910  0.00  0.00    -0.192 NA
ATOM     21  C   UNL     1     -37.059  26.365   2.263  0.00  0.00    +0.122 C 
ENDBRANCH   2  21
BRANCH   5  22
ATOM     22  C   UNL     1     -32.506  26.282   2.565  0.00  0.00    +0.169 C 
BRANCH  22  23
ATOM     23  O   UNL     1     -31.668  27.075   3.387  0.00  0.00    -0.379 OA
ATOM     24  H   UNL     1     -31.812  28.014   3.185  0.00  0.00    +0.211 HD
ENDBRANCH  22  23
ENDBRANCH   5  22
TORSDOF 6
ENDMDL
MODEL 4
REMARK VINA RESULT:      -5.6      2.965      5.073
REMARK  Name = 192440
REMARK  6 active torsions:
REMARK  status: ('A' for Active; 'I' for Inactive)
REMARK    1  A    between atoms: C_2  and  N_8
REMARK    2  A    between atoms: C_2  and  C_21
REMARK    3  A    between atoms: C_3  and  O_16
REMARK    4  A    between atoms: C_4  and  O_18
REMARK    5  A    between atoms: C_5  and  C_22
REMARK    6  A    between atoms: C_22  and  O_23
REMARK                            x       y       z     vdW  Elec       q    Type
REMARK                         _______ _______ _______ _____ _____    ______ ____
ROOT
ATOM      1  O   UNL     1     -35.383  27.166   4.044  0.00  0.00    -0.325 OA
ATOM      2  C   UNL     1     -34.201  26.351   4.191  0.00  0.00    +0.269 C 
ATOM      3  C   UNL     1     -33.263  26.794   3.068  0.00  0.00    +0.198 C 
ATOM      4  C   UNL     1     -33.620  28.254   2.879  0.00  0.00    +0.172 C 
ATOM      5  C   UNL     1     -35.125  28.241   3.114  0.00  0.00    +0.176 C 
ENDROOT
BRANCH   2   8
ATOM      6  O   UNL     1     -34.687  25.053   1.703  0.00  0.00    -0.252 OA
ATOM      7  O   UNL     1     -35.672  21.068   3.777  0.00  0.00    -0.270 OA
ATOM      8  N   UNL     1     -34.588  24.972   4.033  0.00  0.00    -0.209 N 
ATOM      9  N   UNL     1     -35.176  23.072   2.750  0.00  0.00    -0.236 N 
ATOM     10  C   UNL     1     -34.743  24.196   5.172  0.00  0.00    +0.072 C 
ATOM     11  C   UNL     1     -34.806  24.422   2.754  0.00  0.00    +0.316 C 
ATOM     12  C   UNL     1     -35.097  22.906   5.165  0.00  0.00    +0.047 C 
ATOM     13  C   UNL     1     -35.345  22.249   3.853  0.00  0.00    +0.250 C 
ATOM     14  C   UNL     1     -35.258  22.085   6.404  0.00  0.00    +0.037 C 
ATOM     15  H   UNL     1     -35.334  22.663   1.869  0.00  0.00    +0.159 HD
ENDBRANCH   2   8
BRANCH   3  16
ATOM     16  O   UNL     1     -31.889  26.595   3.332  0.00  0.00    -0.377 OA
ATOM     17  H   UNL     1     -31.401  27.409   3.136  0.00  0.00    +0.211 HD
ENDBRANCH   3  16
BRANCH   4  18
ATOM     18  O   UNL     1     -33.013  29.057   3.887  0.00  0.00    -0.379 OA
ATOM     19  H   UNL     1     -32.985  28.563   4.721  0.00  0.00    +0.211 HD
ENDBRANCH   4  18
BRANCH   2  21
ATOM     20  N   UNL     1     -33.219  26.703   6.605  0.00  0.00    -0.192 NA
ATOM     21  C   UNL     1     -33.652  26.548   5.540  0.00  0.00    +0.122 C 
ENDBRANCH   2  21
BRANCH   5  22
ATOM     22  C   UNL     1     -35.928  27.969   1.848  0.00  0.00    +0.169 C 
BRANCH  22  23
ATOM     23  O   UNL     1     -37.089  27.237   2.197  0.00  0.00    -0.379 OA
ATOM     24  H   UNL     1     -37.807  27.853   2.413  0.00  0.00    +0.211 HD
ENDBRANCH  22  23
ENDBRANCH   5  22
TORSDOF 6
ENDMDL
MODEL 5
REMARK VINA RESULT:      -5.6      2.583      5.830
REMARK  Name = 192440
REMARK  6 active torsions:
REMARK  status: ('A' for Active; 'I' for Inactive)
REMARK    1  A    between atoms: C_2  and  N_8
REMARK    2  A    between atoms: C_2  and  C_21
REMARK    3  A    between atoms: C_3  and  O_16
REMARK    4  A    between atoms: C_4  and  O_18
REMARK    5  A    between atoms: C_5  and  C_22
REMARK    6  A    between atoms: C_22  and  O_23
REMARK                            x       y       z     vdW  Elec       q    Type
REMARK                         _______ _______ _______ _____ _____    ______ ____
ROOT
ATOM      1  O   UNL     1     -35.238  23.231   2.615  0.00  0.00    -0.325 OA
ATOM      2  C   UNL     1     -35.776  24.036   3.685  0.00  0.00    +0.269 C 
ATOM      3  C   UNL     1     -37.144  24.506   3.188  0.00  0.00    +0.198 C 
ATOM      4  C   UNL     1     -37.587  23.374   2.284  0.00  0.00    +0.172 C 
ATOM      5  C   UNL     1     -36.271  22.950   1.645  0.00  0.00    +0.176 C 
ENDROOT
BRANCH   2   8
ATOM      6  O   UNL     1     -36.047  25.995   5.736  0.00  0.00    -0.252 OA
ATOM      7  O   UNL     1     -32.279  28.231   4.337  0.00  0.00    -0.270 OA
ATOM      8  N   UNL     1     -34.888  25.151   3.895  0.00  0.00    -0.209 N 
ATOM      9  N   UNL     1     -34.166  27.100   5.027  0.00  0.00    -0.236 N 
ATOM     10  C   UNL     1     -33.806  25.301   3.039  0.00  0.00    +0.072 C 
ATOM     11  C   UNL     1     -35.108  26.068   4.941  0.00  0.00    +0.316 C 
ATOM     12  C   UNL     1     -32.907  26.289   3.124  0.00  0.00    +0.047 C 
ATOM     13  C   UNL     1     -33.069  27.300   4.204  0.00  0.00    +0.250 C 
ATOM     14  C   UNL     1     -31.747  26.435   2.193  0.00  0.00    +0.037 C 
ATOM     15  H   UNL     1     -34.298  27.755   5.750  0.00  0.00    +0.159 HD
ENDBRANCH   2   8
BRANCH   3  16
ATOM     16  O   UNL     1     -38.078  24.790   4.210  0.00  0.00    -0.377 OA
ATOM     17  H   UNL     1     -38.977  24.719   3.854  0.00  0.00    +0.211 HD
ENDBRANCH   3  16
BRANCH   4  18
ATOM     18  O   UNL     1     -38.088  22.282   3.050  0.00  0.00    -0.379 OA
ATOM     19  H   UNL     1     -37.760  21.448   2.678  0.00  0.00    +0.211 HD
ENDBRANCH   4  18
BRANCH   2  21
ATOM     20  N   UNL     1     -35.877  22.585   5.875  0.00  0.00    -0.192 NA
ATOM     21  C   UNL     1     -35.832  23.225   4.909  0.00  0.00    +0.122 C 
ENDBRANCH   2  21
BRANCH   5  22
ATOM     22  C   UNL     1     -35.944  23.723   0.374  0.00  0.00    +0.169 C 
BRANCH  22  23
ATOM     23  O   UNL     1     -34.576  23.527   0.063  0.00  0.00    -0.379 OA
ATOM     24  H   UNL     1     -34.082  23.348   0.879  0.00  0.00    +0.211 HD
ENDBRANCH  22  23
ENDBRANCH   5  22
TORSDOF 6
ENDMDL
MODEL 6
REMARK VINA RESULT:      -5.4      2.602      4.224
REMARK  Name = 192440
REMARK  6 active torsions:
REMARK  status: ('A' for Active; 'I' for Inactive)
REMARK    1  A    between atoms: C_2  and  N_8
REMARK    2  A    between atoms: C_2  and  C_21
REMARK    3  A    between atoms: C_3  and  O_16
REMARK    4  A    between atoms: C_4  and  O_18
REMARK    5  A    between atoms: C_5  and  C_22
REMARK    6  A    between atoms: C_22  and  O_23
REMARK                            x       y       z     vdW  Elec       q    Type
REMARK                         _______ _______ _______ _____ _____    ______ ____
ROOT
ATOM      1  O   UNL     1     -34.540  26.160   1.852  0.00  0.00    -0.325 OA
ATOM      2  C   UNL     1     -35.501  25.812   2.871  0.00  0.00    +0.269 C 
ATOM      3  C   UNL     1     -34.983  26.465   4.153  0.00  0.00    +0.198 C 
ATOM      4  C   UNL     1     -34.263  27.697   3.643  0.00  0.00    +0.172 C 
ATOM      5  C   UNL     1     -33.651  27.187   2.346  0.00  0.00    +0.176 C 
ENDROOT
BRANCH   2   8
ATOM      6  O   UNL     1     -35.827  23.984   0.710  0.00  0.00    -0.252 OA
ATOM      7  O   UNL     1     -35.559  20.351   3.517  0.00  0.00    -0.270 OA
ATOM      8  N   UNL     1     -35.523  24.377   2.991  0.00  0.00    -0.209 N 
ATOM      9  N   UNL     1     -35.692  22.181   2.121  0.00  0.00    -0.236 N 
ATOM     10  C   UNL     1     -35.376  23.818   4.252  0.00  0.00    +0.072 C 
ATOM     11  C   UNL     1     -35.691  23.556   1.857  0.00  0.00    +0.316 C 
ATOM     12  C   UNL     1     -35.378  22.504   4.501  0.00  0.00    +0.047 C 
ATOM     13  C   UNL     1     -35.549  21.569   3.357  0.00  0.00    +0.250 C 
ATOM     14  C   UNL     1     -35.217  21.920   5.868  0.00  0.00    +0.037 C 
ATOM     15  H   UNL     1     -35.807  21.586   1.346  0.00  0.00    +0.159 HD
ENDBRANCH   2   8
BRANCH   3  16
ATOM     16  O   UNL     1     -35.982  26.769   5.106  0.00  0.00    -0.377 OA
ATOM     17  H   UNL     1     -36.854  26.730   4.684  0.00  0.00    +0.211 HD
ENDBRANCH   3  16
BRANCH   4  18
ATOM     18  O   UNL     1     -35.191  28.731   3.329  0.00  0.00    -0.379 OA
ATOM     19  H   UNL     1     -35.079  29.467   3.952  0.00  0.00    +0.211 HD
ENDBRANCH   4  18
BRANCH   2  21
ATOM     20  N   UNL     1     -37.877  26.657   2.125  0.00  0.00    -0.192 NA
ATOM     21  C   UNL     1     -36.829  26.284   2.454  0.00  0.00    +0.122 C 
ENDBRANCH   2  21
BRANCH   5  22
ATOM     22  C   UNL     1     -32.274  26.564   2.534  0.00  0.00    +0.169 C 
BRANCH  22  23
ATOM     23  O   UNL     1     -32.108  25.533   1.578  0.00  0.00    -0.379 OA
ATOM     24  H   UNL     1     -31.827  25.917   0.733  0.00  0.00    +0.211 HD
ENDBRANCH  22  23
ENDBRANCH   5  22
TORSDOF 6
ENDMDL
MODEL 7
REMARK VINA RESULT:      -5.4      2.199      5.034
REMARK  Name = 192440
REMARK  6 active torsions:
REMARK  status: ('A' for Active; 'I' for Inactive)
REMARK    1  A    between atoms: C_2  and  N_8
REMARK    2  A    between atoms: C_2  and  C_21
REMARK    3  A    between atoms: C_3  and  O_16
REMARK    4  A    between atoms: C_4  and  O_18
REMARK    5  A    between atoms: C_5  and  C_22
REMARK    6  A    between atoms: C_22  and  O_23
REMARK                            x       y       z     vdW  Elec       q    Type
REMARK                         _______ _______ _______ _____ _____    ______ ____
ROOT
ATOM      1  O   UNL     1     -37.323  22.527   3.386  0.00  0.00    -0.325 OA
ATOM      2  C   UNL     1     -37.300  23.887   2.903  0.00  0.00    +0.269 C 
ATOM      3  C   UNL     1     -36.852  23.790   1.444  0.00  0.00    +0.198 C 
ATOM      4  C   UNL     1     -37.383  22.438   1.012  0.00  0.00    +0.172 C 
ATOM      5  C   UNL     1     -37.199  21.610   2.276  0.00  0.00    +0.176 C 
ENDROOT
BRANCH   2   8
ATOM      6  O   UNL     1     -36.284  23.077   5.438  0.00  0.00    -0.252 OA
ATOM      7  O   UNL     1     -33.658  26.837   5.780  0.00  0.00    -0.270 OA
ATOM      8  N   UNL     1     -36.348  24.625   3.692  0.00  0.00    -0.209 N 
ATOM      9  N   UNL     1     -34.979  24.956   5.595  0.00  0.00    -0.236 N 
ATOM     10  C   UNL     1     -35.874  25.831   3.196  0.00  0.00    +0.072 C 
ATOM     11  C   UNL     1     -35.905  24.138   4.939  0.00  0.00    +0.316 C 
ATOM     12  C   UNL     1     -34.989  26.611   3.827  0.00  0.00    +0.047 C 
ATOM     13  C   UNL     1     -34.472  26.167   5.149  0.00  0.00    +0.250 C 
ATOM     14  C   UNL     1     -34.490  27.909   3.277  0.00  0.00    +0.037 C 
ATOM     15  H   UNL     1     -34.654  24.639   6.468  0.00  0.00    +0.159 HD
ENDBRANCH   2   8
BRANCH   3  16
ATOM     16  O   UNL     1     -37.298  24.845   0.617  0.00  0.00    -0.377 OA
ATOM     17  H   UNL     1     -38.263  24.807   0.536  0.00  0.00    +0.211 HD
ENDBRANCH   3  16
BRANCH   4  18
ATOM     18  O   UNL     1     -38.776  22.513   0.720  0.00  0.00    -0.379 OA
ATOM     19  H   UNL     1     -39.145  21.617   0.672  0.00  0.00    +0.211 HD
ENDBRANCH   4  18
BRANCH   2  21
ATOM     20  N   UNL     1     -39.688  24.942   3.217  0.00  0.00    -0.192 NA
ATOM     21  C   UNL     1     -38.635  24.477   3.079  0.00  0.00    +0.122 C 
ENDBRANCH   2  21
BRANCH   5  22
ATOM     22  C   UNL     1     -35.830  20.948   2.366  0.00  0.00    +0.169 C 
BRANCH  22  23
ATOM     23  O   UNL     1     -35.537  20.696   3.728  0.00  0.00    -0.379 OA
ATOM     24  H   UNL     1     -36.090  19.966   4.049  0.00  0.00    +0.211 HD
ENDBRANCH  22  23
ENDBRANCH   5  22
TORSDOF 6
ENDMDL
MODEL 8
REMARK VINA RESULT:      -5.4      2.655      4.381
REMARK  Name = 192440
REMARK  6 active torsions:
REMARK  status: ('A' for Active; 'I' for Inactive)
REMARK    1  A    between atoms: C_2  and  N_8
REMARK    2  A    between atoms: C_2  and  C_21
REMARK    3  A    between atoms: C_3  and  O_16
REMARK    4  A    between atoms: C_4  and  O_18
REMARK    5  A    between atoms: C_5  and  C_22
REMARK    6  A    between atoms: C_22  and  O_23
REMARK                            x       y       z     vdW  Elec       q    Type
REMARK                         _______ _______ _______ _____ _____    ______ ____
ROOT
ATOM      1  O   UNL     1     -35.617  24.326   2.244  0.00  0.00    -0.325 OA
ATOM      2  C   UNL     1     -35.938  23.020   2.769  0.00  0.00    +0.269 C 
ATOM      3  C   UNL     1     -35.547  23.073   4.247  0.00  0.00    +0.198 C 
ATOM      4  C   UNL     1     -35.765  24.529   4.607  0.00  0.00    +0.172 C 
ATOM      5  C   UNL     1     -35.332  25.236   3.330  0.00  0.00    +0.176 C 
ENDROOT
BRANCH   2   8
ATOM      6  O   UNL     1     -35.994  20.208   3.221  0.00  0.00    -0.252 OA
ATOM      7  O   UNL     1     -32.855  19.446  -0.053  0.00  0.00    -0.270 OA
ATOM      8  N   UNL     1     -35.150  22.047   2.057  0.00  0.00    -0.209 N 
ATOM      9  N   UNL     1     -34.428  19.843   1.586  0.00  0.00    -0.236 N 
ATOM     10  C   UNL     1     -34.287  22.494   1.068  0.00  0.00    +0.072 C 
ATOM     11  C   UNL     1     -35.250  20.673   2.356  0.00  0.00    +0.316 C 
ATOM     12  C   UNL     1     -33.502  21.697   0.333  0.00  0.00    +0.047 C 
ATOM     13  C   UNL     1     -33.549  20.232   0.586  0.00  0.00    +0.250 C 
ATOM     14  C   UNL     1     -32.578  22.197  -0.730  0.00  0.00    +0.037 C 
ATOM     15  H   UNL     1     -34.479  18.878   1.775  0.00  0.00    +0.159 HD
ENDBRANCH   2   8
BRANCH   3  16
ATOM     16  O   UNL     1     -36.268  22.188   5.081  0.00  0.00    -0.377 OA
ATOM     17  H   UNL     1     -35.647  21.653   5.597  0.00  0.00    +0.211 HD
ENDBRANCH   3  16
BRANCH   4  18
ATOM     18  O   UNL     1     -37.148  24.794   4.823  0.00  0.00    -0.379 OA
ATOM     19  H   UNL     1     -37.331  25.730   4.640  0.00  0.00    +0.211 HD
ENDBRANCH   4  18
BRANCH   2  21
ATOM     20  N   UNL     1     -38.490  22.540   2.356  0.00  0.00    -0.192 NA
ATOM     21  C   UNL     1     -37.364  22.752   2.538  0.00  0.00    +0.122 C 
ENDBRANCH   2  21
BRANCH   5  22
ATOM     22  C   UNL     1     -33.843  25.556   3.295  0.00  0.00    +0.169 C 
BRANCH  22  23
ATOM     23  O   UNL     1     -33.397  25.781   4.621  0.00  0.00    -0.379 OA
ATOM     24  H   UNL     1     -33.648  25.028   5.179  0.00  0.00    +0.211 HD
ENDBRANCH  22  23
ENDBRANCH   5  22
TORSDOF 6
ENDMDL
MODEL 9
REMARK VINA RESULT:      -5.4      1.753      5.075
REMARK  Name = 192440
REMARK  6 active torsions:
REMARK  status: ('A' for Active; 'I' for Inactive)
REMARK    1  A    between atoms: C_2  and  N_8
REMARK    2  A    between atoms: C_2  and  C_21
REMARK    3  A    between atoms: C_3  and  O_16
REMARK    4  A    between atoms: C_4  and  O_18
REMARK    5  A    between atoms: C_5  and  C_22
REMARK    6  A    between atoms: C_22  and  O_23
REMARK                            x       y       z     vdW  Elec       q    Type
REMARK                         _______ _______ _______ _____ _____    ______ ____
ROOT
ATOM      1  O   UNL     1     -38.124  24.376   1.715  0.00  0.00    -0.325 OA
ATOM      2  C   UNL     1     -37.932  22.945   1.729  0.00  0.00    +0.269 C 
ATOM      3  C   UNL     1     -39.318  22.355   1.991  0.00  0.00    +0.198 C 
ATOM      4  C   UNL     1     -40.249  23.371   1.360  0.00  0.00    +0.172 C 
ATOM      5  C   UNL     1     -39.536  24.681   1.667  0.00  0.00    +0.176 C 
ENDROOT
BRANCH   2   8
ATOM      6  O   UNL     1     -36.766  20.388   2.196  0.00  0.00    -0.252 OA
ATOM      7  O   UNL     1     -34.464  21.918   5.871  0.00  0.00    -0.270 OA
ATOM      8  N   UNL     1     -37.021  22.629   2.799  0.00  0.00    -0.209 N 
ATOM      9  N   UNL     1     -35.624  21.165   4.027  0.00  0.00    -0.236 N 
ATOM     10  C   UNL     1     -36.670  23.636   3.685  0.00  0.00    +0.072 C 
ATOM     11  C   UNL     1     -36.497  21.329   2.945  0.00  0.00    +0.316 C 
ATOM     12  C   UNL     1     -35.835  23.476   4.718  0.00  0.00    +0.047 C 
ATOM     13  C   UNL     1     -35.237  22.132   4.942  0.00  0.00    +0.250 C 
ATOM     14  C   UNL     1     -35.467  24.575   5.664  0.00  0.00    +0.037 C 
ATOM     15  H   UNL     1     -35.244  20.265   4.152  0.00  0.00    +0.159 HD
ENDBRANCH   2   8
BRANCH   3  16
ATOM     16  O   UNL     1     -39.509  21.048   1.487  0.00  0.00    -0.377 OA
ATOM     17  H   UNL     1     -39.387  21.052   0.525  0.00  0.00    +0.211 HD
ENDBRANCH   3  16
BRANCH   4  18
ATOM     18  O   UNL     1     -40.295  23.203  -0.054  0.00  0.00    -0.379 OA
ATOM     19  H   UNL     1     -39.542  23.662  -0.460  0.00  0.00    +0.211 HD
ENDBRANCH   4  18
BRANCH   2  21
ATOM     20  N   UNL     1     -36.872  22.206  -0.560  0.00  0.00    -0.192 NA
ATOM     21  C   UNL     1     -37.339  22.532   0.450  0.00  0.00    +0.122 C 
ENDBRANCH   2  21
BRANCH   5  22
ATOM     22  C   UNL     1     -39.932  25.280   3.010  0.00  0.00    +0.169 C 
BRANCH  22  23
ATOM     23  O   UNL     1     -39.052  26.348   3.307  0.00  0.00    -0.379 OA
ATOM     24  H   UNL     1     -39.007  26.952   2.548  0.00  0.00    +0.211 HD
ENDBRANCH  22  23
ENDBRANCH   5  22
TORSDOF 6
ENDMDL
