MODEL 1
REMARK VINA RESULT:      -6.7      0.000      0.000
REMARK  Name = 191244
REMARK  12 active torsions:
REMARK  status: ('A' for Active; 'I' for Inactive)
REMARK    1  A    between atoms: C_1  and  C_9
REMARK    2  A    between atoms: C_2  and  N_22
REMARK    3  A    between atoms: N_8  and  CA_11
REMARK    4  A    between atoms: CA_11  and  C_13
REMARK    5  A    between atoms: CA_11  and  CB_16
REMARK    6  A    between atoms: C_13  and  O_14
REMARK    7  A    between atoms: CB_16  and  CG_17
REMARK    8  A    between atoms: CG_17  and  CD_19
REMARK    9  A    between atoms: CD_19  and  OE1_20
REMARK   10  A    between atoms: N_22  and  C_24
REMARK   11  A    between atoms: C_25  and  N_32
REMARK   12  A    between atoms: C_28  and  N_35
REMARK                            x       y       z     vdW  Elec       q    Type
REMARK                         _______ _______ _______ _____ _____    ______ ____
ROOT
ATOM      1  C   UNK A   0     -36.970  20.037   0.911  0.00  0.00    +0.053 C 
ATOM      2  C   UNK A   0     -37.047  22.032   2.860  0.00  0.00    +0.048 C 
ATOM      3  C   UNK A   0     -35.898  20.195   1.791  0.00  0.00    +0.006 C 
ATOM      4  C   UNK A   0     -38.080  20.877   1.007  0.00  0.00    +0.006 C 
ATOM      5  C   UNK A   0     -35.937  21.191   2.765  0.00  0.00    +0.015 C 
ATOM      6  C   UNK A   0     -38.117  21.874   1.981  0.00  0.00    +0.015 C 
ENDROOT
BRANCH   1   9
ATOM      7  O   UNK A   0     -37.779  18.965  -1.011  0.00  0.00    -0.270 OA
ATOM      8  N   GLU A   1     -35.887  18.063  -0.021  0.00  0.00    -0.293 N 
ATOM      9  C   UNK A   0     -36.928  18.974  -0.126  0.00  0.00    +0.246 C 
ATOM     10  H   GLU A   1     -35.252  18.153   0.726  0.00  0.00    +0.150 HD
BRANCH   8  11
ATOM     11  CA  GLU A   1     -35.697  16.990  -0.964  0.00  0.00    +0.172 C 
BRANCH  11  13
ATOM     12  OXT GLU A   1     -37.407  15.319  -0.499  0.00  0.00    -0.248 OA
ATOM     13  C   GLU A   1     -36.264  15.729  -0.344  0.00  0.00    +0.332 C 
BRANCH  13  14
ATOM     14  O   GLU A   1     -35.334  15.062   0.389  0.00  0.00    -0.479 OA
ATOM     15  H   GLU A   1     -35.597  14.368   0.960  0.00  0.00    +0.295 HD
ENDBRANCH  13  14
ENDBRANCH  11  13
BRANCH  11  16
ATOM     16  CB  GLU A   1     -34.240  16.853  -1.420  0.00  0.00    +0.043 C 
BRANCH  16  17
ATOM     17  CG  GLU A   1     -33.215  17.690  -0.647  0.00  0.00    +0.112 C 
BRANCH  17  19
ATOM     18  OE2 GLU A   1     -32.199  15.709   0.340  0.00  0.00    -0.250 OA
ATOM     19  CD  GLU A   1     -32.444  16.906   0.393  0.00  0.00    +0.314 C 
BRANCH  19  20
ATOM     20  OE1 GLU A   1     -32.078  17.689   1.440  0.00  0.00    -0.480 OA
ATOM     21  HE1 GLU A   1     -31.866  18.591   1.300  0.00  0.00    +0.295 HD
ENDBRANCH  19  20
ENDBRANCH  17  19
ENDBRANCH  16  17
ENDBRANCH  11  16
ENDBRANCH   8  11
ENDBRANCH   1   9
BRANCH   2  22
ATOM     22  N   UNK A   0     -37.085  23.041   3.844  0.00  0.00    -0.311 N 
ATOM     23  H   UNK A   0     -37.930  23.069   4.348  0.00  0.00    +0.152 HD
BRANCH  22  24
ATOM     24  C   UNK A   0     -36.152  24.017   4.247  0.00  0.00    +0.071 C 
ATOM     25  C   UNK A   0     -35.245  23.763   5.277  0.00  0.00    +0.158 C 
ATOM     26  C   UNK A   0     -36.146  25.251   3.601  0.00  0.00    +0.018 C 
ATOM     27  C   UNK A   0     -34.332  24.746   5.658  0.00  0.00    +0.049 C 
ATOM     28  C   UNK A   0     -34.324  25.981   5.010  0.00  0.00    +0.145 C 
ATOM     29  C   UNK A   0     -35.232  26.234   3.982  0.00  0.00    +0.025 C 
BRANCH  25  32
ATOM     30  O   UNK A   0     -34.218  21.781   5.854  0.00  0.00    -0.126 OA
ATOM     31  O   UNK A   0     -36.232  22.179   6.631  0.00  0.00    -0.126 OA
ATOM     32  N   UNK A   0     -35.231  22.512   5.954  0.00  0.00    +0.059 N 
ENDBRANCH  25  32
BRANCH  28  35
ATOM     33  O   UNK A   0     -32.727  26.819   6.447  0.00  0.00    -0.126 OA
ATOM     34  O   UNK A   0     -33.265  28.001   4.678  0.00  0.00    -0.126 OA
ATOM     35  N   UNK A   0     -33.394  26.981   5.397  0.00  0.00    +0.058 N 
ENDBRANCH  28  35
ENDBRANCH  22  24
ENDBRANCH   2  22
TORSDOF 12
ENDMDL
MODEL 2
REMARK VINA RESULT:      -6.6      6.484      9.286
REMARK  Name = 191244
REMARK  12 active torsions:
REMARK  status: ('A' for Active; 'I' for Inactive)
REMARK    1  A    between atoms: C_1  and  C_9
REMARK    2  A    between atoms: C_2  and  N_22
REMARK    3  A    between atoms: N_8  and  CA_11
REMARK    4  A    between atoms: CA_11  and  C_13
REMARK    5  A    between atoms: CA_11  and  CB_16
REMARK    6  A    between atoms: C_13  and  O_14
REMARK    7  A    between atoms: CB_16  and  CG_17
REMARK    8  A    between atoms: CG_17  and  CD_19
REMARK    9  A    between atoms: CD_19  and  OE1_20
REMARK   10  A    between atoms: N_22  and  C_24
REMARK   11  A    between atoms: C_25  and  N_32
REMARK   12  A    between atoms: C_28  and  N_35
REMARK                            x       y       z     vdW  Elec       q    Type
REMARK                         _______ _______ _______ _____ _____    ______ ____
ROOT
ATOM      1  C   UNK A   0     -39.233  24.065   2.470  0.00  0.00    +0.053 C 
ATOM      2  C   UNK A   0     -41.567  25.564   2.167  0.00  0.00    +0.048 C 
ATOM      3  C   UNK A   0     -40.093  23.809   1.402  0.00  0.00    +0.006 C 
ATOM      4  C   UNK A   0     -39.540  25.072   3.386  0.00  0.00    +0.006 C 
ATOM      5  C   UNK A   0     -41.259  24.558   1.250  0.00  0.00    +0.015 C 
ATOM      6  C   UNK A   0     -40.707  25.820   3.235  0.00  0.00    +0.015 C 
ENDROOT
BRANCH   1   9
ATOM      7  O   UNK A   0     -37.958  22.115   2.207  0.00  0.00    -0.270 OA
ATOM      8  N   GLU A   1     -36.928  23.914   3.246  0.00  0.00    -0.293 N 
ATOM      9  C   UNK A   0     -37.991  23.267   2.631  0.00  0.00    +0.246 C 
ATOM     10  H   GLU A   1     -37.052  24.841   3.553  0.00  0.00    +0.150 HD
BRANCH   8  11
ATOM     11  CA  GLU A   1     -35.650  23.281   3.453  0.00  0.00    +0.172 C 
BRANCH  11  13
ATOM     12  OXT GLU A   1     -35.990  22.741   5.803  0.00  0.00    -0.248 OA
ATOM     13  C   GLU A   1     -35.779  22.369   4.656  0.00  0.00    +0.332 C 
BRANCH  13  14
ATOM     14  O   GLU A   1     -35.672  21.059   4.313  0.00  0.00    -0.479 OA
ATOM     15  H   GLU A   1     -34.831  20.689   4.131  0.00  0.00    +0.295 HD
ENDBRANCH  13  14
ENDBRANCH  11  13
BRANCH  11  16
ATOM     16  CB  GLU A   1     -34.501  24.290   3.563  0.00  0.00    +0.043 C 
BRANCH  16  17
ATOM     17  CG  GLU A   1     -34.910  25.744   3.828  0.00  0.00    +0.112 C 
BRANCH  17  19
ATOM     18  OE2 GLU A   1     -34.175  26.460   6.038  0.00  0.00    -0.250 OA
ATOM     19  CD  GLU A   1     -35.070  26.077   5.296  0.00  0.00    +0.314 C 
BRANCH  19  20
ATOM     20  OE1 GLU A   1     -36.341  25.860   5.722  0.00  0.00    -0.480 OA
ATOM     21  HE1 GLU A   1     -37.005  25.612   5.110  0.00  0.00    +0.295 HD
ENDBRANCH  19  20
ENDBRANCH  17  19
ENDBRANCH  16  17
ENDBRANCH  11  16
ENDBRANCH   8  11
ENDBRANCH   1   9
BRANCH   2  22
ATOM     22  N   UNK A   0     -42.747  26.321   2.015  0.00  0.00    -0.311 N 
ATOM     23  H   UNK A   0     -42.844  26.727   1.123  0.00  0.00    +0.152 HD
BRANCH  22  24
ATOM     24  C   UNK A   0     -43.814  26.610   2.887  0.00  0.00    +0.071 C 
ATOM     25  C   UNK A   0     -43.800  27.752   3.688  0.00  0.00    +0.158 C 
ATOM     26  C   UNK A   0     -44.895  25.732   2.944  0.00  0.00    +0.018 C 
ATOM     27  C   UNK A   0     -44.869  28.015   4.545  0.00  0.00    +0.049 C 
ATOM     28  C   UNK A   0     -45.952  27.137   4.601  0.00  0.00    +0.145 C 
ATOM     29  C   UNK A   0     -45.964  25.995   3.801  0.00  0.00    +0.025 C 
BRANCH  25  32
ATOM     30  O   UNK A   0     -42.415  29.212   2.562  0.00  0.00    -0.126 OA
ATOM     31  O   UNK A   0     -42.074  28.892   4.707  0.00  0.00    -0.126 OA
ATOM     32  N   UNK A   0     -42.709  28.664   3.651  0.00  0.00    +0.059 N 
ENDBRANCH  25  32
BRANCH  28  35
ATOM     33  O   UNK A   0     -48.116  26.780   5.312  0.00  0.00    -0.126 OA
ATOM     34  O   UNK A   0     -46.897  28.261   6.378  0.00  0.00    -0.126 OA
ATOM     35  N   UNK A   0     -47.040  27.405   5.472  0.00  0.00    +0.058 N 
ENDBRANCH  28  35
ENDBRANCH  22  24
ENDBRANCH   2  22
TORSDOF 12
ENDMDL
MODEL 3
REMARK VINA RESULT:      -6.5      4.416     10.473
REMARK  Name = 191244
REMARK  12 active torsions:
REMARK  status: ('A' for Active; 'I' for Inactive)
REMARK    1  A    between atoms: C_1  and  C_9
REMARK    2  A    between atoms: C_2  and  N_22
REMARK    3  A    between atoms: N_8  and  CA_11
REMARK    4  A    between atoms: CA_11  and  C_13
REMARK    5  A    between atoms: CA_11  and  CB_16
REMARK    6  A    between atoms: C_13  and  O_14
REMARK    7  A    between atoms: CB_16  and  CG_17
REMARK    8  A    between atoms: CG_17  and  CD_19
REMARK    9  A    between atoms: CD_19  and  OE1_20
REMARK   10  A    between atoms: N_22  and  C_24
REMARK   11  A    between atoms: C_25  and  N_32
REMARK   12  A    between atoms: C_28  and  N_35
REMARK                            x       y       z     vdW  Elec       q    Type
REMARK                         _______ _______ _______ _____ _____    ______ ____
ROOT
ATOM      1  C   UNK A   0     -33.764  27.058   4.504  0.00  0.00    +0.053 C 
ATOM      2  C   UNK A   0     -36.217  25.727   4.468  0.00  0.00    +0.048 C 
ATOM      3  C   UNK A   0     -34.152  26.279   5.595  0.00  0.00    +0.006 C 
ATOM      4  C   UNK A   0     -34.604  27.171   3.395  0.00  0.00    +0.006 C 
ATOM      5  C   UNK A   0     -35.377  25.613   5.576  0.00  0.00    +0.015 C 
ATOM      6  C   UNK A   0     -35.829  26.506   3.377  0.00  0.00    +0.015 C 
ENDROOT
BRANCH   1   9
ATOM      7  O   UNK A   0     -31.542  27.356   3.819  0.00  0.00    -0.270 OA
ATOM      8  N   GLU A   1     -32.386  28.883   5.346  0.00  0.00    -0.293 N 
ATOM      9  C   UNK A   0     -32.459  27.767   4.524  0.00  0.00    +0.246 C 
ATOM     10  H   GLU A   1     -33.178  29.134   5.875  0.00  0.00    +0.150 HD
BRANCH   8  11
ATOM     11  CA  GLU A   1     -31.196  29.689   5.455  0.00  0.00    +0.172 C 
BRANCH  11  13
ATOM     12  OXT GLU A   1     -29.439  29.466   7.127  0.00  0.00    -0.248 OA
ATOM     13  C   GLU A   1     -30.630  29.485   6.846  0.00  0.00    +0.332 C 
BRANCH  13  14
ATOM     14  O   GLU A   1     -31.610  29.362   7.779  0.00  0.00    -0.479 OA
ATOM     15  H   GLU A   1     -32.154  28.600   7.790  0.00  0.00    +0.295 HD
ENDBRANCH  13  14
ENDBRANCH  11  13
BRANCH  11  16
ATOM     16  CB  GLU A   1     -31.443  31.159   5.098  0.00  0.00    +0.043 C 
BRANCH  16  17
ATOM     17  CG  GLU A   1     -31.732  31.450   3.620  0.00  0.00    +0.112 C 
BRANCH  17  19
ATOM     18  OE2 GLU A   1     -34.091  30.925   3.927  0.00  0.00    -0.250 OA
ATOM     19  CD  GLU A   1     -33.206  31.464   3.277  0.00  0.00    +0.314 C 
BRANCH  19  20
ATOM     20  OE1 GLU A   1     -33.442  32.124   2.114  0.00  0.00    -0.480 OA
ATOM     21  HE1 GLU A   1     -32.747  32.582   1.685  0.00  0.00    +0.295 HD
ENDBRANCH  19  20
ENDBRANCH  17  19
ENDBRANCH  16  17
ENDBRANCH  11  16
ENDBRANCH   8  11
ENDBRANCH   1   9
BRANCH   2  22
ATOM     22  N   UNK A   0     -37.456  25.055   4.449  0.00  0.00    -0.311 N 
ATOM     23  H   UNK A   0     -37.996  25.200   5.260  0.00  0.00    +0.152 HD
BRANCH  22  24
ATOM     24  C   UNK A   0     -38.073  24.218   3.499  0.00  0.00    +0.071 C 
ATOM     25  C   UNK A   0     -37.465  23.034   3.081  0.00  0.00    +0.158 C 
ATOM     26  C   UNK A   0     -39.310  24.590   2.975  0.00  0.00    +0.018 C 
ATOM     27  C   UNK A   0     -38.096  22.222   2.138  0.00  0.00    +0.049 C 
ATOM     28  C   UNK A   0     -39.334  22.594   1.614  0.00  0.00    +0.145 C 
ATOM     29  C   UNK A   0     -39.941  23.778   2.032  0.00  0.00    +0.025 C 
BRANCH  25  32
ATOM     30  O   UNK A   0     -36.123  22.298   4.806  0.00  0.00    -0.126 OA
ATOM     31  O   UNK A   0     -35.210  22.621   2.835  0.00  0.00    -0.126 OA
ATOM     32  N   UNK A   0     -36.203  22.631   3.599  0.00  0.00    +0.059 N 
ENDBRANCH  25  32
BRANCH  28  35
ATOM     33  O   UNK A   0     -40.753  20.865   1.052  0.00  0.00    -0.126 OA
ATOM     34  O   UNK A   0     -39.752  21.962  -0.563  0.00  0.00    -0.126 OA
ATOM     35  N   UNK A   0     -39.978  21.768   0.655  0.00  0.00    +0.058 N 
ENDBRANCH  28  35
ENDBRANCH  22  24
ENDBRANCH   2  22
TORSDOF 12
ENDMDL
MODEL 4
REMARK VINA RESULT:      -6.4      3.852      7.443
REMARK  Name = 191244
REMARK  12 active torsions:
REMARK  status: ('A' for Active; 'I' for Inactive)
REMARK    1  A    between atoms: C_1  and  C_9
REMARK    2  A    between atoms: C_2  and  N_22
REMARK    3  A    between atoms: N_8  and  CA_11
REMARK    4  A    between atoms: CA_11  and  C_13
REMARK    5  A    between atoms: CA_11  and  CB_16
REMARK    6  A    between atoms: C_13  and  O_14
REMARK    7  A    between atoms: CB_16  and  CG_17
REMARK    8  A    between atoms: CG_17  and  CD_19
REMARK    9  A    between atoms: CD_19  and  OE1_20
REMARK   10  A    between atoms: N_22  and  C_24
REMARK   11  A    between atoms: C_25  and  N_32
REMARK   12  A    between atoms: C_28  and  N_35
REMARK                            x       y       z     vdW  Elec       q    Type
REMARK                         _______ _______ _______ _____ _____    ______ ____
ROOT
ATOM      1  C   UNK A   0     -35.081  24.905   4.441  0.00  0.00    +0.053 C 
ATOM      2  C   UNK A   0     -33.498  27.201   4.527  0.00  0.00    +0.048 C 
ATOM      3  C   UNK A   0     -34.919  25.684   3.295  0.00  0.00    +0.006 C 
ATOM      4  C   UNK A   0     -34.451  25.274   5.630  0.00  0.00    +0.006 C 
ATOM      5  C   UNK A   0     -34.128  26.831   3.337  0.00  0.00    +0.015 C 
ATOM      6  C   UNK A   0     -33.660  26.422   5.672  0.00  0.00    +0.015 C 
ENDROOT
BRANCH   1   9
ATOM      7  O   UNK A   0     -36.236  23.129   5.445  0.00  0.00    -0.270 OA
ATOM      8  N   GLU A   1     -36.320  23.265   3.132  0.00  0.00    -0.293 N 
ATOM      9  C   UNK A   0     -35.924  23.683   4.395  0.00  0.00    +0.246 C 
ATOM     10  H   GLU A   1     -36.016  23.776   2.347  0.00  0.00    +0.150 HD
BRANCH   8  11
ATOM     11  CA  GLU A   1     -37.158  22.111   2.925  0.00  0.00    +0.172 C 
BRANCH  11  13
ATOM     12  OXT GLU A   1     -35.277  21.211   1.667  0.00  0.00    -0.248 OA
ATOM     13  C   GLU A   1     -36.298  21.023   2.315  0.00  0.00    +0.332 C 
BRANCH  13  14
ATOM     14  O   GLU A   1     -36.769  19.782   2.606  0.00  0.00    -0.479 OA
ATOM     15  H   GLU A   1     -36.171  19.084   2.785  0.00  0.00    +0.295 HD
ENDBRANCH  13  14
ENDBRANCH  11  13
BRANCH  11  16
ATOM     16  CB  GLU A   1     -38.416  22.433   2.109  0.00  0.00    +0.043 C 
BRANCH  16  17
ATOM     17  CG  GLU A   1     -38.635  23.912   1.771  0.00  0.00    +0.112 C 
BRANCH  17  19
ATOM     18  OE2 GLU A   1     -40.751  24.975   2.340  0.00  0.00    -0.250 OA
ATOM     19  CD  GLU A   1     -39.634  24.605   2.673  0.00  0.00    +0.314 C 
BRANCH  19  20
ATOM     20  OE1 GLU A   1     -39.126  24.814   3.915  0.00  0.00    -0.480 OA
ATOM     21  HE1 GLU A   1     -39.319  25.607   4.373  0.00  0.00    +0.295 HD
ENDBRANCH  19  20
ENDBRANCH  17  19
ENDBRANCH  16  17
ENDBRANCH  11  16
ENDBRANCH   8  11
ENDBRANCH   1   9
BRANCH   2  22
ATOM     22  N   UNK A   0     -32.699  28.363   4.570  0.00  0.00    -0.311 N 
ATOM     23  H   UNK A   0     -32.988  29.064   3.944  0.00  0.00    +0.152 HD
BRANCH  22  24
ATOM     24  C   UNK A   0     -31.570  28.714   5.335  0.00  0.00    +0.071 C 
ATOM     25  C   UNK A   0     -30.278  28.497   4.853  0.00  0.00    +0.158 C 
ATOM     26  C   UNK A   0     -31.758  29.286   6.592  0.00  0.00    +0.018 C 
ATOM     27  C   UNK A   0     -29.176  28.854   5.630  0.00  0.00    +0.049 C 
ATOM     28  C   UNK A   0     -29.364  29.427   6.887  0.00  0.00    +0.145 C 
ATOM     29  C   UNK A   0     -30.655  29.643   7.369  0.00  0.00    +0.025 C 
BRANCH  25  32
ATOM     30  O   UNK A   0     -29.374  26.866   3.497  0.00  0.00    -0.126 OA
ATOM     31  O   UNK A   0     -30.554  28.465   2.564  0.00  0.00    -0.126 OA
ATOM     32  N   UNK A   0     -30.058  27.914   3.574  0.00  0.00    +0.059 N 
ENDBRANCH  25  32
BRANCH  28  35
ATOM     33  O   UNK A   0     -27.217  30.237   7.110  0.00  0.00    -0.126 OA
ATOM     34  O   UNK A   0     -28.307  29.656   8.923  0.00  0.00    -0.126 OA
ATOM     35  N   UNK A   0     -28.243  29.791   7.678  0.00  0.00    +0.058 N 
ENDBRANCH  28  35
ENDBRANCH  22  24
ENDBRANCH   2  22
TORSDOF 12
ENDMDL
MODEL 5
REMARK VINA RESULT:      -6.4      2.970     10.009
REMARK  Name = 191244
REMARK  12 active torsions:
REMARK  status: ('A' for Active; 'I' for Inactive)
REMARK    1  A    between atoms: C_1  and  C_9
REMARK    2  A    between atoms: C_2  and  N_22
REMARK    3  A    between atoms: N_8  and  CA_11
REMARK    4  A    between atoms: CA_11  and  C_13
REMARK    5  A    between atoms: CA_11  and  CB_16
REMARK    6  A    between atoms: C_13  and  O_14
REMARK    7  A    between atoms: CB_16  and  CG_17
REMARK    8  A    between atoms: CG_17  and  CD_19
REMARK    9  A    between atoms: CD_19  and  OE1_20
REMARK   10  A    between atoms: N_22  and  C_24
REMARK   11  A    between atoms: C_25  and  N_32
REMARK   12  A    between atoms: C_28  and  N_35
REMARK                            x       y       z     vdW  Elec       q    Type
REMARK                         _______ _______ _______ _____ _____    ______ ____
ROOT
ATOM      1  C   UNK A   0     -34.050  26.186   4.984  0.00  0.00    +0.053 C 
ATOM      2  C   UNK A   0     -35.872  24.208   4.237  0.00  0.00    +0.048 C 
ATOM      3  C   UNK A   0     -34.709  25.438   5.962  0.00  0.00    +0.006 C 
ATOM      4  C   UNK A   0     -34.303  25.944   3.633  0.00  0.00    +0.006 C 
ATOM      5  C   UNK A   0     -35.618  24.450   5.588  0.00  0.00    +0.015 C 
ATOM      6  C   UNK A   0     -35.213  24.955   3.261  0.00  0.00    +0.015 C 
ENDROOT
BRANCH   1   9
ATOM      7  O   UNK A   0     -32.437  27.101   6.419  0.00  0.00    -0.270 OA
ATOM      8  N   GLU A   1     -32.961  28.315   4.514  0.00  0.00    -0.293 N 
ATOM      9  C   UNK A   0     -33.081  27.239   5.383  0.00  0.00    +0.246 C 
ATOM     10  H   GLU A   1     -33.523  28.335   3.706  0.00  0.00    +0.150 HD
BRANCH   8  11
ATOM     11  CA  GLU A   1     -32.047  29.403   4.750  0.00  0.00    +0.172 C 
BRANCH  11  13
ATOM     12  OXT GLU A   1     -33.866  30.885   4.095  0.00  0.00    -0.248 OA
ATOM     13  C   GLU A   1     -32.665  30.657   4.164  0.00  0.00    +0.332 C 
BRANCH  13  14
ATOM     14  O   GLU A   1     -31.721  31.541   3.748  0.00  0.00    -0.479 OA
ATOM     15  H   GLU A   1     -31.379  32.177   4.345  0.00  0.00    +0.295 HD
ENDBRANCH  13  14
ENDBRANCH  11  13
BRANCH  11  16
ATOM     16  CB  GLU A   1     -30.634  29.112   4.231  0.00  0.00    +0.043 C 
BRANCH  16  17
ATOM     17  CG  GLU A   1     -29.513  29.165   5.277  0.00  0.00    +0.112 C 
BRANCH  17  19
ATOM     18  OE2 GLU A   1     -28.245  27.093   5.093  0.00  0.00    -0.250 OA
ATOM     19  CD  GLU A   1     -29.022  27.802   5.717  0.00  0.00    +0.314 C 
BRANCH  19  20
ATOM     20  OE1 GLU A   1     -29.585  27.424   6.893  0.00  0.00    -0.480 OA
ATOM     21  HE1 GLU A   1     -29.640  28.031   7.604  0.00  0.00    +0.295 HD
ENDBRANCH  19  20
ENDBRANCH  17  19
ENDBRANCH  16  17
ENDBRANCH  11  16
ENDBRANCH   8  11
ENDBRANCH   1   9
BRANCH   2  22
ATOM     22  N   UNK A   0     -36.793  23.209   3.860  0.00  0.00    -0.311 N 
ATOM     23  H   UNK A   0     -37.662  23.281   4.316  0.00  0.00    +0.152 HD
BRANCH  22  24
ATOM     24  C   UNK A   0     -36.712  22.130   2.958  0.00  0.00    +0.071 C 
ATOM     25  C   UNK A   0     -37.751  21.858   2.068  0.00  0.00    +0.158 C 
ATOM     26  C   UNK A   0     -35.572  21.328   2.966  0.00  0.00    +0.018 C 
ATOM     27  C   UNK A   0     -37.648  20.782   1.185  0.00  0.00    +0.049 C 
ATOM     28  C   UNK A   0     -36.507  19.980   1.192  0.00  0.00    +0.145 C 
ATOM     29  C   UNK A   0     -35.469  20.253   2.084  0.00  0.00    +0.025 C 
BRANCH  25  32
ATOM     30  O   UNK A   0     -40.044  22.099   2.136  0.00  0.00    -0.126 OA
ATOM     31  O   UNK A   0     -38.809  23.901   1.919  0.00  0.00    -0.126 OA
ATOM     32  N   UNK A   0     -38.926  22.659   2.039  0.00  0.00    +0.059 N 
ENDBRANCH  25  32
BRANCH  28  35
ATOM     33  O   UNK A   0     -35.262  18.450  -0.002  0.00  0.00    -0.126 OA
ATOM     34  O   UNK A   0     -37.448  18.387  -0.182  0.00  0.00    -0.126 OA
ATOM     35  N   UNK A   0     -36.401  18.887   0.294  0.00  0.00    +0.058 N 
ENDBRANCH  28  35
ENDBRANCH  22  24
ENDBRANCH   2  22
TORSDOF 12
ENDMDL
MODEL 6
REMARK VINA RESULT:      -6.3      1.756      2.485
REMARK  Name = 191244
REMARK  12 active torsions:
REMARK  status: ('A' for Active; 'I' for Inactive)
REMARK    1  A    between atoms: C_1  and  C_9
REMARK    2  A    between atoms: C_2  and  N_22
REMARK    3  A    between atoms: N_8  and  CA_11
REMARK    4  A    between atoms: CA_11  and  C_13
REMARK    5  A    between atoms: CA_11  and  CB_16
REMARK    6  A    between atoms: C_13  and  O_14
REMARK    7  A    between atoms: CB_16  and  CG_17
REMARK    8  A    between atoms: CG_17  and  CD_19
REMARK    9  A    between atoms: CD_19  and  OE1_20
REMARK   10  A    between atoms: N_22  and  C_24
REMARK   11  A    between atoms: C_25  and  N_32
REMARK   12  A    between atoms: C_28  and  N_35
REMARK                            x       y       z     vdW  Elec       q    Type
REMARK                         _______ _______ _______ _____ _____    ______ ____
ROOT
ATOM      1  C   UNK A   0     -37.225  20.528   1.073  0.00  0.00    +0.053 C 
ATOM      2  C   UNK A   0     -37.106  22.502   3.041  0.00  0.00    +0.048 C 
ATOM      3  C   UNK A   0     -38.300  21.399   1.254  0.00  0.00    +0.006 C 
ATOM      4  C   UNK A   0     -36.091  20.644   1.877  0.00  0.00    +0.006 C 
ATOM      5  C   UNK A   0     -38.240  22.386   2.237  0.00  0.00    +0.015 C 
ATOM      6  C   UNK A   0     -36.032  21.631   2.860  0.00  0.00    +0.015 C 
ENDROOT
BRANCH   1   9
ATOM      7  O   UNK A   0     -37.682  19.773  -1.099  0.00  0.00    -0.270 OA
ATOM      8  N   GLU A   1     -36.867  18.211   0.407  0.00  0.00    -0.293 N 
ATOM      9  C   UNK A   0     -37.290  19.477   0.025  0.00  0.00    +0.246 C 
ATOM     10  H   GLU A   1     -36.569  18.072   1.335  0.00  0.00    +0.150 HD
BRANCH   8  11
ATOM     11  CA  GLU A   1     -36.848  17.093  -0.502  0.00  0.00    +0.172 C 
BRANCH  11  13
ATOM     12  OXT GLU A   1     -38.248  15.227   0.196  0.00  0.00    -0.248 OA
ATOM     13  C   GLU A   1     -38.145  16.332  -0.321  0.00  0.00    +0.332 C 
BRANCH  13  14
ATOM     14  O   GLU A   1     -39.215  17.040  -0.767  0.00  0.00    -0.479 OA
ATOM     15  H   GLU A   1     -39.942  16.595  -1.157  0.00  0.00    +0.295 HD
ENDBRANCH  13  14
ENDBRANCH  11  13
BRANCH  11  16
ATOM     16  CB  GLU A   1     -35.595  16.224  -0.344  0.00  0.00    +0.043 C 
BRANCH  16  17
ATOM     17  CG  GLU A   1     -34.274  16.866  -0.786  0.00  0.00    +0.112 C 
BRANCH  17  19
ATOM     18  OE2 GLU A   1     -32.270  16.582   0.570  0.00  0.00    -0.250 OA
ATOM     19  CD  GLU A   1     -33.326  17.163   0.355  0.00  0.00    +0.314 C 
BRANCH  19  20
ATOM     20  OE1 GLU A   1     -33.806  18.144   1.162  0.00  0.00    -0.480 OA
ATOM     21  HE1 GLU A   1     -34.730  18.256   1.265  0.00  0.00    +0.295 HD
ENDBRANCH  19  20
ENDBRANCH  17  19
ENDBRANCH  16  17
ENDBRANCH  11  16
ENDBRANCH   8  11
ENDBRANCH   1   9
BRANCH   2  22
ATOM     22  N   UNK A   0     -37.046  23.499   4.037  0.00  0.00    -0.311 N 
ATOM     23  H   UNK A   0     -37.840  23.527   4.617  0.00  0.00    +0.152 HD
BRANCH  22  24
ATOM     24  C   UNK A   0     -36.072  24.463   4.363  0.00  0.00    +0.071 C 
ATOM     25  C   UNK A   0     -35.977  25.660   3.653  0.00  0.00    +0.158 C 
ATOM     26  C   UNK A   0     -35.193  24.204   5.413  0.00  0.00    +0.018 C 
ATOM     27  C   UNK A   0     -35.004  26.598   3.995  0.00  0.00    +0.049 C 
ATOM     28  C   UNK A   0     -34.124  26.340   5.047  0.00  0.00    +0.145 C 
ATOM     29  C   UNK A   0     -34.219  25.143   5.756  0.00  0.00    +0.025 C 
BRANCH  25  32
ATOM     30  O   UNK A   0     -36.397  26.010   1.412  0.00  0.00    -0.126 OA
ATOM     31  O   UNK A   0     -38.075  26.133   2.822  0.00  0.00    -0.126 OA
ATOM     32  N   UNK A   0     -36.861  25.949   2.575  0.00  0.00    +0.059 N 
ENDBRANCH  25  32
BRANCH  28  35
ATOM     33  O   UNK A   0     -32.336  27.031   6.328  0.00  0.00    -0.126 OA
ATOM     34  O   UNK A   0     -33.084  28.378   4.765  0.00  0.00    -0.126 OA
ATOM     35  N   UNK A   0     -33.134  27.295   5.396  0.00  0.00    +0.058 N 
ENDBRANCH  28  35
ENDBRANCH  22  24
ENDBRANCH   2  22
TORSDOF 12
ENDMDL
MODEL 7
REMARK VINA RESULT:      -6.3      1.581      2.127
REMARK  Name = 191244
REMARK  12 active torsions:
REMARK  status: ('A' for Active; 'I' for Inactive)
REMARK    1  A    between atoms: C_1  and  C_9
REMARK    2  A    between atoms: C_2  and  N_22
REMARK    3  A    between atoms: N_8  and  CA_11
REMARK    4  A    between atoms: CA_11  and  C_13
REMARK    5  A    between atoms: CA_11  and  CB_16
REMARK    6  A    between atoms: C_13  and  O_14
REMARK    7  A    between atoms: CB_16  and  CG_17
REMARK    8  A    between atoms: CG_17  and  CD_19
REMARK    9  A    between atoms: CD_19  and  OE1_20
REMARK   10  A    between atoms: N_22  and  C_24
REMARK   11  A    between atoms: C_25  and  N_32
REMARK   12  A    between atoms: C_28  and  N_35
REMARK                            x       y       z     vdW  Elec       q    Type
REMARK                         _______ _______ _______ _____ _____    ______ ____
ROOT
ATOM      1  C   UNK A   0     -36.252  19.674   0.653  0.00  0.00    +0.053 C 
ATOM      2  C   UNK A   0     -36.649  21.561   2.670  0.00  0.00    +0.048 C 
ATOM      3  C   UNK A   0     -35.270  19.875   1.624  0.00  0.00    +0.006 C 
ATOM      4  C   UNK A   0     -37.433  20.417   0.692  0.00  0.00    +0.006 C 
ATOM      5  C   UNK A   0     -35.468  20.818   2.632  0.00  0.00    +0.015 C 
ATOM      6  C   UNK A   0     -37.631  21.360   1.700  0.00  0.00    +0.015 C 
ENDROOT
BRANCH   1   9
ATOM      7  O   UNK A   0     -36.469  18.896  -1.548  0.00  0.00    -0.270 OA
ATOM      8  N   GLU A   1     -35.336  17.530  -0.056  0.00  0.00    -0.293 N 
ATOM      9  C   UNK A   0     -36.041  18.669  -0.420  0.00  0.00    +0.246 C 
ATOM     10  H   GLU A   1     -35.033  17.439   0.876  0.00  0.00    +0.150 HD
BRANCH   8  11
ATOM     11  CA  GLU A   1     -35.030  16.477  -0.990  0.00  0.00    +0.172 C 
BRANCH  11  13
ATOM     12  OXT GLU A   1     -35.570  14.102  -0.996  0.00  0.00    -0.248 OA
ATOM     13  C   GLU A   1     -35.645  15.199  -0.458  0.00  0.00    +0.332 C 
BRANCH  13  14
ATOM     14  O   GLU A   1     -36.273  15.395   0.731  0.00  0.00    -0.479 OA
ATOM     15  H   GLU A   1     -35.931  16.016   1.344  0.00  0.00    +0.295 HD
ENDBRANCH  13  14
ENDBRANCH  11  13
BRANCH  11  16
ATOM     16  CB  GLU A   1     -33.529  16.363  -1.284  0.00  0.00    +0.043 C 
BRANCH  16  17
ATOM     17  CG  GLU A   1     -32.636  16.020  -0.085  0.00  0.00    +0.112 C 
BRANCH  17  19
ATOM     18  OE2 GLU A   1     -32.318  18.339   0.592  0.00  0.00    -0.250 OA
ATOM     19  CD  GLU A   1     -31.875  17.205   0.470  0.00  0.00    +0.314 C 
BRANCH  19  20
ATOM     20  OE1 GLU A   1     -30.597  16.874   0.787  0.00  0.00    -0.480 OA
ATOM     21  HE1 GLU A   1     -30.304  15.990   0.690  0.00  0.00    +0.295 HD
ENDBRANCH  19  20
ENDBRANCH  17  19
ENDBRANCH  16  17
ENDBRANCH  11  16
ENDBRANCH   8  11
ENDBRANCH   1   9
BRANCH   2  22
ATOM     22  N   UNK A   0     -36.849  22.516   3.689  0.00  0.00    -0.311 N 
ATOM     23  H   UNK A   0     -37.700  22.406   4.171  0.00  0.00    +0.152 HD
BRANCH  22  24
ATOM     24  C   UNK A   0     -36.070  23.595   4.151  0.00  0.00    +0.071 C 
ATOM     25  C   UNK A   0     -36.521  24.910   4.032  0.00  0.00    +0.158 C 
ATOM     26  C   UNK A   0     -34.832  23.331   4.733  0.00  0.00    +0.018 C 
ATOM     27  C   UNK A   0     -35.730  25.961   4.497  0.00  0.00    +0.049 C 
ATOM     28  C   UNK A   0     -34.491  25.698   5.080  0.00  0.00    +0.145 C 
ATOM     29  C   UNK A   0     -34.041  24.383   5.198  0.00  0.00    +0.025 C 
BRANCH  25  32
ATOM     30  O   UNK A   0     -38.785  24.546   3.796  0.00  0.00    -0.126 OA
ATOM     31  O   UNK A   0     -37.848  26.119   2.585  0.00  0.00    -0.126 OA
ATOM     32  N   UNK A   0     -37.780  25.207   3.441  0.00  0.00    +0.059 N 
ENDBRANCH  25  32
BRANCH  28  35
ATOM     33  O   UNK A   0     -33.112  26.651   6.664  0.00  0.00    -0.126 OA
ATOM     34  O   UNK A   0     -33.573  27.800   4.852  0.00  0.00    -0.126 OA
ATOM     35  N   UNK A   0     -33.687  26.767   5.554  0.00  0.00    +0.058 N 
ENDBRANCH  28  35
ENDBRANCH  22  24
ENDBRANCH   2  22
TORSDOF 12
ENDMDL
MODEL 8
REMARK VINA RESULT:      -6.3      6.084      8.844
REMARK  Name = 191244
REMARK  12 active torsions:
REMARK  status: ('A' for Active; 'I' for Inactive)
REMARK    1  A    between atoms: C_1  and  C_9
REMARK    2  A    between atoms: C_2  and  N_22
REMARK    3  A    between atoms: N_8  and  CA_11
REMARK    4  A    between atoms: CA_11  and  C_13
REMARK    5  A    between atoms: CA_11  and  CB_16
REMARK    6  A    between atoms: C_13  and  O_14
REMARK    7  A    between atoms: CB_16  and  CG_17
REMARK    8  A    between atoms: CG_17  and  CD_19
REMARK    9  A    between atoms: CD_19  and  OE1_20
REMARK   10  A    between atoms: N_22  and  C_24
REMARK   11  A    between atoms: C_25  and  N_32
REMARK   12  A    between atoms: C_28  and  N_35
REMARK                            x       y       z     vdW  Elec       q    Type
REMARK                         _______ _______ _______ _____ _____    ______ ____
ROOT
ATOM      1  C   UNK A   0     -38.374  23.933   2.639  0.00  0.00    +0.053 C 
ATOM      2  C   UNK A   0     -40.829  25.155   2.125  0.00  0.00    +0.048 C 
ATOM      3  C   UNK A   0     -38.703  25.132   3.272  0.00  0.00    +0.006 C 
ATOM      4  C   UNK A   0     -39.274  23.345   1.750  0.00  0.00    +0.006 C 
ATOM      5  C   UNK A   0     -39.930  25.743   3.016  0.00  0.00    +0.015 C 
ATOM      6  C   UNK A   0     -40.501  23.956   1.493  0.00  0.00    +0.015 C 
ENDROOT
BRANCH   1   9
ATOM      7  O   UNK A   0     -36.524  22.630   2.027  0.00  0.00    -0.270 OA
ATOM      8  N   GLU A   1     -36.539  23.490   4.180  0.00  0.00    -0.293 N 
ATOM      9  C   UNK A   0     -37.067  23.283   2.913  0.00  0.00    +0.246 C 
ATOM     10  H   GLU A   1     -37.051  24.030   4.824  0.00  0.00    +0.150 HD
BRANCH   8  11
ATOM     11  CA  GLU A   1     -35.269  22.945   4.589  0.00  0.00    +0.172 C 
BRANCH  11  13
ATOM     12  OXT GLU A   1     -36.067  22.121   6.737  0.00  0.00    -0.248 OA
ATOM     13  C   GLU A   1     -35.539  21.903   5.655  0.00  0.00    +0.332 C 
BRANCH  13  14
ATOM     14  O   GLU A   1     -35.159  20.661   5.256  0.00  0.00    -0.479 OA
ATOM     15  H   GLU A   1     -35.309  20.386   4.373  0.00  0.00    +0.295 HD
ENDBRANCH  13  14
ENDBRANCH  11  13
BRANCH  11  16
ATOM     16  CB  GLU A   1     -34.273  24.028   5.022  0.00  0.00    +0.043 C 
BRANCH  16  17
ATOM     17  CG  GLU A   1     -34.128  25.223   4.073  0.00  0.00    +0.112 C 
BRANCH  17  19
ATOM     18  OE2 GLU A   1     -33.708  27.395   5.092  0.00  0.00    -0.250 OA
ATOM     19  CD  GLU A   1     -34.500  26.550   4.698  0.00  0.00    +0.314 C 
BRANCH  19  20
ATOM     20  OE1 GLU A   1     -35.846  26.687   4.815  0.00  0.00    -0.480 OA
ATOM     21  HE1 GLU A   1     -36.335  27.111   4.137  0.00  0.00    +0.295 HD
ENDBRANCH  19  20
ENDBRANCH  17  19
ENDBRANCH  16  17
ENDBRANCH  11  16
ENDBRANCH   8  11
ENDBRANCH   1   9
BRANCH   2  22
ATOM     22  N   UNK A   0     -42.070  25.774   1.864  0.00  0.00    -0.311 N 
ATOM     23  H   UNK A   0     -42.584  25.339   1.146  0.00  0.00    +0.152 HD
BRANCH  22  24
ATOM     24  C   UNK A   0     -42.716  26.890   2.430  0.00  0.00    +0.071 C 
ATOM     25  C   UNK A   0     -42.690  28.133   1.798  0.00  0.00    +0.158 C 
ATOM     26  C   UNK A   0     -43.388  26.737   3.641  0.00  0.00    +0.018 C 
ATOM     27  C   UNK A   0     -43.338  29.224   2.379  0.00  0.00    +0.049 C 
ATOM     28  C   UNK A   0     -44.011  29.071   3.591  0.00  0.00    +0.145 C 
ATOM     29  C   UNK A   0     -44.036  27.828   4.223  0.00  0.00    +0.025 C 
BRANCH  25  32
ATOM     30  O   UNK A   0     -40.786  28.586   0.578  0.00  0.00    -0.126 OA
ATOM     31  O   UNK A   0     -42.656  28.204  -0.506  0.00  0.00    -0.126 OA
ATOM     32  N   UNK A   0     -42.010  28.317   0.561  0.00  0.00    +0.059 N 
ENDBRANCH  25  32
BRANCH  28  35
ATOM     33  O   UNK A   0     -44.023  31.234   4.390  0.00  0.00    -0.126 OA
ATOM     34  O   UNK A   0     -45.885  30.076   4.482  0.00  0.00    -0.126 OA
ATOM     35  N   UNK A   0     -44.671  30.180   4.182  0.00  0.00    +0.058 N 
ENDBRANCH  28  35
ENDBRANCH  22  24
ENDBRANCH   2  22
TORSDOF 12
ENDMDL
MODEL 9
REMARK VINA RESULT:      -6.2      5.001     10.555
REMARK  Name = 191244
REMARK  12 active torsions:
REMARK  status: ('A' for Active; 'I' for Inactive)
REMARK    1  A    between atoms: C_1  and  C_9
REMARK    2  A    between atoms: C_2  and  N_22
REMARK    3  A    between atoms: N_8  and  CA_11
REMARK    4  A    between atoms: CA_11  and  C_13
REMARK    5  A    between atoms: CA_11  and  CB_16
REMARK    6  A    between atoms: C_13  and  O_14
REMARK    7  A    between atoms: CB_16  and  CG_17
REMARK    8  A    between atoms: CG_17  and  CD_19
REMARK    9  A    between atoms: CD_19  and  OE1_20
REMARK   10  A    between atoms: N_22  and  C_24
REMARK   11  A    between atoms: C_25  and  N_32
REMARK   12  A    between atoms: C_28  and  N_35
REMARK                            x       y       z     vdW  Elec       q    Type
REMARK                         _______ _______ _______ _____ _____    ______ ____
ROOT
ATOM      1  C   UNK A   0     -34.395  26.692   4.129  0.00  0.00    +0.053 C 
ATOM      2  C   UNK A   0     -36.917  25.515   3.933  0.00  0.00    +0.048 C 
ATOM      3  C   UNK A   0     -35.133  26.815   2.951  0.00  0.00    +0.006 C 
ATOM      4  C   UNK A   0     -34.919  25.980   5.209  0.00  0.00    +0.006 C 
ATOM      5  C   UNK A   0     -36.394  26.228   2.853  0.00  0.00    +0.015 C 
ATOM      6  C   UNK A   0     -36.180  25.393   5.110  0.00  0.00    +0.015 C 
ENDROOT
BRANCH   1   9
ATOM      7  O   UNK A   0     -32.101  26.798   3.659  0.00  0.00    -0.270 OA
ATOM      8  N   GLU A   1     -32.984  28.490   4.975  0.00  0.00    -0.293 N 
ATOM      9  C   UNK A   0     -33.052  27.319   4.233  0.00  0.00    +0.246 C 
ATOM     10  H   GLU A   1     -33.805  28.831   5.399  0.00  0.00    +0.150 HD
BRANCH   8  11
ATOM     11  CA  GLU A   1     -31.758  29.228   5.148  0.00  0.00    +0.172 C 
BRANCH  11  13
ATOM     12  OXT GLU A   1     -31.499  29.674   7.528  0.00  0.00    -0.248 OA
ATOM     13  C   GLU A   1     -31.262  28.969   6.556  0.00  0.00    +0.332 C 
BRANCH  13  14
ATOM     14  O   GLU A   1     -30.541  27.821   6.636  0.00  0.00    -0.479 OA
ATOM     15  H   GLU A   1     -30.279  27.376   5.855  0.00  0.00    +0.295 HD
ENDBRANCH  13  14
ENDBRANCH  11  13
BRANCH  11  16
ATOM     16  CB  GLU A   1     -31.910  30.716   4.810  0.00  0.00    +0.043 C 
BRANCH  16  17
ATOM     17  CG  GLU A   1     -32.331  31.036   3.371  0.00  0.00    +0.112 C 
BRANCH  17  19
ATOM     18  OE2 GLU A   1     -34.718  30.698   3.721  0.00  0.00    -0.250 OA
ATOM     19  CD  GLU A   1     -33.806  31.340   3.218  0.00  0.00    +0.314 C 
BRANCH  19  20
ATOM     20  OE1 GLU A   1     -34.015  32.408   2.406  0.00  0.00    -0.480 OA
ATOM     21  HE1 GLU A   1     -34.751  32.421   1.828  0.00  0.00    +0.295 HD
ENDBRANCH  19  20
ENDBRANCH  17  19
ENDBRANCH  16  17
ENDBRANCH  11  16
ENDBRANCH   8  11
ENDBRANCH   1   9
BRANCH   2  22
ATOM     22  N   UNK A   0     -38.192  24.919   3.834  0.00  0.00    -0.311 N 
ATOM     23  H   UNK A   0     -38.789  25.138   4.585  0.00  0.00    +0.152 HD
BRANCH  22  24
ATOM     24  C   UNK A   0     -38.777  24.074   2.871  0.00  0.00    +0.071 C 
ATOM     25  C   UNK A   0     -39.871  24.494   2.114  0.00  0.00    +0.158 C 
ATOM     26  C   UNK A   0     -38.246  22.799   2.682  0.00  0.00    +0.018 C 
ATOM     27  C   UNK A   0     -40.433  23.637   1.167  0.00  0.00    +0.049 C 
ATOM     28  C   UNK A   0     -39.901  22.361   0.977  0.00  0.00    +0.145 C 
ATOM     29  C   UNK A   0     -38.808  21.942   1.735  0.00  0.00    +0.025 C 
BRANCH  25  32
ATOM     30  O   UNK A   0     -39.756  26.792   1.957  0.00  0.00    -0.126 OA
ATOM     31  O   UNK A   0     -41.587  25.889   2.765  0.00  0.00    -0.126 OA
ATOM     32  N   UNK A   0     -40.433  25.789   2.288  0.00  0.00    +0.059 N 
ENDBRANCH  25  32
BRANCH  28  35
ATOM     33  O   UNK A   0     -41.479  20.812   0.327  0.00  0.00    -0.126 OA
ATOM     34  O   UNK A   0     -39.952  21.420  -1.126  0.00  0.00    -0.126 OA
ATOM     35  N   UNK A   0     -40.472  21.490   0.013  0.00  0.00    +0.058 N 
ENDBRANCH  28  35
ENDBRANCH  22  24
ENDBRANCH   2  22
TORSDOF 12
ENDMDL
