MODEL 1
REMARK VINA RESULT:      -7.1      0.000      0.000
REMARK  Name = 56953621
REMARK  3 active torsions:
REMARK  status: ('A' for Active; 'I' for Inactive)
REMARK    1  A    between atoms: C_10  and  O_26
REMARK    2  A    between atoms: C_12  and  O_24
REMARK    3  A    between atoms: C_20  and  O_28
REMARK                            x       y       z     vdW  Elec       q    Type
REMARK                         _______ _______ _______ _____ _____    ______ ____
ROOT
ATOM      1  O   UNL     1     -36.070  24.674   2.066  0.00  0.00    -0.451 OA
ATOM      2  O   UNL     1     -39.202  27.333   0.619  0.00  0.00    -0.417 OA
ATOM      3  O   UNL     1     -37.144  22.019   2.378  0.00  0.00    -0.418 OA
ATOM      4  O   UNL     1     -41.334  26.502   0.278  0.00  0.00    -0.245 OA
ATOM      5  O   UNL     1     -35.393  20.948   3.386  0.00  0.00    -0.244 OA
ATOM      6  C   UNL     1     -38.207  25.409   1.346  0.00  0.00    +0.094 A 
ATOM      7  C   UNL     1     -37.385  24.403   1.823  0.00  0.00    +0.182 A 
ATOM      8  C   UNL     1     -39.537  25.147   1.077  0.00  0.00    +0.114 A 
ATOM      9  C   UNL     1     -37.931  23.132   1.992  0.00  0.00    +0.182 A 
ATOM     10  C   UNL     1     -37.918  26.832   1.065  0.00  0.00    +0.315 C 
ATOM     11  C   UNL     1     -39.281  22.868   1.700  0.00  0.00    +0.050 A 
ATOM     12  C   UNL     1     -40.105  23.895   1.242  0.00  0.00    +0.144 A 
ATOM     13  C   UNL     1     -35.707  24.472   3.373  0.00  0.00    +0.150 C 
ATOM     14  C   UNL     1     -35.697  23.206   3.960  0.00  0.00    +0.106 C 
ATOM     15  C   UNL     1     -40.173  26.368   0.609  0.00  0.00    +0.346 C 
ATOM     16  C   UNL     1     -35.292  25.591   4.099  0.00  0.00    +0.047 C 
ATOM     17  C   UNL     1     -35.280  23.067   5.290  0.00  0.00    -0.010 C 
ATOM     18  C   UNL     1     -39.834  21.491   1.877  0.00  0.00    +0.038 C 
ATOM     19  C   UNL     1     -36.032  21.979   3.215  0.00  0.00    +0.348 C 
ATOM     20  C   UNL     1     -34.888  25.449   5.426  0.00  0.00    +0.137 C 
ATOM     21  C   UNL     1     -34.886  24.189   6.021  0.00  0.00    +0.033 C 
ATOM     22  C   UNL     1     -35.258  26.944   3.463  0.00  0.00    +0.037 C 
ATOM     23  C   UNL     1     -35.266  21.752   6.001  0.00  0.00    +0.031 C 
ENDROOT
BRANCH  12  24
ATOM     24  O   UNL     1     -41.414  23.671   0.959  0.00  0.00    -0.471 OA
ATOM     25  C   UNL     1     -41.732  23.257  -0.371  0.00  0.00    +0.252 C 
ENDBRANCH  12  24
BRANCH  10  26
ATOM     26  O   UNL     1     -36.932  26.947   0.054  0.00  0.00    -0.347 OA
ATOM     27  H   UNL     1     -36.585  27.853   0.042  0.00  0.00    +0.214 HD
ENDBRANCH  10  26
BRANCH  20  28
ATOM     28  O   UNL     1     -34.487  26.529   6.154  0.00  0.00    -0.472 OA
ATOM     29  C   UNL     1     -33.099  26.623   6.463  0.00  0.00    +0.252 C 
ENDBRANCH  20  28
TORSDOF 3
ENDMDL
MODEL 2
REMARK VINA RESULT:      -6.8      2.553      5.202
REMARK  Name = 56953621
REMARK  3 active torsions:
REMARK  status: ('A' for Active; 'I' for Inactive)
REMARK    1  A    between atoms: C_10  and  O_26
REMARK    2  A    between atoms: C_12  and  O_24
REMARK    3  A    between atoms: C_20  and  O_28
REMARK                            x       y       z     vdW  Elec       q    Type
REMARK                         _______ _______ _______ _____ _____    ______ ____
ROOT
ATOM      1  O   UNL     1     -36.036  25.396   3.981  0.00  0.00    -0.451 OA
ATOM      2  O   UNL     1     -35.208  21.122   4.151  0.00  0.00    -0.417 OA
ATOM      3  O   UNL     1     -36.864  26.100   1.313  0.00  0.00    -0.418 OA
ATOM      4  O   UNL     1     -35.430  19.843   2.236  0.00  0.00    -0.245 OA
ATOM      5  O   UNL     1     -36.952  28.380   1.463  0.00  0.00    -0.244 OA
ATOM      6  C   UNL     1     -35.789  23.148   3.267  0.00  0.00    +0.094 A 
ATOM      7  C   UNL     1     -36.079  24.470   2.980  0.00  0.00    +0.182 A 
ATOM      8  C   UNL     1     -35.846  22.194   2.268  0.00  0.00    +0.114 A 
ATOM      9  C   UNL     1     -36.452  24.793   1.676  0.00  0.00    +0.182 A 
ATOM     10  C   UNL     1     -35.376  22.509   4.535  0.00  0.00    +0.315 C 
ATOM     11  C   UNL     1     -36.525  23.816   0.669  0.00  0.00    +0.050 A 
ATOM     12  C   UNL     1     -36.207  22.491   0.965  0.00  0.00    +0.144 A 
ATOM     13  C   UNL     1     -35.127  26.397   3.755  0.00  0.00    +0.150 C 
ATOM     14  C   UNL     1     -35.273  27.321   2.720  0.00  0.00    +0.106 C 
ATOM     15  C   UNL     1     -35.482  20.902   2.827  0.00  0.00    +0.346 C 
ATOM     16  C   UNL     1     -34.052  26.494   4.643  0.00  0.00    +0.047 C 
ATOM     17  C   UNL     1     -34.325  28.341   2.569  0.00  0.00    -0.010 C 
ATOM     18  C   UNL     1     -36.942  24.191  -0.717  0.00  0.00    +0.038 C 
ATOM     19  C   UNL     1     -36.435  27.326   1.813  0.00  0.00    +0.348 C 
ATOM     20  C   UNL     1     -33.105  27.504   4.483  0.00  0.00    +0.137 C 
ATOM     21  C   UNL     1     -33.240  28.425   3.444  0.00  0.00    +0.033 C 
ATOM     22  C   UNL     1     -33.914  25.534   5.782  0.00  0.00    +0.037 C 
ATOM     23  C   UNL     1     -34.392  29.354   1.471  0.00  0.00    +0.031 C 
ENDROOT
BRANCH  12  24
ATOM     24  O   UNL     1     -36.261  21.526   0.010  0.00  0.00    -0.471 OA
ATOM     25  C   UNL     1     -37.522  20.890  -0.202  0.00  0.00    +0.252 C 
ENDBRANCH  12  24
BRANCH  10  26
ATOM     26  O   UNL     1     -36.384  22.662   5.518  0.00  0.00    -0.347 OA
ATOM     27  H   UNL     1     -36.237  23.485   6.008  0.00  0.00    +0.214 HD
ENDBRANCH  10  26
BRANCH  20  28
ATOM     28  O   UNL     1     -32.046  27.612   5.333  0.00  0.00    -0.472 OA
ATOM     29  C   UNL     1     -31.874  28.860   5.999  0.00  0.00    +0.252 C 
ENDBRANCH  20  28
TORSDOF 3
ENDMDL
MODEL 3
REMARK VINA RESULT:      -6.5      4.714      8.056
REMARK  Name = 56953621
REMARK  3 active torsions:
REMARK  status: ('A' for Active; 'I' for Inactive)
REMARK    1  A    between atoms: C_10  and  O_26
REMARK    2  A    between atoms: C_12  and  O_24
REMARK    3  A    between atoms: C_20  and  O_28
REMARK                            x       y       z     vdW  Elec       q    Type
REMARK                         _______ _______ _______ _____ _____    ______ ____
ROOT
ATOM      1  O   UNL     1     -34.636  21.113   0.577  0.00  0.00    -0.451 OA
ATOM      2  O   UNL     1     -32.195  17.625   1.500  0.00  0.00    -0.417 OA
ATOM      3  O   UNL     1     -33.081  22.981  -0.968  0.00  0.00    -0.418 OA
ATOM      4  O   UNL     1     -29.997  17.552   0.783  0.00  0.00    -0.245 OA
ATOM      5  O   UNL     1     -34.498  24.774  -1.055  0.00  0.00    -0.244 OA
ATOM      6  C   UNL     1     -32.751  19.676   0.660  0.00  0.00    +0.094 A 
ATOM      7  C   UNL     1     -33.327  20.875   0.276  0.00  0.00    +0.182 A 
ATOM      8  C   UNL     1     -31.431  19.411   0.348  0.00  0.00    +0.114 A 
ATOM      9  C   UNL     1     -32.549  21.776  -0.447  0.00  0.00    +0.182 A 
ATOM     10  C   UNL     1     -33.317  18.539   1.419  0.00  0.00    +0.315 C 
ATOM     11  C   UNL     1     -31.212  21.493  -0.777  0.00  0.00    +0.050 A 
ATOM     12  C   UNL     1     -30.636  20.292  -0.364  0.00  0.00    +0.144 A 
ATOM     13  C   UNL     1     -34.819  22.217   1.369  0.00  0.00    +0.150 C 
ATOM     14  C   UNL     1     -34.542  23.511   0.926  0.00  0.00    +0.106 C 
ATOM     15  C   UNL     1     -31.075  18.104   0.876  0.00  0.00    +0.346 C 
ATOM     16  C   UNL     1     -35.348  22.005   2.646  0.00  0.00    +0.047 C 
ATOM     17  C   UNL     1     -34.787  24.597   1.776  0.00  0.00    -0.010 C 
ATOM     18  C   UNL     1     -30.407  22.473  -1.568  0.00  0.00    +0.038 C 
ATOM     19  C   UNL     1     -34.075  23.802  -0.441  0.00  0.00    +0.348 C 
ATOM     20  C   UNL     1     -35.580  23.088   3.491  0.00  0.00    +0.137 C 
ATOM     21  C   UNL     1     -35.296  24.382   3.058  0.00  0.00    +0.033 C 
ATOM     22  C   UNL     1     -35.689  20.625   3.111  0.00  0.00    +0.037 C 
ATOM     23  C   UNL     1     -34.492  26.011   1.389  0.00  0.00    +0.031 C 
ENDROOT
BRANCH  12  24
ATOM     24  O   UNL     1     -29.345  19.994  -0.662  0.00  0.00    -0.471 OA
ATOM     25  C   UNL     1     -29.094  19.362  -1.918  0.00  0.00    +0.252 C 
ENDBRANCH  12  24
BRANCH  10  26
ATOM     26  O   UNL     1     -34.407  17.968   0.718  0.00  0.00    -0.347 OA
ATOM     27  H   UNL     1     -34.403  17.006   0.841  0.00  0.00    +0.214 HD
ENDBRANCH  10  26
BRANCH  20  28
ATOM     28  O   UNL     1     -36.088  22.902   4.742  0.00  0.00    -0.472 OA
ATOM     29  C   UNL     1     -35.187  23.052   5.837  0.00  0.00    +0.252 C 
ENDBRANCH  20  28
TORSDOF 3
ENDMDL
MODEL 4
REMARK VINA RESULT:      -6.4      3.118      5.675
REMARK  Name = 56953621
REMARK  3 active torsions:
REMARK  status: ('A' for Active; 'I' for Inactive)
REMARK    1  A    between atoms: C_10  and  O_26
REMARK    2  A    between atoms: C_12  and  O_24
REMARK    3  A    between atoms: C_20  and  O_28
REMARK                            x       y       z     vdW  Elec       q    Type
REMARK                         _______ _______ _______ _____ _____    ______ ____
ROOT
ATOM      1  O   UNL     1     -35.705  23.576   0.706  0.00  0.00    -0.451 OA
ATOM      2  O   UNL     1     -34.870  27.778   1.492  0.00  0.00    -0.417 OA
ATOM      3  O   UNL     1     -35.945  22.169   3.209  0.00  0.00    -0.418 OA
ATOM      4  O   UNL     1     -34.651  28.506   3.678  0.00  0.00    -0.245 OA
ATOM      5  O   UNL     1     -36.098  20.004   2.488  0.00  0.00    -0.244 OA
ATOM      6  C   UNL     1     -35.275  25.570   1.916  0.00  0.00    +0.094 A 
ATOM      7  C   UNL     1     -35.516  24.207   1.901  0.00  0.00    +0.182 A 
ATOM      8  C   UNL     1     -35.099  26.228   3.119  0.00  0.00    +0.114 A 
ATOM      9  C   UNL     1     -35.602  23.541   3.122  0.00  0.00    +0.182 A 
ATOM     10  C   UNL     1     -35.138  26.533   0.802  0.00  0.00    +0.315 C 
ATOM     11  C   UNL     1     -35.439  24.220   4.343  0.00  0.00    +0.050 A 
ATOM     12  C   UNL     1     -35.173  25.588   4.344  0.00  0.00    +0.144 A 
ATOM     13  C   UNL     1     -34.784  22.590   0.462  0.00  0.00    +0.150 C 
ATOM     14  C   UNL     1     -34.716  21.424   1.225  0.00  0.00    +0.106 C 
ATOM     15  C   UNL     1     -34.846  27.635   2.854  0.00  0.00    +0.346 C 
ATOM     16  C   UNL     1     -33.929  22.774  -0.629  0.00  0.00    +0.047 C 
ATOM     17  C   UNL     1     -33.773  20.441   0.896  0.00  0.00    -0.010 C 
ATOM     18  C   UNL     1     -35.551  23.480   5.637  0.00  0.00    +0.038 C 
ATOM     19  C   UNL     1     -35.653  21.134   2.324  0.00  0.00    +0.348 C 
ATOM     20  C   UNL     1     -32.986  21.798  -0.945  0.00  0.00    +0.137 C 
ATOM     21  C   UNL     1     -32.906  20.634  -0.181  0.00  0.00    +0.033 C 
ATOM     22  C   UNL     1     -34.028  24.001  -1.477  0.00  0.00    +0.037 C 
ATOM     23  C   UNL     1     -33.615  19.176   1.678  0.00  0.00    +0.031 C 
ENDROOT
BRANCH  12  24
ATOM     24  O   UNL     1     -35.005  26.268   5.507  0.00  0.00    -0.471 OA
ATOM     25  C   UNL     1     -33.677  26.349   6.029  0.00  0.00    +0.252 C 
ENDBRANCH  12  24
BRANCH  10  26
ATOM     26  O   UNL     1     -36.339  26.598   0.053  0.00  0.00    -0.347 OA
ATOM     27  H   UNL     1     -36.666  27.511   0.045  0.00  0.00    +0.214 HD
ENDBRANCH  10  26
BRANCH  20  28
ATOM     28  O   UNL     1     -32.139  21.960  -1.999  0.00  0.00    -0.472 OA
ATOM     29  C   UNL     1     -30.783  22.280  -1.699  0.00  0.00    +0.252 C 
ENDBRANCH  20  28
TORSDOF 3
ENDMDL
MODEL 5
REMARK VINA RESULT:      -6.4      3.442      6.220
REMARK  Name = 56953621
REMARK  3 active torsions:
REMARK  status: ('A' for Active; 'I' for Inactive)
REMARK    1  A    between atoms: C_10  and  O_26
REMARK    2  A    between atoms: C_12  and  O_24
REMARK    3  A    between atoms: C_20  and  O_28
REMARK                            x       y       z     vdW  Elec       q    Type
REMARK                         _______ _______ _______ _____ _____    ______ ____
ROOT
ATOM      1  O   UNL     1     -37.399  20.205   0.941  0.00  0.00    -0.451 OA
ATOM      2  O   UNL     1     -40.438  23.244   1.647  0.00  0.00    -0.417 OA
ATOM      3  O   UNL     1     -35.133  20.710   2.647  0.00  0.00    -0.418 OA
ATOM      4  O   UNL     1     -40.029  24.930   3.178  0.00  0.00    -0.245 OA
ATOM      5  O   UNL     1     -33.638  19.164   1.870  0.00  0.00    -0.244 OA
ATOM      6  C   UNL     1     -38.457  22.123   1.849  0.00  0.00    +0.094 A 
ATOM      7  C   UNL     1     -37.357  21.287   1.771  0.00  0.00    +0.182 A 
ATOM      8  C   UNL     1     -38.439  23.214   2.698  0.00  0.00    +0.114 A 
ATOM      9  C   UNL     1     -36.261  21.566   2.585  0.00  0.00    +0.182 A 
ATOM     10  C   UNL     1     -39.747  22.082   1.126  0.00  0.00    +0.315 C 
ATOM     11  C   UNL     1     -36.255  22.666   3.459  0.00  0.00    +0.050 A 
ATOM     12  C   UNL     1     -37.361  23.515   3.512  0.00  0.00    +0.144 A 
ATOM     13  C   UNL     1     -36.429  20.226  -0.028  0.00  0.00    +0.150 C 
ATOM     14  C   UNL     1     -35.070  20.119   0.270  0.00  0.00    +0.106 C 
ATOM     15  C   UNL     1     -39.700  23.928   2.576  0.00  0.00    +0.346 C 
ATOM     16  C   UNL     1     -36.857  20.313  -1.355  0.00  0.00    +0.047 C 
ATOM     17  C   UNL     1     -34.135  20.112  -0.773  0.00  0.00    -0.010 C 
ATOM     18  C   UNL     1     -35.070  22.930   4.332  0.00  0.00    +0.038 C 
ATOM     19  C   UNL     1     -34.567  19.930   1.642  0.00  0.00    +0.348 C 
ATOM     20  C   UNL     1     -35.922  20.315  -2.389  0.00  0.00    +0.137 C 
ATOM     21  C   UNL     1     -34.562  20.219  -2.098  0.00  0.00    +0.033 C 
ATOM     22  C   UNL     1     -38.314  20.383  -1.684  0.00  0.00    +0.037 C 
ATOM     23  C   UNL     1     -32.660  20.029  -0.539  0.00  0.00    +0.031 C 
ENDROOT
BRANCH  12  24
ATOM     24  O   UNL     1     -37.381  24.590   4.341  0.00  0.00    -0.471 OA
ATOM     25  C   UNL     1     -36.784  25.795   3.861  0.00  0.00    +0.252 C 
ENDBRANCH  12  24
BRANCH  10  26
ATOM     26  O   UNL     1     -40.443  20.884   1.421  0.00  0.00    -0.347 OA
ATOM     27  H   UNL     1     -39.960  20.388   2.100  0.00  0.00    +0.214 HD
ENDBRANCH  10  26
BRANCH  20  28
ATOM     28  O   UNL     1     -36.318  20.406  -3.689  0.00  0.00    -0.472 OA
ATOM     29  C   UNL     1     -36.017  21.618  -4.377  0.00  0.00    +0.252 C 
ENDBRANCH  20  28
TORSDOF 3
ENDMDL
MODEL 6
REMARK VINA RESULT:      -6.4      3.820      6.086
REMARK  Name = 56953621
REMARK  3 active torsions:
REMARK  status: ('A' for Active; 'I' for Inactive)
REMARK    1  A    between atoms: C_10  and  O_26
REMARK    2  A    between atoms: C_12  and  O_24
REMARK    3  A    between atoms: C_20  and  O_28
REMARK                            x       y       z     vdW  Elec       q    Type
REMARK                         _______ _______ _______ _____ _____    ______ ____
ROOT
ATOM      1  O   UNL     1     -34.337  23.198   0.254  0.00  0.00    -0.451 OA
ATOM      2  O   UNL     1     -33.392  27.173   1.764  0.00  0.00    -0.417 OA
ATOM      3  O   UNL     1     -35.466  21.616   2.380  0.00  0.00    -0.418 OA
ATOM      4  O   UNL     1     -33.788  27.670   3.989  0.00  0.00    -0.245 OA
ATOM      5  O   UNL     1     -35.594  19.561   1.384  0.00  0.00    -0.244 OA
ATOM      6  C   UNL     1     -34.114  25.005   1.773  0.00  0.00    +0.094 A 
ATOM      7  C   UNL     1     -34.466  23.691   1.519  0.00  0.00    +0.182 A 
ATOM      8  C   UNL     1     -34.256  25.526   3.046  0.00  0.00    +0.114 A 
ATOM      9  C   UNL     1     -34.985  22.935   2.569  0.00  0.00    +0.182 A 
ATOM     10  C   UNL     1     -33.551  26.038   0.877  0.00  0.00    +0.315 C 
ATOM     11  C   UNL     1     -35.143  23.476   3.856  0.00  0.00    +0.050 A 
ATOM     12  C   UNL     1     -34.762  24.794   4.106  0.00  0.00    +0.144 A 
ATOM     13  C   UNL     1     -33.483  22.128   0.172  0.00  0.00    +0.150 C 
ATOM     14  C   UNL     1     -33.763  20.900   0.771  0.00  0.00    +0.106 C 
ATOM     15  C   UNL     1     -33.802  26.907   3.043  0.00  0.00    +0.346 C 
ATOM     16  C   UNL     1     -32.321  22.298  -0.586  0.00  0.00    +0.047 C 
ATOM     17  C   UNL     1     -32.862  19.838   0.617  0.00  0.00    -0.010 C 
ATOM     18  C   UNL     1     -35.717  22.644   4.958  0.00  0.00    +0.038 C 
ATOM     19  C   UNL     1     -35.015  20.634   1.500  0.00  0.00    +0.348 C 
ATOM     20  C   UNL     1     -31.423  21.242  -0.727  0.00  0.00    +0.137 C 
ATOM     21  C   UNL     1     -31.691  20.014  -0.123  0.00  0.00    +0.033 C 
ATOM     22  C   UNL     1     -32.037  23.599  -1.267  0.00  0.00    +0.037 C 
ATOM     23  C   UNL     1     -33.072  18.499   1.248  0.00  0.00    +0.031 C 
ENDROOT
BRANCH  12  24
ATOM     24  O   UNL     1     -34.897  25.341   5.341  0.00  0.00    -0.471 OA
ATOM     25  C   UNL     1     -36.141  25.975   5.642  0.00  0.00    +0.252 C 
ENDBRANCH  12  24
BRANCH  10  26
ATOM     26  O   UNL     1     -34.451  26.322  -0.180  0.00  0.00    -0.347 OA
ATOM     27  H   UNL     1     -35.020  25.553  -0.335  0.00  0.00    +0.214 HD
ENDBRANCH  10  26
BRANCH  20  28
ATOM     28  O   UNL     1     -30.281  21.388  -1.456  0.00  0.00    -0.472 OA
ATOM     29  C   UNL     1     -29.078  20.878  -0.886  0.00  0.00    +0.252 C 
ENDBRANCH  20  28
TORSDOF 3
ENDMDL
MODEL 7
REMARK VINA RESULT:      -6.4      3.395      5.805
REMARK  Name = 56953621
REMARK  3 active torsions:
REMARK  status: ('A' for Active; 'I' for Inactive)
REMARK    1  A    between atoms: C_10  and  O_26
REMARK    2  A    between atoms: C_12  and  O_24
REMARK    3  A    between atoms: C_20  and  O_28
REMARK                            x       y       z     vdW  Elec       q    Type
REMARK                         _______ _______ _______ _____ _____    ______ ____
ROOT
ATOM      1  O   UNL     1     -35.675  24.939   2.812  0.00  0.00    -0.451 OA
ATOM      2  O   UNL     1     -35.398  20.625   3.346  0.00  0.00    -0.417 OA
ATOM      3  O   UNL     1     -34.657  25.644   0.211  0.00  0.00    -0.418 OA
ATOM      4  O   UNL     1     -34.487  19.325   1.663  0.00  0.00    -0.245 OA
ATOM      5  O   UNL     1     -34.673  27.927   0.332  0.00  0.00    -0.244 OA
ATOM      6  C   UNL     1     -35.188  22.666   2.341  0.00  0.00    +0.094 A 
ATOM      7  C   UNL     1     -35.158  23.999   1.969  0.00  0.00    +0.182 A 
ATOM      8  C   UNL     1     -34.684  21.699   1.492  0.00  0.00    +0.114 A 
ATOM      9  C   UNL     1     -34.636  24.321   0.718  0.00  0.00    +0.182 A 
ATOM     10  C   UNL     1     -35.676  22.027   3.583  0.00  0.00    +0.315 C 
ATOM     11  C   UNL     1     -34.142  23.330  -0.149  0.00  0.00    +0.050 A 
ATOM     12  C   UNL     1     -34.156  21.994   0.247  0.00  0.00    +0.144 A 
ATOM     13  C   UNL     1     -34.755  25.874   3.212  0.00  0.00    +0.150 C 
ATOM     14  C   UNL     1     -34.180  26.786   2.325  0.00  0.00    +0.106 C 
ATOM     15  C   UNL     1     -34.820  20.398   2.125  0.00  0.00    +0.346 C 
ATOM     16  C   UNL     1     -34.441  25.917   4.573  0.00  0.00    +0.047 C 
ATOM     17  C   UNL     1     -33.274  27.738   2.809  0.00  0.00    -0.010 C 
ATOM     18  C   UNL     1     -33.603  23.705  -1.492  0.00  0.00    +0.038 C 
ATOM     19  C   UNL     1     -34.545  26.849   0.899  0.00  0.00    +0.348 C 
ATOM     20  C   UNL     1     -33.532  26.861   5.048  0.00  0.00    +0.137 C 
ATOM     21  C   UNL     1     -32.946  27.768   4.166  0.00  0.00    +0.033 C 
ATOM     22  C   UNL     1     -35.088  24.973   5.536  0.00  0.00    +0.037 C 
ATOM     23  C   UNL     1     -32.593  28.732   1.923  0.00  0.00    +0.031 C 
ENDROOT
BRANCH  12  24
ATOM     24  O   UNL     1     -33.678  21.016  -0.567  0.00  0.00    -0.471 OA
ATOM     25  C   UNL     1     -32.287  20.710  -0.470  0.00  0.00    +0.252 C 
ENDBRANCH  12  24
BRANCH  10  26
ATOM     26  O   UNL     1     -37.062  22.264   3.750  0.00  0.00    -0.347 OA
ATOM     27  H   UNL     1     -37.306  22.115   4.676  0.00  0.00    +0.214 HD
ENDBRANCH  10  26
BRANCH  20  28
ATOM     28  O   UNL     1     -33.207  26.915   6.370  0.00  0.00    -0.472 OA
ATOM     29  C   UNL     1     -32.188  27.837   6.750  0.00  0.00    +0.252 C 
ENDBRANCH  20  28
TORSDOF 3
ENDMDL
MODEL 8
REMARK VINA RESULT:      -6.3      2.273      5.722
REMARK  Name = 56953621
REMARK  3 active torsions:
REMARK  status: ('A' for Active; 'I' for Inactive)
REMARK    1  A    between atoms: C_10  and  O_26
REMARK    2  A    between atoms: C_12  and  O_24
REMARK    3  A    between atoms: C_20  and  O_28
REMARK                            x       y       z     vdW  Elec       q    Type
REMARK                         _______ _______ _______ _____ _____    ______ ____
ROOT
ATOM      1  O   UNL     1     -37.132  24.791   3.267  0.00  0.00    -0.451 OA
ATOM      2  O   UNL     1     -36.169  28.381   0.995  0.00  0.00    -0.417 OA
ATOM      3  O   UNL     1     -35.398  24.624   5.561  0.00  0.00    -0.418 OA
ATOM      4  O   UNL     1     -34.449  29.753   1.709  0.00  0.00    -0.245 OA
ATOM      5  O   UNL     1     -35.938  22.556   6.375  0.00  0.00    -0.244 OA
ATOM      6  C   UNL     1     -36.038  26.800   2.639  0.00  0.00    +0.094 A 
ATOM      7  C   UNL     1     -36.154  25.716   3.492  0.00  0.00    +0.182 A 
ATOM      8  C   UNL     1     -35.064  27.756   2.863  0.00  0.00    +0.114 A 
ATOM      9  C   UNL     1     -35.287  25.641   4.580  0.00  0.00    +0.182 A 
ATOM     10  C   UNL     1     -36.803  27.151   1.423  0.00  0.00    +0.315 C 
ATOM     11  C   UNL     1     -34.311  26.625   4.812  0.00  0.00    +0.050 A 
ATOM     12  C   UNL     1     -34.188  27.700   3.933  0.00  0.00    +0.144 A 
ATOM     13  C   UNL     1     -36.644  23.529   3.048  0.00  0.00    +0.150 C 
ATOM     14  C   UNL     1     -35.988  22.797   4.038  0.00  0.00    +0.106 C 
ATOM     15  C   UNL     1     -35.148  28.767   1.821  0.00  0.00    +0.346 C 
ATOM     16  C   UNL     1     -36.872  22.967   1.788  0.00  0.00    +0.047 C 
ATOM     17  C   UNL     1     -35.547  21.498   3.756  0.00  0.00    -0.010 C 
ATOM     18  C   UNL     1     -33.406  26.524   5.998  0.00  0.00    +0.038 C 
ATOM     19  C   UNL     1     -35.804  23.300   5.411  0.00  0.00    +0.348 C 
ATOM     20  C   UNL     1     -36.423  21.678   1.509  0.00  0.00    +0.137 C 
ATOM     21  C   UNL     1     -35.757  20.945   2.491  0.00  0.00    +0.033 C 
ATOM     22  C   UNL     1     -37.614  23.729   0.736  0.00  0.00    +0.037 C 
ATOM     23  C   UNL     1     -34.813  20.657   4.752  0.00  0.00    +0.031 C 
ENDROOT
BRANCH  12  24
ATOM     24  O   UNL     1     -33.250  28.662   4.128  0.00  0.00    -0.471 OA
ATOM     25  C   UNL     1     -31.946  28.419   3.597  0.00  0.00    +0.252 C 
ENDBRANCH  12  24
BRANCH  10  26
ATOM     26  O   UNL     1     -38.170  27.350   1.738  0.00  0.00    -0.347 OA
ATOM     27  H   UNL     1     -38.430  26.742   2.448  0.00  0.00    +0.214 HD
ENDBRANCH  10  26
BRANCH  20  28
ATOM     28  O   UNL     1     -36.628  21.115   0.286  0.00  0.00    -0.472 OA
ATOM     29  C   UNL     1     -37.323  19.870   0.253  0.00  0.00    +0.252 C 
ENDBRANCH  20  28
TORSDOF 3
ENDMDL
MODEL 9
REMARK VINA RESULT:      -6.1      2.353      4.567
REMARK  Name = 56953621
REMARK  3 active torsions:
REMARK  status: ('A' for Active; 'I' for Inactive)
REMARK    1  A    between atoms: C_10  and  O_26
REMARK    2  A    between atoms: C_12  and  O_24
REMARK    3  A    between atoms: C_20  and  O_28
REMARK                            x       y       z     vdW  Elec       q    Type
REMARK                         _______ _______ _______ _____ _____    ______ ____
ROOT
ATOM      1  O   UNL     1     -36.062  23.014   2.842  0.00  0.00    -0.451 OA
ATOM      2  O   UNL     1     -38.835  20.510   0.602  0.00  0.00    -0.417 OA
ATOM      3  O   UNL     1     -37.440  25.370   3.765  0.00  0.00    -0.418 OA
ATOM      4  O   UNL     1     -41.017  21.216   0.300  0.00  0.00    -0.245 OA
ATOM      5  O   UNL     1     -35.709  26.583   4.637  0.00  0.00    -0.244 OA
ATOM      6  C   UNL     1     -38.073  22.293   1.811  0.00  0.00    +0.094 A 
ATOM      7  C   UNL     1     -37.370  23.246   2.528  0.00  0.00    +0.182 A 
ATOM      8  C   UNL     1     -39.403  22.503   1.500  0.00  0.00    +0.114 A 
ATOM      9  C   UNL     1     -38.049  24.390   2.942  0.00  0.00    +0.182 A 
ATOM     10  C   UNL     1     -37.634  20.997   1.250  0.00  0.00    +0.315 C 
ATOM     11  C   UNL     1     -39.406  24.590   2.637  0.00  0.00    +0.050 A 
ATOM     12  C   UNL     1     -40.097  23.634   1.894  0.00  0.00    +0.144 A 
ATOM     13  C   UNL     1     -35.206  23.953   2.325  0.00  0.00    +0.150 C 
ATOM     14  C   UNL     1     -35.215  25.284   2.743  0.00  0.00    +0.106 C 
ATOM     15  C   UNL     1     -39.894  21.369   0.735  0.00  0.00    +0.346 C 
ATOM     16  C   UNL     1     -34.273  23.513   1.382  0.00  0.00    +0.047 C 
ATOM     17  C   UNL     1     -34.287  26.181   2.199  0.00  0.00    -0.010 C 
ATOM     18  C   UNL     1     -40.111  25.821   3.108  0.00  0.00    +0.038 C 
ATOM     19  C   UNL     1     -36.110  25.782   3.802  0.00  0.00    +0.348 C 
ATOM     20  C   UNL     1     -33.359  24.412   0.836  0.00  0.00    +0.137 C 
ATOM     21  C   UNL     1     -33.368  25.746   1.241  0.00  0.00    +0.033 C 
ATOM     22  C   UNL     1     -34.229  22.078   0.964  0.00  0.00    +0.037 C 
ATOM     23  C   UNL     1     -34.247  27.630   2.571  0.00  0.00    +0.031 C 
ENDROOT
BRANCH  12  24
ATOM     24  O   UNL     1     -41.407  23.803   1.579  0.00  0.00    -0.471 OA
ATOM     25  C   UNL     1     -41.703  24.539   0.391  0.00  0.00    +0.252 C 
ENDBRANCH  12  24
BRANCH  10  26
ATOM     26  O   UNL     1     -37.209  20.127   2.285  0.00  0.00    -0.347 OA
ATOM     27  H   UNL     1     -36.444  19.613   1.981  0.00  0.00    +0.214 HD
ENDBRANCH  10  26
BRANCH  20  28
ATOM     28  O   UNL     1     -32.446  24.006  -0.089  0.00  0.00    -0.472 OA
ATOM     29  C   UNL     1     -32.371  24.756  -1.299  0.00  0.00    +0.252 C 
ENDBRANCH  20  28
TORSDOF 3
ENDMDL
