MODEL 1
REMARK VINA RESULT:      -6.2      0.000      0.000
REMARK  Name = 193278
REMARK  12 active torsions:
REMARK  status: ('A' for Active; 'I' for Inactive)
REMARK    1  A    between atoms: C_1  and  C_4
REMARK    2  A    between atoms: C_1  and  N_11
REMARK    3  A    between atoms: C_1  and  C_23
REMARK    4  A    between atoms: N_3  and  C_6
REMARK    5  A    between atoms: C_6  and  C_8
REMARK    6  A    between atoms: C_8  and  O_9
REMARK    7  A    between atoms: N_11  and  S_13
REMARK    8  A    between atoms: S_13  and  C_16
REMARK    9  A    between atoms: C_23  and  C_24
REMARK   10  A    between atoms: C_24  and  C_25
REMARK   11  A    between atoms: C_25  and  N_26
REMARK   12  A    between atoms: N_26  and  C_29
REMARK                            x       y       z     vdW  Elec       q    Type
REMARK                         _______ _______ _______ _____ _____    ______ ____
ROOT
ATOM      1  C   UNL     1     -36.115  22.819   1.457  0.00  0.00    +0.152 C 
ENDROOT
BRANCH   1   4
ATOM      2  O   UNL     1     -36.619  24.036  -0.542  0.00  0.00    -0.273 OA
ATOM      3  N   UNL     1     -38.408  23.621   0.871  0.00  0.00    -0.267 N 
ATOM      4  C   UNL     1     -37.059  23.546   0.504  0.00  0.00    +0.242 C 
ATOM      5  C   UNL     1     -39.407  24.286   0.043  0.00  0.00    +0.115 C 
BRANCH   3   6
ATOM      6  C   UNL     1     -38.915  23.040   2.111  0.00  0.00    +0.204 C 
BRANCH   6   8
ATOM      7  O   UNL     1     -40.455  21.283   1.528  0.00  0.00    -0.248 OA
ATOM      8  C   UNL     1     -39.352  21.606   1.951  0.00  0.00    +0.334 C 
BRANCH   8   9
ATOM      9  O   UNL     1     -38.407  20.708   2.320  0.00  0.00    -0.479 OA
ATOM     10  H   UNL     1     -38.647  19.960   2.830  0.00  0.00    +0.295 HD
ENDBRANCH   8   9
ENDBRANCH   6   8
ENDBRANCH   3   6
ENDBRANCH   1   4
BRANCH   1  11
ATOM     11  N   UNL     1     -35.632  21.653   0.680  0.00  0.00    -0.172 NA
ATOM     12  H   UNL     1     -36.295  21.512  -0.082  0.00  0.00    +0.149 HD
BRANCH  11  13
ATOM     13  S   UNL     1     -35.435  20.150   1.444  0.00  0.00    +0.061 S 
ATOM     14  O   UNL     1     -36.309  19.174   0.820  0.00  0.00    -0.153 OA
ATOM     15  O   UNL     1     -35.468  20.346   2.881  0.00  0.00    -0.153 OA
BRANCH  13  16
ATOM     16  C   UNL     1     -33.769  19.740   1.018  0.00  0.00    +0.122 C 
ATOM     17  C   UNL     1     -33.005  20.628   0.261  0.00  0.00    +0.020 C 
ATOM     18  C   UNL     1     -33.218  18.530   1.440  0.00  0.00    +0.020 C 
ATOM     19  C   UNL     1     -31.139  19.096   0.347  0.00  0.00    -0.022 C 
ATOM     20  C   UNL     1     -31.691  20.306  -0.075  0.00  0.00    -0.003 C 
ATOM     21  C   UNL     1     -31.903  18.208   1.105  0.00  0.00    -0.003 C 
ATOM     22  C   UNL     1     -29.733  18.751  -0.013  0.00  0.00    +0.031 C 
ENDBRANCH  13  16
ENDBRANCH  11  13
ENDBRANCH   1  11
BRANCH   1  23
ATOM     23  C   UNL     1     -34.926  23.697   1.868  0.00  0.00    +0.029 C 
BRANCH  23  24
ATOM     24  C   UNL     1     -34.782  23.811   3.392  0.00  0.00    +0.028 C 
BRANCH  24  25
ATOM     25  C   UNL     1     -36.062  23.426   4.127  0.00  0.00    +0.129 C 
BRANCH  25  26
ATOM     26  N   UNL     1     -36.365  24.423   5.154  0.00  0.00    -0.240 NA
BRANCH  26  29
ATOM     27  N   UNL     1     -35.829  26.761   5.024  0.00  0.00    -0.370 N 
ATOM     28  N   UNL     1     -37.650  25.922   3.939  0.00  0.00    -0.370 N 
ATOM     29  C   UNL     1     -36.575  25.636   4.748  0.00  0.00    +0.189 C 
ATOM     30  H   UNL     1     -35.031  26.693   5.595  0.00  0.00    +0.159 HD
ATOM     31  H   UNL     1     -36.096  27.632   4.653  0.00  0.00    +0.159 HD
ATOM     32  H   UNL     1     -38.265  25.202   3.666  0.00  0.00    +0.159 HD
ATOM     33  H   UNL     1     -37.804  26.845   3.634  0.00  0.00    +0.159 HD
ENDBRANCH  26  29
ENDBRANCH  25  26
ENDBRANCH  24  25
ENDBRANCH  23  24
ENDBRANCH   1  23
TORSDOF 12
ENDMDL
MODEL 2
REMARK VINA RESULT:      -6.1      2.585      4.957
REMARK  Name = 193278
REMARK  12 active torsions:
REMARK  status: ('A' for Active; 'I' for Inactive)
REMARK    1  A    between atoms: C_1  and  C_4
REMARK    2  A    between atoms: C_1  and  N_11
REMARK    3  A    between atoms: C_1  and  C_23
REMARK    4  A    between atoms: N_3  and  C_6
REMARK    5  A    between atoms: C_6  and  C_8
REMARK    6  A    between atoms: C_8  and  O_9
REMARK    7  A    between atoms: N_11  and  S_13
REMARK    8  A    between atoms: S_13  and  C_16
REMARK    9  A    between atoms: C_23  and  C_24
REMARK   10  A    between atoms: C_24  and  C_25
REMARK   11  A    between atoms: C_25  and  N_26
REMARK   12  A    between atoms: N_26  and  C_29
REMARK                            x       y       z     vdW  Elec       q    Type
REMARK                         _______ _______ _______ _____ _____    ______ ____
ROOT
ATOM      1  C   UNL     1     -36.502  24.329   2.417  0.00  0.00    +0.152 C 
ENDROOT
BRANCH   1   4
ATOM      2  O   UNL     1     -36.964  22.496   3.885  0.00  0.00    -0.273 OA
ATOM      3  N   UNL     1     -35.227  23.891   4.521  0.00  0.00    -0.267 N 
ATOM      4  C   UNL     1     -36.260  23.488   3.666  0.00  0.00    +0.242 C 
ATOM      5  C   UNL     1     -34.896  23.168   5.742  0.00  0.00    +0.115 C 
BRANCH   3   6
ATOM      6  C   UNL     1     -34.403  25.066   4.251  0.00  0.00    +0.204 C 
BRANCH   6   8
ATOM      7  O   UNL     1     -33.896  26.581   6.053  0.00  0.00    -0.248 OA
ATOM      8  C   UNL     1     -34.685  26.208   5.194  0.00  0.00    +0.334 C 
BRANCH   8   9
ATOM      9  O   UNL     1     -35.897  26.782   5.001  0.00  0.00    -0.479 OA
ATOM     10  H   UNL     1     -36.656  26.245   4.888  0.00  0.00    +0.295 HD
ENDBRANCH   8   9
ENDBRANCH   6   8
ENDBRANCH   3   6
ENDBRANCH   1   4
BRANCH   1  11
ATOM     11  N   UNL     1     -36.399  23.364   1.297  0.00  0.00    -0.172 NA
ATOM     12  H   UNL     1     -36.421  22.431   1.709  0.00  0.00    +0.149 HD
BRANCH  11  13
ATOM     13  S   UNL     1     -35.056  23.411   0.259  0.00  0.00    +0.061 S 
ATOM     14  O   UNL     1     -34.143  24.450   0.698  0.00  0.00    -0.153 OA
ATOM     15  O   UNL     1     -35.523  23.383  -1.114  0.00  0.00    -0.153 OA
BRANCH  13  16
ATOM     16  C   UNL     1     -34.295  21.848   0.576  0.00  0.00    +0.122 C 
ATOM     17  C   UNL     1     -34.906  20.938   1.440  0.00  0.00    +0.020 C 
ATOM     18  C   UNL     1     -33.085  21.523  -0.037  0.00  0.00    +0.020 C 
ATOM     19  C   UNL     1     -33.096  19.379   1.076  0.00  0.00    -0.022 C 
ATOM     20  C   UNL     1     -34.307  19.704   1.690  0.00  0.00    -0.003 C 
ATOM     21  C   UNL     1     -32.486  20.289   0.213  0.00  0.00    -0.003 C 
ATOM     22  C   UNL     1     -32.455  18.059   1.345  0.00  0.00    +0.031 C 
ENDBRANCH  13  16
ENDBRANCH  11  13
ENDBRANCH   1  11
BRANCH   1  23
ATOM     23  C   UNL     1     -37.894  24.974   2.419  0.00  0.00    +0.029 C 
BRANCH  23  24
ATOM     24  C   UNL     1     -38.648  24.742   1.103  0.00  0.00    +0.028 C 
BRANCH  24  25
ATOM     25  C   UNL     1     -40.044  24.169   1.326  0.00  0.00    +0.129 C 
BRANCH  25  26
ATOM     26  N   UNL     1     -39.976  23.046   2.261  0.00  0.00    -0.240 NA
BRANCH  26  29
ATOM     27  N   UNL     1     -38.636  21.061   2.075  0.00  0.00    -0.370 N 
ATOM     28  N   UNL     1     -40.500  21.331   0.791  0.00  0.00    -0.370 N 
ATOM     29  C   UNL     1     -39.695  21.883   1.760  0.00  0.00    +0.189 C 
ATOM     30  H   UNL     1     -37.982  21.340   2.755  0.00  0.00    +0.159 HD
ATOM     31  H   UNL     1     -38.532  20.195   1.618  0.00  0.00    +0.159 HD
ATOM     32  H   UNL     1     -41.294  21.819   0.475  0.00  0.00    +0.159 HD
ATOM     33  H   UNL     1     -40.281  20.448   0.414  0.00  0.00    +0.159 HD
ENDBRANCH  26  29
ENDBRANCH  25  26
ENDBRANCH  24  25
ENDBRANCH  23  24
ENDBRANCH   1  23
TORSDOF 12
ENDMDL
MODEL 3
REMARK VINA RESULT:      -6.1      2.083      2.458
REMARK  Name = 193278
REMARK  12 active torsions:
REMARK  status: ('A' for Active; 'I' for Inactive)
REMARK    1  A    between atoms: C_1  and  C_4
REMARK    2  A    between atoms: C_1  and  N_11
REMARK    3  A    between atoms: C_1  and  C_23
REMARK    4  A    between atoms: N_3  and  C_6
REMARK    5  A    between atoms: C_6  and  C_8
REMARK    6  A    between atoms: C_8  and  O_9
REMARK    7  A    between atoms: N_11  and  S_13
REMARK    8  A    between atoms: S_13  and  C_16
REMARK    9  A    between atoms: C_23  and  C_24
REMARK   10  A    between atoms: C_24  and  C_25
REMARK   11  A    between atoms: C_25  and  N_26
REMARK   12  A    between atoms: N_26  and  C_29
REMARK                            x       y       z     vdW  Elec       q    Type
REMARK                         _______ _______ _______ _____ _____    ______ ____
ROOT
ATOM      1  C   UNL     1     -36.266  23.166   2.149  0.00  0.00    +0.152 C 
ENDROOT
BRANCH   1   4
ATOM      2  O   UNL     1     -34.496  24.763   1.935  0.00  0.00    -0.273 OA
ATOM      3  N   UNL     1     -36.634  25.559   1.534  0.00  0.00    -0.267 N 
ATOM      4  C   UNL     1     -35.713  24.559   1.867  0.00  0.00    +0.242 C 
ATOM      5  C   UNL     1     -36.229  26.928   1.239  0.00  0.00    +0.115 C 
BRANCH   3   6
ATOM      6  C   UNL     1     -38.071  25.305   1.458  0.00  0.00    +0.204 C 
BRANCH   6   8
ATOM      7  O   UNL     1     -39.879  26.715   2.194  0.00  0.00    -0.248 OA
ATOM      8  C   UNL     1     -38.860  26.095   2.471  0.00  0.00    +0.334 C 
BRANCH   8   9
ATOM      9  O   UNL     1     -38.333  26.054   3.718  0.00  0.00    -0.479 OA
ATOM     10  H   UNL     1     -38.896  25.964   4.461  0.00  0.00    +0.295 HD
ENDBRANCH   8   9
ENDBRANCH   6   8
ENDBRANCH   3   6
ENDBRANCH   1   4
BRANCH   1  11
ATOM     11  N   UNL     1     -35.153  22.250   1.804  0.00  0.00    -0.172 NA
ATOM     12  H   UNL     1     -34.595  22.720   1.091  0.00  0.00    +0.149 HD
BRANCH  11  13
ATOM     13  S   UNL     1     -35.490  20.693   1.216  0.00  0.00    +0.061 S 
ATOM     14  O   UNL     1     -36.164  20.796  -0.065  0.00  0.00    -0.153 OA
ATOM     15  O   UNL     1     -36.071  19.904   2.285  0.00  0.00    -0.153 OA
BRANCH  13  16
ATOM     16  C   UNL     1     -33.867  20.054   0.928  0.00  0.00    +0.122 C 
ATOM     17  C   UNL     1     -32.955  20.785   0.167  0.00  0.00    +0.020 C 
ATOM     18  C   UNL     1     -33.498  18.819   1.462  0.00  0.00    +0.020 C 
ATOM     19  C   UNL     1     -31.305  19.046   0.474  0.00  0.00    -0.022 C 
ATOM     20  C   UNL     1     -31.675  20.282  -0.060  0.00  0.00    -0.003 C 
ATOM     21  C   UNL     1     -32.217  18.316   1.236  0.00  0.00    -0.003 C 
ATOM     22  C   UNL     1     -29.935  18.508   0.231  0.00  0.00    +0.031 C 
ENDBRANCH  13  16
ENDBRANCH  11  13
ENDBRANCH   1  11
BRANCH   1  23
ATOM     23  C   UNL     1     -36.645  22.986   3.625  0.00  0.00    +0.029 C 
BRANCH  23  24
ATOM     24  C   UNL     1     -35.436  22.637   4.502  0.00  0.00    +0.028 C 
BRANCH  24  25
ATOM     25  C   UNL     1     -35.288  23.581   5.691  0.00  0.00    +0.129 C 
BRANCH  25  26
ATOM     26  N   UNL     1     -35.975  24.843   5.413  0.00  0.00    -0.240 NA
BRANCH  26  29
ATOM     27  N   UNL     1     -34.029  26.112   6.026  0.00  0.00    -0.370 N 
ATOM     28  N   UNL     1     -35.669  27.041   4.744  0.00  0.00    -0.370 N 
ATOM     29  C   UNL     1     -35.248  25.916   5.413  0.00  0.00    +0.189 C 
ATOM     30  H   UNL     1     -33.615  25.382   6.540  0.00  0.00    +0.159 HD
ATOM     31  H   UNL     1     -33.574  26.981   5.951  0.00  0.00    +0.159 HD
ATOM     32  H   UNL     1     -36.528  27.034   4.262  0.00  0.00    +0.159 HD
ATOM     33  H   UNL     1     -35.112  27.854   4.748  0.00  0.00    +0.159 HD
ENDBRANCH  26  29
ENDBRANCH  25  26
ENDBRANCH  24  25
ENDBRANCH  23  24
ENDBRANCH   1  23
TORSDOF 12
ENDMDL
MODEL 4
REMARK VINA RESULT:      -6.0      1.411      2.023
REMARK  Name = 193278
REMARK  12 active torsions:
REMARK  status: ('A' for Active; 'I' for Inactive)
REMARK    1  A    between atoms: C_1  and  C_4
REMARK    2  A    between atoms: C_1  and  N_11
REMARK    3  A    between atoms: C_1  and  C_23
REMARK    4  A    between atoms: N_3  and  C_6
REMARK    5  A    between atoms: C_6  and  C_8
REMARK    6  A    between atoms: C_8  and  O_9
REMARK    7  A    between atoms: N_11  and  S_13
REMARK    8  A    between atoms: S_13  and  C_16
REMARK    9  A    between atoms: C_23  and  C_24
REMARK   10  A    between atoms: C_24  and  C_25
REMARK   11  A    between atoms: C_25  and  N_26
REMARK   12  A    between atoms: N_26  and  C_29
REMARK                            x       y       z     vdW  Elec       q    Type
REMARK                         _______ _______ _______ _____ _____    ______ ____
ROOT
ATOM      1  C   UNL     1     -36.321  22.874   1.468  0.00  0.00    +0.152 C 
ENDROOT
BRANCH   1   4
ATOM      2  O   UNL     1     -37.262  23.328  -0.685  0.00  0.00    -0.273 OA
ATOM      3  N   UNL     1     -38.685  23.606   1.122  0.00  0.00    -0.267 N 
ATOM      4  C   UNL     1     -37.455  23.288   0.535  0.00  0.00    +0.242 C 
ATOM      5  C   UNL     1     -39.844  24.012   0.337  0.00  0.00    +0.115 C 
BRANCH   3   6
ATOM      6  C   UNL     1     -38.898  23.557   2.566  0.00  0.00    +0.204 C 
BRANCH   6   8
ATOM      7  O   UNL     1     -38.300  25.865   2.898  0.00  0.00    -0.248 OA
ATOM      8  C   UNL     1     -39.028  24.924   3.187  0.00  0.00    +0.334 C 
BRANCH   8   9
ATOM      9  O   UNL     1     -40.028  25.013   4.096  0.00  0.00    -0.479 OA
ATOM     10  H   UNL     1     -40.071  25.748   4.675  0.00  0.00    +0.295 HD
ENDBRANCH   8   9
ENDBRANCH   6   8
ENDBRANCH   3   6
ENDBRANCH   1   4
BRANCH   1  11
ATOM     11  N   UNL     1     -35.642  21.767   0.756  0.00  0.00    -0.172 NA
ATOM     12  H   UNL     1     -36.169  21.601  -0.101  0.00  0.00    +0.149 HD
BRANCH  11  13
ATOM     13  S   UNL     1     -35.453  20.260   1.517  0.00  0.00    +0.061 S 
ATOM     14  O   UNL     1     -36.352  19.298   0.909  0.00  0.00    -0.153 OA
ATOM     15  O   UNL     1     -35.457  20.457   2.954  0.00  0.00    -0.153 OA
BRANCH  13  16
ATOM     16  C   UNL     1     -33.801  19.826   1.061  0.00  0.00    +0.122 C 
ATOM     17  C   UNL     1     -33.265  18.603   1.464  0.00  0.00    +0.020 C 
ATOM     18  C   UNL     1     -33.034  20.706   0.297  0.00  0.00    +0.020 C 
ATOM     19  C   UNL     1     -31.195  19.139   0.340  0.00  0.00    -0.022 C 
ATOM     20  C   UNL     1     -31.963  18.260   1.104  0.00  0.00    -0.003 C 
ATOM     21  C   UNL     1     -31.731  20.362  -0.064  0.00  0.00    -0.003 C 
ATOM     22  C   UNL     1     -29.802  18.771  -0.045  0.00  0.00    +0.031 C 
ENDBRANCH  13  16
ENDBRANCH  11  13
ENDBRANCH   1  11
BRANCH   1  23
ATOM     23  C   UNL     1     -35.330  24.020   1.711  0.00  0.00    +0.029 C 
BRANCH  23  24
ATOM     24  C   UNL     1     -34.692  23.957   3.105  0.00  0.00    +0.028 C 
BRANCH  24  25
ATOM     25  C   UNL     1     -35.727  23.762   4.209  0.00  0.00    +0.129 C 
BRANCH  25  26
ATOM     26  N   UNL     1     -35.257  24.388   5.446  0.00  0.00    -0.240 NA
BRANCH  26  29
ATOM     27  N   UNL     1     -36.389  26.496   5.236  0.00  0.00    -0.370 N 
ATOM     28  N   UNL     1     -34.201  26.408   5.867  0.00  0.00    -0.370 N 
ATOM     29  C   UNL     1     -35.311  25.682   5.503  0.00  0.00    +0.189 C 
ATOM     30  H   UNL     1     -37.248  26.100   4.964  0.00  0.00    +0.159 HD
ATOM     31  H   UNL     1     -36.301  27.473   5.316  0.00  0.00    +0.159 HD
ATOM     32  H   UNL     1     -33.360  25.944   6.085  0.00  0.00    +0.159 HD
ATOM     33  H   UNL     1     -34.247  27.391   5.908  0.00  0.00    +0.159 HD
ENDBRANCH  26  29
ENDBRANCH  25  26
ENDBRANCH  24  25
ENDBRANCH  23  24
ENDBRANCH   1  23
TORSDOF 12
ENDMDL
MODEL 5
REMARK VINA RESULT:      -5.9      2.263      4.039
REMARK  Name = 193278
REMARK  12 active torsions:
REMARK  status: ('A' for Active; 'I' for Inactive)
REMARK    1  A    between atoms: C_1  and  C_4
REMARK    2  A    between atoms: C_1  and  N_11
REMARK    3  A    between atoms: C_1  and  C_23
REMARK    4  A    between atoms: N_3  and  C_6
REMARK    5  A    between atoms: C_6  and  C_8
REMARK    6  A    between atoms: C_8  and  O_9
REMARK    7  A    between atoms: N_11  and  S_13
REMARK    8  A    between atoms: S_13  and  C_16
REMARK    9  A    between atoms: C_23  and  C_24
REMARK   10  A    between atoms: C_24  and  C_25
REMARK   11  A    between atoms: C_25  and  N_26
REMARK   12  A    between atoms: N_26  and  C_29
REMARK                            x       y       z     vdW  Elec       q    Type
REMARK                         _______ _______ _______ _____ _____    ______ ____
ROOT
ATOM      1  C   UNL     1     -36.040  22.407   2.619  0.00  0.00    +0.152 C 
ENDROOT
BRANCH   1   4
ATOM      2  O   UNL     1     -35.283  20.652   4.059  0.00  0.00    -0.273 OA
ATOM      3  N   UNL     1     -35.579  22.724   5.054  0.00  0.00    -0.267 N 
ATOM      4  C   UNL     1     -35.602  21.843   3.966  0.00  0.00    +0.242 C 
ATOM      5  C   UNL     1     -35.175  22.305   6.390  0.00  0.00    +0.115 C 
BRANCH   3   6
ATOM      6  C   UNL     1     -35.960  24.128   4.931  0.00  0.00    +0.204 C 
BRANCH   6   8
ATOM      7  O   UNL     1     -33.652  24.743   4.631  0.00  0.00    -0.248 OA
ATOM      8  C   UNL     1     -34.779  25.063   4.988  0.00  0.00    +0.334 C 
BRANCH   8   9
ATOM      9  O   UNL     1     -35.083  26.290   5.473  0.00  0.00    -0.479 OA
ATOM     10  H   UNL     1     -34.952  27.050   4.940  0.00  0.00    +0.295 HD
ENDBRANCH   8   9
ENDBRANCH   6   8
ENDBRANCH   3   6
ENDBRANCH   1   4
BRANCH   1  11
ATOM     11  N   UNL     1     -35.640  21.373   1.637  0.00  0.00    -0.172 NA
ATOM     12  H   UNL     1     -35.186  20.626   2.164  0.00  0.00    +0.149 HD
BRANCH  11  13
ATOM     13  S   UNL     1     -34.596  21.776   0.360  0.00  0.00    +0.061 S 
ATOM     14  O   UNL     1     -33.972  23.057   0.633  0.00  0.00    -0.153 OA
ATOM     15  O   UNL     1     -35.285  21.554  -0.897  0.00  0.00    -0.153 OA
BRANCH  13  16
ATOM     16  C   UNL     1     -33.354  20.525   0.495  0.00  0.00    +0.122 C 
ATOM     17  C   UNL     1     -32.122  20.695  -0.136  0.00  0.00    +0.020 C 
ATOM     18  C   UNL     1     -33.606  19.368   1.232  0.00  0.00    +0.020 C 
ATOM     19  C   UNL     1     -31.393  18.552   0.709  0.00  0.00    -0.022 C 
ATOM     20  C   UNL     1     -31.142  19.710  -0.029  0.00  0.00    -0.003 C 
ATOM     21  C   UNL     1     -32.626  18.382   1.339  0.00  0.00    -0.003 C 
ATOM     22  C   UNL     1     -30.345  17.498   0.822  0.00  0.00    +0.031 C 
ENDBRANCH  13  16
ENDBRANCH  11  13
ENDBRANCH   1  11
BRANCH   1  23
ATOM     23  C   UNL     1     -37.558  22.624   2.553  0.00  0.00    +0.029 C 
BRANCH  23  24
ATOM     24  C   UNL     1     -38.000  23.272   1.235  0.00  0.00    +0.028 C 
BRANCH  24  25
ATOM     25  C   UNL     1     -37.222  24.546   0.924  0.00  0.00    +0.129 C 
BRANCH  25  26
ATOM     26  N   UNL     1     -38.015  25.717   1.301  0.00  0.00    -0.240 NA
BRANCH  26  29
ATOM     27  N   UNL     1     -36.644  27.043   2.761  0.00  0.00    -0.370 N 
ATOM     28  N   UNL     1     -38.584  26.113   3.513  0.00  0.00    -0.370 N 
ATOM     29  C   UNL     1     -37.737  26.269   2.441  0.00  0.00    +0.189 C 
ATOM     30  H   UNL     1     -35.958  27.231   2.080  0.00  0.00    +0.159 HD
ATOM     31  H   UNL     1     -36.547  27.406   3.670  0.00  0.00    +0.159 HD
ATOM     32  H   UNL     1     -39.406  25.580   3.416  0.00  0.00    +0.159 HD
ATOM     33  H   UNL     1     -38.368  26.534   4.376  0.00  0.00    +0.159 HD
ENDBRANCH  26  29
ENDBRANCH  25  26
ENDBRANCH  24  25
ENDBRANCH  23  24
ENDBRANCH   1  23
TORSDOF 12
ENDMDL
MODEL 6
REMARK VINA RESULT:      -5.8      2.523      4.981
REMARK  Name = 193278
REMARK  12 active torsions:
REMARK  status: ('A' for Active; 'I' for Inactive)
REMARK    1  A    between atoms: C_1  and  C_4
REMARK    2  A    between atoms: C_1  and  N_11
REMARK    3  A    between atoms: C_1  and  C_23
REMARK    4  A    between atoms: N_3  and  C_6
REMARK    5  A    between atoms: C_6  and  C_8
REMARK    6  A    between atoms: C_8  and  O_9
REMARK    7  A    between atoms: N_11  and  S_13
REMARK    8  A    between atoms: S_13  and  C_16
REMARK    9  A    between atoms: C_23  and  C_24
REMARK   10  A    between atoms: C_24  and  C_25
REMARK   11  A    between atoms: C_25  and  N_26
REMARK   12  A    between atoms: N_26  and  C_29
REMARK                            x       y       z     vdW  Elec       q    Type
REMARK                         _______ _______ _______ _____ _____    ______ ____
ROOT
ATOM      1  C   UNL     1     -36.283  22.144   2.064  0.00  0.00    +0.152 C 
ENDROOT
BRANCH   1   4
ATOM      2  O   UNL     1     -35.417  20.847   3.879  0.00  0.00    -0.273 OA
ATOM      3  N   UNL     1     -35.428  23.143   4.189  0.00  0.00    -0.267 N 
ATOM      4  C   UNL     1     -35.674  21.978   3.453  0.00  0.00    +0.242 C 
ATOM      5  C   UNL     1     -34.846  23.115   5.525  0.00  0.00    +0.115 C 
BRANCH   3   6
ATOM      6  C   UNL     1     -35.739  24.474   3.673  0.00  0.00    +0.204 C 
BRANCH   6   8
ATOM      7  O   UNL     1     -38.109  24.571   4.083  0.00  0.00    -0.248 OA
ATOM      8  C   UNL     1     -36.998  25.053   4.266  0.00  0.00    +0.334 C 
BRANCH   8   9
ATOM      9  O   UNL     1     -36.784  26.157   5.019  0.00  0.00    -0.479 OA
ATOM     10  H   UNL     1     -37.422  26.843   5.038  0.00  0.00    +0.295 HD
ENDBRANCH   8   9
ENDBRANCH   6   8
ENDBRANCH   3   6
ENDBRANCH   1   4
BRANCH   1  11
ATOM     11  N   UNL     1     -35.588  21.134   1.232  0.00  0.00    -0.172 NA
ATOM     12  H   UNL     1     -35.129  20.489   1.875  0.00  0.00    +0.149 HD
BRANCH  11  13
ATOM     13  S   UNL     1     -34.415  21.626   0.108  0.00  0.00    +0.061 S 
ATOM     14  O   UNL     1     -33.884  22.918   0.499  0.00  0.00    -0.153 OA
ATOM     15  O   UNL     1     -34.936  21.426  -1.231  0.00  0.00    -0.153 OA
BRANCH  13  16
ATOM     16  C   UNL     1     -33.147  20.419   0.353  0.00  0.00    +0.122 C 
ATOM     17  C   UNL     1     -33.394  19.300   1.147  0.00  0.00    +0.020 C 
ATOM     18  C   UNL     1     -31.899  20.586  -0.248  0.00  0.00    +0.020 C 
ATOM     19  C   UNL     1     -31.147  18.513   0.739  0.00  0.00    -0.022 C 
ATOM     20  C   UNL     1     -32.395  18.347   1.340  0.00  0.00    -0.003 C 
ATOM     21  C   UNL     1     -30.899  19.632  -0.055  0.00  0.00    -0.003 C 
ATOM     22  C   UNL     1     -30.078  17.494   0.947  0.00  0.00    +0.031 C 
ENDBRANCH  13  16
ENDBRANCH  11  13
ENDBRANCH   1  11
BRANCH   1  23
ATOM     23  C   UNL     1     -37.793  21.867   2.062  0.00  0.00    +0.029 C 
BRANCH  23  24
ATOM     24  C   UNL     1     -38.404  21.965   0.659  0.00  0.00    +0.028 C 
BRANCH  24  25
ATOM     25  C   UNL     1     -39.035  20.653   0.206  0.00  0.00    +0.129 C 
BRANCH  25  26
ATOM     26  N   UNL     1     -38.108  19.930  -0.665  0.00  0.00    -0.240 NA
BRANCH  26  29
ATOM     27  N   UNL     1     -36.866  18.367   0.672  0.00  0.00    -0.370 N 
ATOM     28  N   UNL     1     -38.352  17.635  -0.893  0.00  0.00    -0.370 N 
ATOM     29  C   UNL     1     -37.775  18.732  -0.297  0.00  0.00    +0.189 C 
ATOM     30  H   UNL     1     -36.380  19.060   1.176  0.00  0.00    +0.159 HD
ATOM     31  H   UNL     1     -36.700  17.416   0.859  0.00  0.00    +0.159 HD
ATOM     32  H   UNL     1     -39.022  17.758  -1.605  0.00  0.00    +0.159 HD
ATOM     33  H   UNL     1     -38.095  16.728  -0.610  0.00  0.00    +0.159 HD
ENDBRANCH  26  29
ENDBRANCH  25  26
ENDBRANCH  24  25
ENDBRANCH  23  24
ENDBRANCH   1  23
TORSDOF 12
ENDMDL
MODEL 7
REMARK VINA RESULT:      -5.8      2.412      4.974
REMARK  Name = 193278
REMARK  12 active torsions:
REMARK  status: ('A' for Active; 'I' for Inactive)
REMARK    1  A    between atoms: C_1  and  C_4
REMARK    2  A    between atoms: C_1  and  N_11
REMARK    3  A    between atoms: C_1  and  C_23
REMARK    4  A    between atoms: N_3  and  C_6
REMARK    5  A    between atoms: C_6  and  C_8
REMARK    6  A    between atoms: C_8  and  O_9
REMARK    7  A    between atoms: N_11  and  S_13
REMARK    8  A    between atoms: S_13  and  C_16
REMARK    9  A    between atoms: C_23  and  C_24
REMARK   10  A    between atoms: C_24  and  C_25
REMARK   11  A    between atoms: C_25  and  N_26
REMARK   12  A    between atoms: N_26  and  C_29
REMARK                            x       y       z     vdW  Elec       q    Type
REMARK                         _______ _______ _______ _____ _____    ______ ____
ROOT
ATOM      1  C   UNL     1     -36.173  22.561   2.723  0.00  0.00    +0.152 C 
ENDROOT
BRANCH   1   4
ATOM      2  O   UNL     1     -35.408  20.718   4.045  0.00  0.00    -0.273 OA
ATOM      3  N   UNL     1     -35.516  22.765   5.125  0.00  0.00    -0.267 N 
ATOM      4  C   UNL     1     -35.667  21.926   4.015  0.00  0.00    +0.242 C 
ATOM      5  C   UNL     1     -35.038  22.278   6.413  0.00  0.00    +0.115 C 
BRANCH   3   6
ATOM      6  C   UNL     1     -35.828  24.191   5.076  0.00  0.00    +0.204 C 
BRANCH   6   8
ATOM      7  O   UNL     1     -34.551  25.979   6.061  0.00  0.00    -0.248 OA
ATOM      8  C   UNL     1     -34.611  25.063   5.250  0.00  0.00    +0.334 C 
BRANCH   8   9
ATOM      9  O   UNL     1     -33.589  24.737   4.423  0.00  0.00    -0.479 OA
ATOM     10  H   UNL     1     -32.703  24.821   4.717  0.00  0.00    +0.295 HD
ENDBRANCH   8   9
ENDBRANCH   6   8
ENDBRANCH   3   6
ENDBRANCH   1   4
BRANCH   1  11
ATOM     11  N   UNL     1     -35.922  21.535   1.684  0.00  0.00    -0.172 NA
ATOM     12  H   UNL     1     -35.511  20.730   2.158  0.00  0.00    +0.149 HD
BRANCH  11  13
ATOM     13  S   UNL     1     -34.917  21.894   0.364  0.00  0.00    +0.061 S 
ATOM     14  O   UNL     1     -34.300  23.192   0.566  0.00  0.00    -0.153 OA
ATOM     15  O   UNL     1     -35.636  21.612  -0.863  0.00  0.00    -0.153 OA
BRANCH  13  16
ATOM     16  C   UNL     1     -33.658  20.663   0.518  0.00  0.00    +0.122 C 
ATOM     17  C   UNL     1     -32.418  20.853  -0.093  0.00  0.00    +0.020 C 
ATOM     18  C   UNL     1     -33.903  19.502   1.252  0.00  0.00    +0.020 C 
ATOM     19  C   UNL     1     -31.669  18.721   0.764  0.00  0.00    -0.022 C 
ATOM     20  C   UNL     1     -31.425  19.883   0.029  0.00  0.00    -0.003 C 
ATOM     21  C   UNL     1     -32.909  18.532   1.375  0.00  0.00    -0.003 C 
ATOM     22  C   UNL     1     -30.606  17.683   0.894  0.00  0.00    +0.031 C 
ENDBRANCH  13  16
ENDBRANCH  11  13
ENDBRANCH   1  11
BRANCH   1  23
ATOM     23  C   UNL     1     -37.673  22.878   2.787  0.00  0.00    +0.029 C 
BRANCH  23  24
ATOM     24  C   UNL     1     -38.401  22.527   1.483  0.00  0.00    +0.028 C 
BRANCH  24  25
ATOM     25  C   UNL     1     -39.536  21.532   1.700  0.00  0.00    +0.129 C 
BRANCH  25  26
ATOM     26  N   UNL     1     -39.777  20.776   0.471  0.00  0.00    -0.240 NA
BRANCH  26  29
ATOM     27  N   UNL     1     -37.784  19.439   0.359  0.00  0.00    -0.370 N 
ATOM     28  N   UNL     1     -38.471  20.656  -1.441  0.00  0.00    -0.370 N 
ATOM     29  C   UNL     1     -38.734  20.303  -0.139  0.00  0.00    +0.189 C 
ATOM     30  H   UNL     1     -37.855  19.110   1.284  0.00  0.00    +0.159 HD
ATOM     31  H   UNL     1     -37.033  19.153  -0.209  0.00  0.00    +0.159 HD
ATOM     32  H   UNL     1     -39.076  21.271  -1.916  0.00  0.00    +0.159 HD
ATOM     33  H   UNL     1     -37.678  20.294  -1.899  0.00  0.00    +0.159 HD
ENDBRANCH  26  29
ENDBRANCH  25  26
ENDBRANCH  24  25
ENDBRANCH  23  24
ENDBRANCH   1  23
TORSDOF 12
ENDMDL
MODEL 8
REMARK VINA RESULT:      -5.7      1.510      2.051
REMARK  Name = 193278
REMARK  12 active torsions:
REMARK  status: ('A' for Active; 'I' for Inactive)
REMARK    1  A    between atoms: C_1  and  C_4
REMARK    2  A    between atoms: C_1  and  N_11
REMARK    3  A    between atoms: C_1  and  C_23
REMARK    4  A    between atoms: N_3  and  C_6
REMARK    5  A    between atoms: C_6  and  C_8
REMARK    6  A    between atoms: C_8  and  O_9
REMARK    7  A    between atoms: N_11  and  S_13
REMARK    8  A    between atoms: S_13  and  C_16
REMARK    9  A    between atoms: C_23  and  C_24
REMARK   10  A    between atoms: C_24  and  C_25
REMARK   11  A    between atoms: C_25  and  N_26
REMARK   12  A    between atoms: N_26  and  C_29
REMARK                            x       y       z     vdW  Elec       q    Type
REMARK                         _______ _______ _______ _____ _____    ______ ____
ROOT
ATOM      1  C   UNL     1     -36.159  23.133   2.748  0.00  0.00    +0.152 C 
ENDROOT
BRANCH   1   4
ATOM      2  O   UNL     1     -35.779  25.324   1.863  0.00  0.00    -0.273 OA
ATOM      3  N   UNL     1     -37.997  24.708   2.130  0.00  0.00    -0.267 N 
ATOM      4  C   UNL     1     -36.617  24.484   2.209  0.00  0.00    +0.242 C 
ATOM      5  C   UNL     1     -38.558  25.957   1.629  0.00  0.00    +0.115 C 
BRANCH   3   6
ATOM      6  C   UNL     1     -38.977  23.707   2.544  0.00  0.00    +0.204 C 
BRANCH   6   8
ATOM      7  O   UNL     1     -40.875  23.071   1.206  0.00  0.00    -0.248 OA
ATOM      8  C   UNL     1     -39.663  23.042   1.379  0.00  0.00    +0.334 C 
BRANCH   8   9
ATOM      9  O   UNL     1     -38.810  22.405   0.541  0.00  0.00    -0.479 OA
ATOM     10  H   UNL     1     -38.519  22.830  -0.242  0.00  0.00    +0.295 HD
ENDBRANCH   8   9
ENDBRANCH   6   8
ENDBRANCH   3   6
ENDBRANCH   1   4
BRANCH   1  11
ATOM     11  N   UNL     1     -35.663  22.408   1.555  0.00  0.00    -0.172 NA
ATOM     12  H   UNL     1     -36.168  22.782   0.752  0.00  0.00    +0.149 HD
BRANCH  11  13
ATOM     13  S   UNL     1     -35.797  20.717   1.475  0.00  0.00    +0.061 S 
ATOM     14  O   UNL     1     -36.682  20.354   0.384  0.00  0.00    -0.153 OA
ATOM     15  O   UNL     1     -36.034  20.202   2.809  0.00  0.00    -0.153 OA
BRANCH  13  16
ATOM     16  C   UNL     1     -34.155  20.242   1.024  0.00  0.00    +0.122 C 
ATOM     17  C   UNL     1     -33.636  19.024   1.463  0.00  0.00    +0.020 C 
ATOM     18  C   UNL     1     -33.378  21.085   0.229  0.00  0.00    +0.020 C 
ATOM     19  C   UNL     1     -31.564  19.491   0.311  0.00  0.00    -0.022 C 
ATOM     20  C   UNL     1     -32.341  18.649   1.107  0.00  0.00    -0.003 C 
ATOM     21  C   UNL     1     -32.083  20.709  -0.128  0.00  0.00    -0.003 C 
ATOM     22  C   UNL     1     -30.179  19.090  -0.069  0.00  0.00    +0.031 C 
ENDBRANCH  13  16
ENDBRANCH  11  13
ENDBRANCH   1  11
BRANCH   1  23
ATOM     23  C   UNL     1     -35.027  23.277   3.774  0.00  0.00    +0.029 C 
BRANCH  23  24
ATOM     24  C   UNL     1     -35.553  23.450   5.205  0.00  0.00    +0.028 C 
BRANCH  24  25
ATOM     25  C   UNL     1     -35.691  24.916   5.600  0.00  0.00    +0.129 C 
BRANCH  25  26
ATOM     26  N   UNL     1     -34.389  25.579   5.517  0.00  0.00    -0.240 NA
BRANCH  26  29
ATOM     27  N   UNL     1     -35.341  27.278   4.109  0.00  0.00    -0.370 N 
ATOM     28  N   UNL     1     -33.201  27.462   4.871  0.00  0.00    -0.370 N 
ATOM     29  C   UNL     1     -34.344  26.698   4.863  0.00  0.00    +0.189 C 
ATOM     30  H   UNL     1     -36.213  26.831   4.021  0.00  0.00    +0.159 HD
ATOM     31  H   UNL     1     -35.180  28.137   3.658  0.00  0.00    +0.159 HD
ATOM     32  H   UNL     1     -32.410  27.159   5.375  0.00  0.00    +0.159 HD
ATOM     33  H   UNL     1     -33.172  28.311   4.373  0.00  0.00    +0.159 HD
ENDBRANCH  26  29
ENDBRANCH  25  26
ENDBRANCH  24  25
ENDBRANCH  23  24
ENDBRANCH   1  23
TORSDOF 12
ENDMDL
MODEL 9
REMARK VINA RESULT:      -5.7      3.265      5.331
REMARK  Name = 193278
REMARK  12 active torsions:
REMARK  status: ('A' for Active; 'I' for Inactive)
REMARK    1  A    between atoms: C_1  and  C_4
REMARK    2  A    between atoms: C_1  and  N_11
REMARK    3  A    between atoms: C_1  and  C_23
REMARK    4  A    between atoms: N_3  and  C_6
REMARK    5  A    between atoms: C_6  and  C_8
REMARK    6  A    between atoms: C_8  and  O_9
REMARK    7  A    between atoms: N_11  and  S_13
REMARK    8  A    between atoms: S_13  and  C_16
REMARK    9  A    between atoms: C_23  and  C_24
REMARK   10  A    between atoms: C_24  and  C_25
REMARK   11  A    between atoms: C_25  and  N_26
REMARK   12  A    between atoms: N_26  and  C_29
REMARK                            x       y       z     vdW  Elec       q    Type
REMARK                         _______ _______ _______ _____ _____    ______ ____
ROOT
ATOM      1  C   UNL     1     -36.332  24.906   3.718  0.00  0.00    +0.152 C 
ENDROOT
BRANCH   1   4
ATOM      2  O   UNL     1     -38.664  24.405   3.515  0.00  0.00    -0.273 OA
ATOM      3  N   UNL     1     -37.207  22.812   2.673  0.00  0.00    -0.267 N 
ATOM      4  C   UNL     1     -37.507  24.028   3.299  0.00  0.00    +0.242 C 
ATOM      5  C   UNL     1     -38.242  21.889   2.223  0.00  0.00    +0.115 C 
BRANCH   3   6
ATOM      6  C   UNL     1     -35.835  22.377   2.424  0.00  0.00    +0.204 C 
BRANCH   6   8
ATOM      7  O   UNL     1     -35.153  20.070   2.524  0.00  0.00    -0.248 OA
ATOM      8  C   UNL     1     -35.495  21.085   3.120  0.00  0.00    +0.334 C 
BRANCH   8   9
ATOM      9  O   UNL     1     -35.604  21.151   4.469  0.00  0.00    -0.479 OA
ATOM     10  H   UNL     1     -34.872  20.929   5.009  0.00  0.00    +0.295 HD
ENDBRANCH   8   9
ENDBRANCH   6   8
ENDBRANCH   3   6
ENDBRANCH   1   4
BRANCH   1  11
ATOM     11  N   UNL     1     -36.816  26.291   3.515  0.00  0.00    -0.172 NA
ATOM     12  H   UNL     1     -37.748  26.221   3.107  0.00  0.00    +0.149 HD
BRANCH  11  13
ATOM     13  S   UNL     1     -35.931  27.363   2.539  0.00  0.00    +0.061 S 
ATOM     14  O   UNL     1     -35.069  28.177   3.375  0.00  0.00    -0.153 OA
ATOM     15  O   UNL     1     -36.835  27.989   1.593  0.00  0.00    -0.153 OA
BRANCH  13  16
ATOM     16  C   UNL     1     -34.907  26.255   1.617  0.00  0.00    +0.122 C 
ATOM     17  C   UNL     1     -33.572  26.075   1.979  0.00  0.00    +0.020 C 
ATOM     18  C   UNL     1     -35.434  25.560   0.528  0.00  0.00    +0.020 C 
ATOM     19  C   UNL     1     -33.291  24.505   0.164  0.00  0.00    -0.022 C 
ATOM     20  C   UNL     1     -32.765  25.201   1.254  0.00  0.00    -0.003 C 
ATOM     21  C   UNL     1     -34.626  24.685  -0.198  0.00  0.00    -0.003 C 
ATOM     22  C   UNL     1     -32.427  23.570  -0.612  0.00  0.00    +0.031 C 
ENDBRANCH  13  16
ENDBRANCH  11  13
ENDBRANCH   1  11
BRANCH   1  23
ATOM     23  C   UNL     1     -35.957  24.698   5.192  0.00  0.00    +0.029 C 
BRANCH  23  24
ATOM     24  C   UNL     1     -34.447  24.821   5.434  0.00  0.00    +0.028 C 
BRANCH  24  25
ATOM     25  C   UNL     1     -34.066  26.155   6.068  0.00  0.00    +0.129 C 
BRANCH  25  26
ATOM     26  N   UNL     1     -32.845  26.669   5.448  0.00  0.00    -0.240 NA
BRANCH  26  29
ATOM     27  N   UNL     1     -31.915  28.224   7.026  0.00  0.00    -0.370 N 
ATOM     28  N   UNL     1     -32.558  28.916   4.953  0.00  0.00    -0.370 N 
ATOM     29  C   UNL     1     -32.456  27.851   5.815  0.00  0.00    +0.189 C 
ATOM     30  H   UNL     1     -31.788  27.553   7.735  0.00  0.00    +0.159 HD
ATOM     31  H   UNL     1     -31.658  29.160   7.183  0.00  0.00    +0.159 HD
ATOM     32  H   UNL     1     -32.930  28.784   4.050  0.00  0.00    +0.159 HD
ATOM     33  H   UNL     1     -32.261  29.811   5.237  0.00  0.00    +0.159 HD
ENDBRANCH  26  29
ENDBRANCH  25  26
ENDBRANCH  24  25
ENDBRANCH  23  24
ENDBRANCH   1  23
TORSDOF 12
ENDMDL
