MODEL 1
REMARK VINA RESULT:      -6.0      0.000      0.000
REMARK  Name = 19973
REMARK  5 active torsions:
REMARK  status: ('A' for Active; 'I' for Inactive)
REMARK    1  A    between atoms: C_7  and  O_19
REMARK    2  A    between atoms: C_9  and  C_23
REMARK    3  A    between atoms: C_16  and  O_21
REMARK    4  A    between atoms: C_23  and  O_24
REMARK    5  A    between atoms: O_24  and  C_27
REMARK                            x       y       z     vdW  Elec       q    Type
REMARK                         _______ _______ _______ _____ _____    ______ ____
ROOT
ATOM      1  O   UNL     1     -34.729  23.534   5.785  0.00  0.00    -0.285 OA
ATOM      2  O   UNL     1     -36.241  26.767   1.804  0.00  0.00    -0.284 OA
ATOM      3  N   UNL     1     -35.076  21.284   1.202  0.00  0.00    +0.389 N 
ATOM      4  N   UNL     1     -36.257  22.512   3.539  0.00  0.00    -0.291 N 
ATOM      5  C   UNL     1     -36.498  21.305   1.531  0.00  0.00    -0.032 C 
ATOM      6  C   UNL     1     -35.517  20.604   2.413  0.00  0.00    -0.053 C 
ATOM      7  C   UNL     1     -37.107  22.418   2.330  0.00  0.00    +0.137 C 
ATOM      8  C   UNL     1     -35.437  21.317   3.733  0.00  0.00    +0.070 C 
ATOM      9  C   UNL     1     -37.015  23.843   1.691  0.00  0.00    +0.111 C 
ATOM     10  C   UNL     1     -35.878  23.819   3.751  0.00  0.00    +0.088 C 
ATOM     11  C   UNL     1     -36.283  24.621   2.765  0.00  0.00    +0.043 C 
ATOM     12  C   UNL     1     -34.593  20.418   0.152  0.00  0.00    -0.100 C 
ATOM     13  C   UNL     1     -35.081  24.293   4.889  0.00  0.00    +0.208 C 
ATOM     14  C   UNL     1     -35.922  26.040   2.738  0.00  0.00    +0.227 C 
ATOM     15  C   UNL     1     -34.737  25.755   4.903  0.00  0.00    +0.055 C 
ATOM     16  C   UNL     1     -35.133  26.560   3.895  0.00  0.00    +0.176 C 
ATOM     17  C   UNL     1     -33.946  26.183   6.110  0.00  0.00    +0.038 C 
ATOM     18  H   UNL     1     -34.414  22.024   0.970  0.00  0.00    -0.080 HD
ENDROOT
BRANCH   7  19
ATOM     19  O   UNL     1     -38.432  22.059   2.697  0.00  0.00    -0.372 OA
ATOM     20  H   UNL     1     -38.763  21.378   2.090  0.00  0.00    +0.212 HD
ENDBRANCH   7  19
BRANCH  16  21
ATOM     21  O   UNL     1     -34.853  27.909   3.821  0.00  0.00    -0.468 OA
ATOM     22  C   UNL     1     -33.586  28.126   3.231  0.00  0.00    +0.253 C 
ENDBRANCH  16  21
BRANCH   9  23
ATOM     23  C   UNL     1     -38.377  24.444   1.349  0.00  0.00    +0.218 C 
BRANCH  23  24
ATOM     24  O   UNL     1     -39.079  24.681   2.555  0.00  0.00    -0.434 OA
BRANCH  24  27
ATOM     25  O   UNL     1     -39.585  26.823   1.877  0.00  0.00    -0.227 OA
ATOM     26  N   UNL     1     -40.571  25.901   3.739  0.00  0.00    -0.295 N 
ATOM     27  C   UNL     1     -39.731  25.884   2.653  0.00  0.00    +0.398 C 
ATOM     28  H   UNL     1     -40.639  25.111   4.322  0.00  0.00    +0.148 HD
ATOM     29  H   UNL     1     -41.105  26.704   3.935  0.00  0.00    +0.148 HD
ENDBRANCH  24  27
ENDBRANCH  23  24
ENDBRANCH   9  23
TORSDOF 5
ENDMDL
MODEL 2
REMARK VINA RESULT:      -6.0      2.320      5.998
REMARK  Name = 19973
REMARK  5 active torsions:
REMARK  status: ('A' for Active; 'I' for Inactive)
REMARK    1  A    between atoms: C_7  and  O_19
REMARK    2  A    between atoms: C_9  and  C_23
REMARK    3  A    between atoms: C_16  and  O_21
REMARK    4  A    between atoms: C_23  and  O_24
REMARK    5  A    between atoms: O_24  and  C_27
REMARK                            x       y       z     vdW  Elec       q    Type
REMARK                         _______ _______ _______ _____ _____    ______ ____
ROOT
ATOM      1  O   UNL     1     -39.174  27.330   1.002  0.00  0.00    -0.285 OA
ATOM      2  O   UNL     1     -37.842  22.655   3.229  0.00  0.00    -0.284 OA
ATOM      3  N   UNL     1     -34.148  26.375   1.155  0.00  0.00    +0.389 N 
ATOM      4  N   UNL     1     -36.664  27.024   2.426  0.00  0.00    -0.291 N 
ATOM      5  C   UNL     1     -34.323  26.793   2.543  0.00  0.00    -0.032 C 
ATOM      6  C   UNL     1     -34.672  27.709   1.417  0.00  0.00    -0.053 C 
ATOM      7  C   UNL     1     -35.585  26.507   3.300  0.00  0.00    +0.137 C 
ATOM      8  C   UNL     1     -36.157  27.937   1.403  0.00  0.00    +0.070 C 
ATOM      9  C   UNL     1     -35.940  24.996   3.486  0.00  0.00    +0.111 C 
ATOM     10  C   UNL     1     -37.645  26.070   2.272  0.00  0.00    +0.088 C 
ATOM     11  C   UNL     1     -37.314  24.917   2.854  0.00  0.00    +0.043 C 
ATOM     12  C   UNL     1     -32.826  26.336   0.576  0.00  0.00    -0.100 C 
ATOM     13  C   UNL     1     -38.892  26.256   1.520  0.00  0.00    +0.208 C 
ATOM     14  C   UNL     1     -38.171  23.734   2.748  0.00  0.00    +0.227 C 
ATOM     15  C   UNL     1     -39.806  25.068   1.436  0.00  0.00    +0.055 C 
ATOM     16  C   UNL     1     -39.460  23.896   2.010  0.00  0.00    +0.176 C 
ATOM     17  C   UNL     1     -41.080  25.331   0.679  0.00  0.00    +0.038 C 
ATOM     18  H   UNL     1     -34.455  25.549   0.643  0.00  0.00    -0.080 HD
ENDROOT
BRANCH   7  19
ATOM     19  O   UNL     1     -35.568  27.229   4.525  0.00  0.00    -0.372 OA
ATOM     20  H   UNL     1     -36.294  27.873   4.531  0.00  0.00    +0.212 HD
ENDBRANCH   7  19
BRANCH  16  21
ATOM     21  O   UNL     1     -40.233  22.753   1.973  0.00  0.00    -0.468 OA
ATOM     22  C   UNL     1     -39.969  22.009   0.800  0.00  0.00    +0.253 C 
ENDBRANCH  16  21
BRANCH   9  23
ATOM     23  C   UNL     1     -35.933  24.545   4.947  0.00  0.00    +0.218 C 
BRANCH  23  24
ATOM     24  O   UNL     1     -34.994  23.496   5.087  0.00  0.00    -0.434 OA
BRANCH  24  27
ATOM     25  O   UNL     1     -35.927  22.064   6.630  0.00  0.00    -0.227 OA
ATOM     26  N   UNL     1     -35.433  21.356   4.499  0.00  0.00    -0.295 N 
ATOM     27  C   UNL     1     -35.490  22.287   5.506  0.00  0.00    +0.398 C 
ATOM     28  H   UNL     1     -35.069  21.604   3.619  0.00  0.00    +0.148 HD
ATOM     29  H   UNL     1     -35.756  20.440   4.657  0.00  0.00    +0.148 HD
ENDBRANCH  24  27
ENDBRANCH  23  24
ENDBRANCH   9  23
TORSDOF 5
ENDMDL
MODEL 3
REMARK VINA RESULT:      -5.9      1.658      2.460
REMARK  Name = 19973
REMARK  5 active torsions:
REMARK  status: ('A' for Active; 'I' for Inactive)
REMARK    1  A    between atoms: C_7  and  O_19
REMARK    2  A    between atoms: C_9  and  C_23
REMARK    3  A    between atoms: C_16  and  O_21
REMARK    4  A    between atoms: C_23  and  O_24
REMARK    5  A    between atoms: O_24  and  C_27
REMARK                            x       y       z     vdW  Elec       q    Type
REMARK                         _______ _______ _______ _____ _____    ______ ____
ROOT
ATOM      1  O   UNL     1     -33.348  26.160   6.227  0.00  0.00    -0.285 OA
ATOM      2  O   UNL     1     -34.866  27.937   1.418  0.00  0.00    -0.284 OA
ATOM      3  N   UNL     1     -35.393  22.604   3.166  0.00  0.00    +0.389 N 
ATOM      4  N   UNL     1     -35.594  24.955   4.838  0.00  0.00    -0.291 N 
ATOM      5  C   UNL     1     -36.632  23.239   3.604  0.00  0.00    -0.032 C 
ATOM      6  C   UNL     1     -35.690  22.635   4.592  0.00  0.00    -0.053 C 
ATOM      7  C   UNL     1     -36.707  24.708   3.892  0.00  0.00    +0.137 C 
ATOM      8  C   UNL     1     -35.102  23.720   5.448  0.00  0.00    +0.070 C 
ATOM      9  C   UNL     1     -36.397  25.655   2.687  0.00  0.00    +0.111 C 
ATOM     10  C   UNL     1     -34.840  26.026   4.411  0.00  0.00    +0.088 C 
ATOM     11  C   UNL     1     -35.244  26.478   3.224  0.00  0.00    +0.043 C 
ATOM     12  C   UNL     1     -35.431  21.294   2.559  0.00  0.00    -0.100 C 
ATOM     13  C   UNL     1     -33.693  26.590   5.132  0.00  0.00    +0.208 C 
ATOM     14  C   UNL     1     -34.536  27.560   2.537  0.00  0.00    +0.227 C 
ATOM     15  C   UNL     1     -32.978  27.730   4.465  0.00  0.00    +0.055 C 
ATOM     16  C   UNL     1     -33.378  28.173   3.255  0.00  0.00    +0.176 C 
ATOM     17  C   UNL     1     -31.831  28.284   5.268  0.00  0.00    +0.038 C 
ATOM     18  H   UNL     1     -34.635  22.920   2.563  0.00  0.00    -0.080 HD
ENDROOT
BRANCH   7  19
ATOM     19  O   UNL     1     -37.948  24.998   4.521  0.00  0.00    -0.372 OA
ATOM     20  H   UNL     1     -38.677  24.715   3.946  0.00  0.00    +0.212 HD
ENDBRANCH   7  19
BRANCH  16  21
ATOM     21  O   UNL     1     -32.775  29.206   2.566  0.00  0.00    -0.468 OA
ATOM     22  C   UNL     1     -33.326  30.451   2.948  0.00  0.00    +0.253 C 
ENDBRANCH  16  21
BRANCH   9  23
ATOM     23  C   UNL     1     -37.590  26.511   2.264  0.00  0.00    +0.218 C 
BRANCH  23  24
ATOM     24  O   UNL     1     -38.686  25.654   2.005  0.00  0.00    -0.434 OA
BRANCH  24  27
ATOM     25  O   UNL     1     -40.510  26.932   1.418  0.00  0.00    -0.227 OA
ATOM     26  N   UNL     1     -40.459  25.776   3.405  0.00  0.00    -0.295 N 
ATOM     27  C   UNL     1     -39.935  26.187   2.204  0.00  0.00    +0.398 C 
ATOM     28  H   UNL     1     -39.942  25.176   3.989  0.00  0.00    +0.148 HD
ATOM     29  H   UNL     1     -41.353  26.081   3.682  0.00  0.00    +0.148 HD
ENDBRANCH  24  27
ENDBRANCH  23  24
ENDBRANCH   9  23
TORSDOF 5
ENDMDL
MODEL 4
REMARK VINA RESULT:      -5.8      2.544      5.886
REMARK  Name = 19973
REMARK  5 active torsions:
REMARK  status: ('A' for Active; 'I' for Inactive)
REMARK    1  A    between atoms: C_7  and  O_19
REMARK    2  A    between atoms: C_9  and  C_23
REMARK    3  A    between atoms: C_16  and  O_21
REMARK    4  A    between atoms: C_23  and  O_24
REMARK    5  A    between atoms: O_24  and  C_27
REMARK                            x       y       z     vdW  Elec       q    Type
REMARK                         _______ _______ _______ _____ _____    ______ ____
ROOT
ATOM      1  O   UNL     1     -39.641  20.950   0.788  0.00  0.00    -0.285 OA
ATOM      2  O   UNL     1     -34.821  23.058   1.742  0.00  0.00    -0.284 OA
ATOM      3  N   UNL     1     -39.443  26.059   0.553  0.00  0.00    +0.389 N 
ATOM      4  N   UNL     1     -39.380  23.566   2.018  0.00  0.00    -0.291 N 
ATOM      5  C   UNL     1     -39.481  25.918   2.005  0.00  0.00    -0.032 C 
ATOM      6  C   UNL     1     -40.580  25.373   1.153  0.00  0.00    -0.053 C 
ATOM      7  C   UNL     1     -38.835  24.760   2.704  0.00  0.00    +0.137 C 
ATOM      8  C   UNL     1     -40.579  23.873   1.240  0.00  0.00    +0.070 C 
ATOM      9  C   UNL     1     -37.288  24.631   2.518  0.00  0.00    +0.111 C 
ATOM     10  C   UNL     1     -38.355  22.718   1.660  0.00  0.00    +0.088 C 
ATOM     11  C   UNL     1     -37.159  23.243   1.926  0.00  0.00    +0.043 C 
ATOM     12  C   UNL     1     -39.745  27.333  -0.056  0.00  0.00    -0.100 C 
ATOM     13  C   UNL     1     -38.528  21.411   1.014  0.00  0.00    +0.208 C 
ATOM     14  C   UNL     1     -35.922  22.553   1.554  0.00  0.00    +0.227 C 
ATOM     15  C   UNL     1     -37.272  20.666   0.663  0.00  0.00    +0.055 C 
ATOM     16  C   UNL     1     -36.062  21.209   0.917  0.00  0.00    +0.176 C 
ATOM     17  C   UNL     1     -37.516  19.321   0.033  0.00  0.00    +0.038 C 
ATOM     18  H   UNL     1     -38.729  25.836  -0.140  0.00  0.00    -0.080 HD
ENDROOT
BRANCH   7  19
ATOM     19  O   UNL     1     -39.233  24.757   4.068  0.00  0.00    -0.372 OA
ATOM     20  H   UNL     1     -38.539  24.345   4.607  0.00  0.00    +0.212 HD
ENDBRANCH   7  19
BRANCH  16  21
ATOM     21  O   UNL     1     -34.859  20.601   0.620  0.00  0.00    -0.468 OA
ATOM     22  C   UNL     1     -34.436  19.779   1.690  0.00  0.00    +0.253 C 
ENDBRANCH  16  21
BRANCH   9  23
ATOM     23  C   UNL     1     -36.504  24.796   3.819  0.00  0.00    +0.218 C 
BRANCH  23  24
ATOM     24  O   UNL     1     -36.733  23.657   4.628  0.00  0.00    -0.434 OA
BRANCH  24  27
ATOM     25  O   UNL     1     -34.492  23.552   5.149  0.00  0.00    -0.227 OA
ATOM     26  N   UNL     1     -36.011  22.141   6.143  0.00  0.00    -0.295 N 
ATOM     27  C   UNL     1     -35.643  23.154   5.293  0.00  0.00    +0.398 C 
ATOM     28  H   UNL     1     -36.955  21.871   6.209  0.00  0.00    +0.148 HD
ATOM     29  H   UNL     1     -35.330  21.684   6.688  0.00  0.00    +0.148 HD
ENDBRANCH  24  27
ENDBRANCH  23  24
ENDBRANCH   9  23
TORSDOF 5
ENDMDL
MODEL 5
REMARK VINA RESULT:      -5.8      1.640      2.372
REMARK  Name = 19973
REMARK  5 active torsions:
REMARK  status: ('A' for Active; 'I' for Inactive)
REMARK    1  A    between atoms: C_7  and  O_19
REMARK    2  A    between atoms: C_9  and  C_23
REMARK    3  A    between atoms: C_16  and  O_21
REMARK    4  A    between atoms: C_23  and  O_24
REMARK    5  A    between atoms: O_24  and  C_27
REMARK                            x       y       z     vdW  Elec       q    Type
REMARK                         _______ _______ _______ _____ _____    ______ ____
ROOT
ATOM      1  O   UNL     1     -35.214  20.639   4.429  0.00  0.00    -0.285 OA
ATOM      2  O   UNL     1     -36.719  25.623   3.212  0.00  0.00    -0.284 OA
ATOM      3  N   UNL     1     -34.463  21.981  -0.453  0.00  0.00    +0.389 N 
ATOM      4  N   UNL     1     -36.179  21.292   1.771  0.00  0.00    -0.291 N 
ATOM      5  C   UNL     1     -35.895  21.711  -0.529  0.00  0.00    -0.032 C 
ATOM      6  C   UNL     1     -34.937  20.649  -0.099  0.00  0.00    -0.053 C 
ATOM      7  C   UNL     1     -36.813  21.985   0.624  0.00  0.00    +0.137 C 
ATOM      8  C   UNL     1     -35.184  20.310   1.343  0.00  0.00    +0.070 C 
ATOM      9  C   UNL     1     -36.901  23.477   1.085  0.00  0.00    +0.111 C 
ATOM     10  C   UNL     1     -36.090  22.146   2.848  0.00  0.00    +0.088 C 
ATOM     11  C   UNL     1     -36.492  23.380   2.540  0.00  0.00    +0.043 C 
ATOM     12  C   UNL     1     -33.678  22.053  -1.663  0.00  0.00    -0.100 C 
ATOM     13  C   UNL     1     -35.570  21.783   4.172  0.00  0.00    +0.208 C 
ATOM     14  C   UNL     1     -36.407  24.475   3.509  0.00  0.00    +0.227 C 
ATOM     15  C   UNL     1     -35.515  22.882   5.194  0.00  0.00    +0.055 C 
ATOM     16  C   UNL     1     -35.906  24.133   4.874  0.00  0.00    +0.176 C 
ATOM     17  C   UNL     1     -35.002  22.439   6.538  0.00  0.00    +0.038 C 
ATOM     18  H   UNL     1     -33.926  22.718   0.003  0.00  0.00    -0.080 HD
ENDROOT
BRANCH   7  19
ATOM     19  O   UNL     1     -38.085  21.410   0.356  0.00  0.00    -0.372 OA
ATOM     20  H   UNL     1     -38.758  21.847   0.901  0.00  0.00    +0.212 HD
ENDBRANCH   7  19
BRANCH  16  21
ATOM     21  O   UNL     1     -35.879  25.203   5.745  0.00  0.00    -0.468 OA
ATOM     22  C   UNL     1     -34.615  25.837   5.721  0.00  0.00    +0.253 C 
ENDBRANCH  16  21
BRANCH   9  23
ATOM     23  C   UNL     1     -38.289  24.089   0.898  0.00  0.00    +0.218 C 
BRANCH  23  24
ATOM     24  O   UNL     1     -39.141  23.585   1.910  0.00  0.00    -0.434 OA
BRANCH  24  27
ATOM     25  O   UNL     1     -41.038  24.885   1.799  0.00  0.00    -0.227 OA
ATOM     26  N   UNL     1     -39.763  24.804   3.712  0.00  0.00    -0.295 N 
ATOM     27  C   UNL     1     -40.067  24.461   2.417  0.00  0.00    +0.398 C 
ATOM     28  H   UNL     1     -38.966  24.426   4.147  0.00  0.00    +0.148 HD
ATOM     29  H   UNL     1     -40.344  25.428   4.204  0.00  0.00    +0.148 HD
ENDBRANCH  24  27
ENDBRANCH  23  24
ENDBRANCH   9  23
TORSDOF 5
ENDMDL
MODEL 6
REMARK VINA RESULT:      -5.7      2.471      5.706
REMARK  Name = 19973
REMARK  5 active torsions:
REMARK  status: ('A' for Active; 'I' for Inactive)
REMARK    1  A    between atoms: C_7  and  O_19
REMARK    2  A    between atoms: C_9  and  C_23
REMARK    3  A    between atoms: C_16  and  O_21
REMARK    4  A    between atoms: C_23  and  O_24
REMARK    5  A    between atoms: O_24  and  C_27
REMARK                            x       y       z     vdW  Elec       q    Type
REMARK                         _______ _______ _______ _____ _____    ______ ____
ROOT
ATOM      1  O   UNL     1     -35.390  21.359  -0.406  0.00  0.00    -0.285 OA
ATOM      2  O   UNL     1     -40.449  20.989   1.284  0.00  0.00    -0.284 OA
ATOM      3  N   UNL     1     -36.103  22.536   4.524  0.00  0.00    +0.389 N 
ATOM      4  N   UNL     1     -36.384  23.092   1.699  0.00  0.00    -0.291 N 
ATOM      5  C   UNL     1     -36.568  23.791   3.941  0.00  0.00    -0.032 C 
ATOM      6  C   UNL     1     -35.181  23.297   3.691  0.00  0.00    -0.053 C 
ATOM      7  C   UNL     1     -37.277  23.833   2.621  0.00  0.00    +0.137 C 
ATOM      8  C   UNL     1     -35.033  22.945   2.238  0.00  0.00    +0.070 C 
ATOM      9  C   UNL     1     -38.629  23.050   2.549  0.00  0.00    +0.111 C 
ATOM     10  C   UNL     1     -37.105  22.149   1.000  0.00  0.00    +0.088 C 
ATOM     11  C   UNL     1     -38.371  22.083   1.412  0.00  0.00    +0.043 C 
ATOM     12  C   UNL     1     -35.759  22.476   5.925  0.00  0.00    -0.100 C 
ATOM     13  C   UNL     1     -36.557  21.272  -0.042  0.00  0.00    +0.208 C 
ATOM     14  C   UNL     1     -39.301  21.093   0.865  0.00  0.00    +0.227 C 
ATOM     15  C   UNL     1     -37.506  20.277  -0.647  0.00  0.00    +0.055 C 
ATOM     16  C   UNL     1     -38.783  20.201  -0.215  0.00  0.00    +0.176 C 
ATOM     17  C   UNL     1     -36.894  19.430  -1.729  0.00  0.00    +0.038 C 
ATOM     18  H   UNL     1     -36.491  21.593   4.524  0.00  0.00    -0.080 HD
ENDROOT
BRANCH   7  19
ATOM     19  O   UNL     1     -37.395  25.184   2.196  0.00  0.00    -0.372 OA
ATOM     20  H   UNL     1     -36.953  25.764   2.837  0.00  0.00    +0.212 HD
ENDBRANCH   7  19
BRANCH  16  21
ATOM     21  O   UNL     1     -39.719  19.313  -0.706  0.00  0.00    -0.468 OA
ATOM     22  C   UNL     1     -40.398  19.865  -1.817  0.00  0.00    +0.253 C 
ENDBRANCH  16  21
BRANCH   9  23
ATOM     23  C   UNL     1     -39.839  23.949   2.299  0.00  0.00    +0.218 C 
BRANCH  23  24
ATOM     24  O   UNL     1     -39.990  24.815   3.408  0.00  0.00    -0.434 OA
BRANCH  24  27
ATOM     25  O   UNL     1     -40.052  26.769   2.192  0.00  0.00    -0.227 OA
ATOM     26  N   UNL     1     -41.369  26.487   4.056  0.00  0.00    -0.295 N 
ATOM     27  C   UNL     1     -40.435  26.084   3.134  0.00  0.00    +0.398 C 
ATOM     28  H   UNL     1     -41.630  25.885   4.789  0.00  0.00    +0.148 HD
ATOM     29  H   UNL     1     -41.777  27.381   3.984  0.00  0.00    +0.148 HD
ENDBRANCH  24  27
ENDBRANCH  23  24
ENDBRANCH   9  23
TORSDOF 5
ENDMDL
MODEL 7
REMARK VINA RESULT:      -5.6      2.360      5.332
REMARK  Name = 19973
REMARK  5 active torsions:
REMARK  status: ('A' for Active; 'I' for Inactive)
REMARK    1  A    between atoms: C_7  and  O_19
REMARK    2  A    between atoms: C_9  and  C_23
REMARK    3  A    between atoms: C_16  and  O_21
REMARK    4  A    between atoms: C_23  and  O_24
REMARK    5  A    between atoms: O_24  and  C_27
REMARK                            x       y       z     vdW  Elec       q    Type
REMARK                         _______ _______ _______ _____ _____    ______ ____
ROOT
ATOM      1  O   UNL     1     -38.133  20.717   0.649  0.00  0.00    -0.285 OA
ATOM      2  O   UNL     1     -39.917  25.414   2.477  0.00  0.00    -0.284 OA
ATOM      3  N   UNL     1     -36.056  22.233   5.075  0.00  0.00    +0.389 N 
ATOM      4  N   UNL     1     -36.412  22.454   2.213  0.00  0.00    -0.291 N 
ATOM      5  C   UNL     1     -35.270  23.073   4.177  0.00  0.00    -0.032 C 
ATOM      6  C   UNL     1     -35.253  21.586   4.045  0.00  0.00    -0.053 C 
ATOM      7  C   UNL     1     -35.846  23.632   2.911  0.00  0.00    +0.137 C 
ATOM      8  C   UNL     1     -35.893  21.194   2.744  0.00  0.00    +0.070 C 
ATOM      9  C   UNL     1     -37.069  24.592   3.085  0.00  0.00    +0.111 C 
ATOM     10  C   UNL     1     -37.705  22.716   1.817  0.00  0.00    +0.088 C 
ATOM     11  C   UNL     1     -38.131  23.901   2.255  0.00  0.00    +0.043 C 
ATOM     12  C   UNL     1     -35.610  22.013   6.431  0.00  0.00    -0.100 C 
ATOM     13  C   UNL     1     -38.554  21.798   1.047  0.00  0.00    +0.208 C 
ATOM     14  C   UNL     1     -39.504  24.353   2.023  0.00  0.00    +0.227 C 
ATOM     15  C   UNL     1     -39.953  22.261   0.760  0.00  0.00    +0.055 C 
ATOM     16  C   UNL     1     -40.387  23.453   1.222  0.00  0.00    +0.176 C 
ATOM     17  C   UNL     1     -40.761  21.290  -0.058  0.00  0.00    +0.038 C 
ATOM     18  H   UNL     1     -37.039  22.247   5.344  0.00  0.00    -0.080 HD
ENDROOT
BRANCH   7  19
ATOM     19  O   UNL     1     -34.802  24.199   2.132  0.00  0.00    -0.372 OA
ATOM     20  H   UNL     1     -34.068  24.457   2.713  0.00  0.00    +0.212 HD
ENDBRANCH   7  19
BRANCH  16  21
ATOM     21  O   UNL     1     -41.656  23.952   1.014  0.00  0.00    -0.468 OA
ATOM     22  C   UNL     1     -41.720  24.669  -0.204  0.00  0.00    +0.253 C 
ENDBRANCH  16  21
BRANCH   9  23
ATOM     23  C   UNL     1     -36.790  26.021   2.621  0.00  0.00    +0.218 C 
BRANCH  23  24
ATOM     24  O   UNL     1     -35.881  26.617   3.527  0.00  0.00    -0.434 OA
BRANCH  24  27
ATOM     25  O   UNL     1     -34.009  27.078   2.269  0.00  0.00    -0.227 OA
ATOM     26  N   UNL     1     -35.163  28.754   3.341  0.00  0.00    -0.295 N 
ATOM     27  C   UNL     1     -34.935  27.448   2.982  0.00  0.00    +0.398 C 
ATOM     28  H   UNL     1     -35.927  28.981   3.917  0.00  0.00    +0.148 HD
ATOM     29  H   UNL     1     -34.560  29.464   3.021  0.00  0.00    +0.148 HD
ENDBRANCH  24  27
ENDBRANCH  23  24
ENDBRANCH   9  23
TORSDOF 5
ENDMDL
MODEL 8
REMARK VINA RESULT:      -5.6      3.382      6.262
REMARK  Name = 19973
REMARK  5 active torsions:
REMARK  status: ('A' for Active; 'I' for Inactive)
REMARK    1  A    between atoms: C_7  and  O_19
REMARK    2  A    between atoms: C_9  and  C_23
REMARK    3  A    between atoms: C_16  and  O_21
REMARK    4  A    between atoms: C_23  and  O_24
REMARK    5  A    between atoms: O_24  and  C_27
REMARK                            x       y       z     vdW  Elec       q    Type
REMARK                         _______ _______ _______ _____ _____    ______ ____
ROOT
ATOM      1  O   UNL     1     -37.577  23.700   0.657  0.00  0.00    -0.285 OA
ATOM      2  O   UNL     1     -35.132  20.663   4.316  0.00  0.00    -0.284 OA
ATOM      3  N   UNL     1     -37.722  18.670  -0.278  0.00  0.00    +0.389 N 
ATOM      4  N   UNL     1     -36.320  21.193  -0.091  0.00  0.00    -0.291 N 
ATOM      5  C   UNL     1     -36.358  18.926  -0.729  0.00  0.00    -0.032 C 
ATOM      6  C   UNL     1     -37.516  19.633  -1.352  0.00  0.00    -0.053 C 
ATOM      7  C   UNL     1     -35.493  19.964  -0.079  0.00  0.00    +0.137 C 
ATOM      8  C   UNL     1     -37.438  21.097  -1.028  0.00  0.00    +0.070 C 
ATOM      9  C   UNL     1     -35.177  19.736   1.436  0.00  0.00    +0.111 C 
ATOM     10  C   UNL     1     -36.336  21.764   1.162  0.00  0.00    +0.088 C 
ATOM     11  C   UNL     1     -35.701  21.012   2.061  0.00  0.00    +0.043 C 
ATOM     12  C   UNL     1     -38.391  17.450  -0.664  0.00  0.00    -0.100 C 
ATOM     13  C   UNL     1     -37.007  23.024   1.506  0.00  0.00    +0.208 C 
ATOM     14  C   UNL     1     -35.662  21.383   3.477  0.00  0.00    +0.227 C 
ATOM     15  C   UNL     1     -36.942  23.445   2.946  0.00  0.00    +0.055 C 
ATOM     16  C   UNL     1     -36.314  22.672   3.857  0.00  0.00    +0.176 C 
ATOM     17  C   UNL     1     -37.621  24.759   3.228  0.00  0.00    +0.038 C 
ATOM     18  H   UNL     1     -38.152  18.676   0.647  0.00  0.00    -0.080 HD
ENDROOT
BRANCH   7  19
ATOM     19  O   UNL     1     -34.326  20.160  -0.866  0.00  0.00    -0.372 OA
ATOM     20  H   UNL     1     -33.760  20.826  -0.446  0.00  0.00    +0.212 HD
ENDBRANCH   7  19
BRANCH  16  21
ATOM     21  O   UNL     1     -36.215  22.976   5.200  0.00  0.00    -0.468 OA
ATOM     22  C   UNL     1     -35.081  23.784   5.447  0.00  0.00    +0.253 C 
ENDBRANCH  16  21
BRANCH   9  23
ATOM     23  C   UNL     1     -33.693  19.503   1.718  0.00  0.00    +0.218 C 
BRANCH  23  24
ATOM     24  O   UNL     1     -33.349  18.207   1.266  0.00  0.00    -0.434 OA
BRANCH  24  27
ATOM     25  O   UNL     1     -31.447  16.964   0.893  0.00  0.00    -0.227 OA
ATOM     26  N   UNL     1     -31.515  19.209   0.400  0.00  0.00    -0.295 N 
ATOM     27  C   UNL     1     -32.051  18.030   0.857  0.00  0.00    +0.398 C 
ATOM     28  H   UNL     1     -32.057  20.030   0.400  0.00  0.00    +0.148 HD
ATOM     29  H   UNL     1     -30.586  19.233   0.074  0.00  0.00    +0.148 HD
ENDBRANCH  24  27
ENDBRANCH  23  24
ENDBRANCH   9  23
TORSDOF 5
ENDMDL
MODEL 9
REMARK VINA RESULT:      -5.5      2.835      4.246
REMARK  Name = 19973
REMARK  5 active torsions:
REMARK  status: ('A' for Active; 'I' for Inactive)
REMARK    1  A    between atoms: C_7  and  O_19
REMARK    2  A    between atoms: C_9  and  C_23
REMARK    3  A    between atoms: C_16  and  O_21
REMARK    4  A    between atoms: C_23  and  O_24
REMARK    5  A    between atoms: O_24  and  C_27
REMARK                            x       y       z     vdW  Elec       q    Type
REMARK                         _______ _______ _______ _____ _____    ______ ____
ROOT
ATOM      1  O   UNL     1     -31.619  25.678   1.232  0.00  0.00    -0.285 OA
ATOM      2  O   UNL     1     -35.324  26.712   4.945  0.00  0.00    -0.284 OA
ATOM      3  N   UNL     1     -36.449  24.911  -0.278  0.00  0.00    +0.389 N 
ATOM      4  N   UNL     1     -34.120  24.206   1.286  0.00  0.00    -0.291 N 
ATOM      5  C   UNL     1     -36.272  23.680   0.486  0.00  0.00    -0.032 C 
ATOM      6  C   UNL     1     -35.382  24.001  -0.669  0.00  0.00    -0.053 C 
ATOM      7  C   UNL     1     -35.416  23.630   1.715  0.00  0.00    +0.137 C 
ATOM      8  C   UNL     1     -33.985  24.239  -0.170  0.00  0.00    +0.070 C 
ATOM      9  C   UNL     1     -35.866  24.551   2.897  0.00  0.00    +0.111 C 
ATOM     10  C   UNL     1     -33.716  25.175   2.177  0.00  0.00    +0.088 C 
ATOM     11  C   UNL     1     -34.635  25.406   3.114  0.00  0.00    +0.043 C 
ATOM     12  C   UNL     1     -37.538  25.025  -1.220  0.00  0.00    -0.100 C 
ATOM     13  C   UNL     1     -32.451  25.917   2.100  0.00  0.00    +0.208 C 
ATOM     14  C   UNL     1     -34.455  26.455   4.120  0.00  0.00    +0.227 C 
ATOM     15  C   UNL     1     -32.226  26.968   3.149  0.00  0.00    +0.055 C 
ATOM     16  C   UNL     1     -33.167  27.212   4.084  0.00  0.00    +0.176 C 
ATOM     17  C   UNL     1     -30.899  27.670   3.034  0.00  0.00    +0.038 C 
ATOM     18  H   UNL     1     -36.520  25.889   0.002  0.00  0.00    -0.080 HD
ENDROOT
BRANCH   7  19
ATOM     19  O   UNL     1     -35.236  22.275   2.105  0.00  0.00    -0.372 OA
ATOM     20  H   UNL     1     -34.297  22.041   2.038  0.00  0.00    +0.212 HD
ENDBRANCH   7  19
BRANCH  16  21
ATOM     21  O   UNL     1     -33.049  28.164   5.077  0.00  0.00    -0.468 OA
ATOM     22  C   UNL     1     -32.431  27.615   6.225  0.00  0.00    +0.253 C 
ENDBRANCH  16  21
BRANCH   9  23
ATOM     23  C   UNL     1     -36.277  23.775   4.148  0.00  0.00    +0.218 C 
BRANCH  23  24
ATOM     24  O   UNL     1     -35.135  23.119   4.664  0.00  0.00    -0.434 OA
BRANCH  24  27
ATOM     25  O   UNL     1     -35.030  20.821   4.779  0.00  0.00    -0.227 OA
ATOM     26  N   UNL     1     -35.974  22.054   6.475  0.00  0.00    -0.295 N 
ATOM     27  C   UNL     1     -35.350  21.902   5.262  0.00  0.00    +0.398 C 
ATOM     28  H   UNL     1     -36.204  22.953   6.802  0.00  0.00    +0.148 HD
ATOM     29  H   UNL     1     -36.193  21.262   7.018  0.00  0.00    +0.148 HD
ENDBRANCH  24  27
ENDBRANCH  23  24
ENDBRANCH   9  23
TORSDOF 5
ENDMDL
