MODEL 1
REMARK VINA RESULT:      -6.4      0.000      0.000
REMARK  Name = 5283897
REMARK  9 active torsions:
REMARK  status: ('A' for Active; 'I' for Inactive)
REMARK    1  A    between atoms: C_6  and  C_28
REMARK    2  A    between atoms: C_7  and  O_20
REMARK    3  A    between atoms: C_10  and  O_22
REMARK    4  A    between atoms: C_13  and  O_24
REMARK    5  A    between atoms: C_19  and  O_26
REMARK    6  A    between atoms: C_28  and  C_30
REMARK    7  A    between atoms: C_30  and  C_31
REMARK    8  A    between atoms: C_31  and  C_33
REMARK    9  A    between atoms: C_33  and  O_34
REMARK                            x       y       z     vdW  Elec       q    Type
REMARK                         _______ _______ _______ _____ _____    ______ ____
ROOT
ATOM      1  C   UNL     1     -36.260  22.181   2.375  0.00  0.00    +0.025 C 
ATOM      2  C   UNL     1     -37.708  22.434   1.894  0.00  0.00    +0.005 C 
ATOM      3  C   UNL     1     -37.896  22.198   0.387  0.00  0.00    +0.029 C 
ATOM      4  C   UNL     1     -37.499  20.717   0.047  0.00  0.00    +0.005 C 
ATOM      5  C   UNL     1     -37.652  20.405  -1.494  0.00  0.00    +0.003 C 
ATOM      6  C   UNL     1     -36.429  22.592   3.863  0.00  0.00    +0.002 C 
ATOM      7  C   UNL     1     -35.909  20.703   2.109  0.00  0.00    +0.110 C 
ATOM      8  C   UNL     1     -39.116  20.735  -1.947  0.00  0.00    +0.032 C 
ATOM      9  C   UNL     1     -36.100  20.343   0.622  0.00  0.00    +0.029 C 
ATOM     10  C   UNL     1     -39.325  22.530  -0.093  0.00  0.00    +0.137 C 
ATOM     11  C   UNL     1     -38.039  23.817   2.455  0.00  0.00    +0.000 C 
ATOM     12  C   UNL     1     -37.284  23.876   3.795  0.00  0.00    +0.000 C 
ATOM     13  C   UNL     1     -39.512  22.183  -1.576  0.00  0.00    +0.137 C 
ATOM     14  C   UNL     1     -37.340  18.918  -1.841  0.00  0.00    +0.003 C 
ATOM     15  C   UNL     1     -35.204  23.081   1.676  0.00  0.00    +0.002 C 
ATOM     16  C   UNL     1     -40.146  19.691  -1.456  0.00  0.00    +0.032 C 
ATOM     17  C   UNL     1     -36.652  21.245  -2.336  0.00  0.00    +0.000 C 
ATOM     18  C   UNL     1     -38.363  17.925  -1.306  0.00  0.00    +0.029 C 
ATOM     19  C   UNL     1     -39.754  18.264  -1.823  0.00  0.00    +0.111 C 
ENDROOT
BRANCH   7  20
ATOM     20  O   UNL     1     -36.729  19.818   2.870  0.00  0.00    -0.384 OA
ATOM     21  H   UNL     1     -36.304  18.948   2.923  0.00  0.00    +0.210 HD
ENDBRANCH   7  20
BRANCH  10  22
ATOM     22  O   UNL     1     -40.303  21.844   0.685  0.00  0.00    -0.382 OA
ATOM     23  H   UNL     1     -40.023  21.826   1.613  0.00  0.00    +0.210 HD
ENDBRANCH  10  22
BRANCH  13  24
ATOM     24  O   UNL     1     -40.860  22.458  -1.953  0.00  0.00    -0.382 OA
ATOM     25  H   UNL     1     -40.868  22.946  -2.790  0.00  0.00    +0.210 HD
ENDBRANCH  13  24
BRANCH  19  26
ATOM     26  O   UNL     1     -40.700  17.351  -1.275  0.00  0.00    -0.384 OA
ATOM     27  H   UNL     1     -40.280  16.484  -1.154  0.00  0.00    +0.210 HD
ENDBRANCH  19  26
BRANCH   6  28
ATOM     28  C   UNL     1     -35.147  22.772   4.664  0.00  0.00    +0.001 C 
ATOM     29  C   UNL     1     -35.039  21.680   5.734  0.00  0.00    +0.000 C 
BRANCH  28  30
ATOM     30  C   UNL     1     -35.098  24.187   5.275  0.00  0.00    +0.012 C 
BRANCH  30  31
ATOM     31  C   UNL     1     -33.999  25.075   4.685  0.00  0.00    +0.109 C 
BRANCH  31  33
ATOM     32  O   UNL     1     -33.405  27.349   5.322  0.00  0.00    -0.250 OA
ATOM     33  C   UNL     1     -34.249  26.540   4.964  0.00  0.00    +0.314 C 
BRANCH  33  34
ATOM     34  O   UNL     1     -35.555  26.865   4.774  0.00  0.00    -0.480 OA
ATOM     35  H   UNL     1     -35.781  27.626   4.275  0.00  0.00    +0.295 HD
ENDBRANCH  33  34
ENDBRANCH  31  33
ENDBRANCH  30  31
ENDBRANCH  28  30
ENDBRANCH   6  28
TORSDOF 9
ENDMDL
MODEL 2
REMARK VINA RESULT:      -6.4      3.311      7.213
REMARK  Name = 5283897
REMARK  9 active torsions:
REMARK  status: ('A' for Active; 'I' for Inactive)
REMARK    1  A    between atoms: C_6  and  C_28
REMARK    2  A    between atoms: C_7  and  O_20
REMARK    3  A    between atoms: C_10  and  O_22
REMARK    4  A    between atoms: C_13  and  O_24
REMARK    5  A    between atoms: C_19  and  O_26
REMARK    6  A    between atoms: C_28  and  C_30
REMARK    7  A    between atoms: C_30  and  C_31
REMARK    8  A    between atoms: C_31  and  C_33
REMARK    9  A    between atoms: C_33  and  O_34
REMARK                            x       y       z     vdW  Elec       q    Type
REMARK                         _______ _______ _______ _____ _____    ______ ____
ROOT
ATOM      1  C   UNL     1     -39.640  25.080   1.660  0.00  0.00    +0.025 C 
ATOM      2  C   UNL     1     -39.310  23.581   1.466  0.00  0.00    +0.005 C 
ATOM      3  C   UNL     1     -37.801  23.293   1.421  0.00  0.00    +0.029 C 
ATOM      4  C   UNL     1     -37.145  23.788   2.759  0.00  0.00    +0.005 C 
ATOM      5  C   UNL     1     -35.585  23.539   2.778  0.00  0.00    +0.003 C 
ATOM      6  C   UNL     1     -41.187  24.996   1.567  0.00  0.00    +0.002 C 
ATOM      7  C   UNL     1     -39.059  25.535   3.015  0.00  0.00    +0.110 C 
ATOM      8  C   UNL     1     -35.300  22.020   2.516  0.00  0.00    +0.032 C 
ATOM      9  C   UNL     1     -37.545  25.256   3.094  0.00  0.00    +0.029 C 
ATOM     10  C   UNL     1     -37.487  21.807   1.147  0.00  0.00    +0.137 C 
ATOM     11  C   UNL     1     -40.158  23.178   0.260  0.00  0.00    +0.000 C 
ATOM     12  C   UNL     1     -41.433  24.031   0.387  0.00  0.00    +0.000 C 
ATOM     13  C   UNL     1     -35.980  21.532   1.216  0.00  0.00    +0.137 C 
ATOM     14  C   UNL     1     -34.926  23.950   4.130  0.00  0.00    +0.003 C 
ATOM     15  C   UNL     1     -39.073  25.993   0.539  0.00  0.00    +0.002 C 
ATOM     16  C   UNL     1     -35.633  21.127   3.734  0.00  0.00    +0.032 C 
ATOM     17  C   UNL     1     -34.870  24.391   1.694  0.00  0.00    +0.000 C 
ATOM     18  C   UNL     1     -35.312  23.063   5.306  0.00  0.00    +0.029 C 
ATOM     19  C   UNL     1     -34.961  21.611   5.015  0.00  0.00    +0.111 C 
ENDROOT
BRANCH   7  20
ATOM     20  O   UNL     1     -39.675  24.858   4.110  0.00  0.00    -0.384 OA
ATOM     21  H   UNL     1     -39.074  24.176   4.447  0.00  0.00    +0.210 HD
ENDBRANCH   7  20
BRANCH  10  22
ATOM     22  O   UNL     1     -38.169  20.958   2.068  0.00  0.00    -0.382 OA
ATOM     23  H   UNL     1     -37.552  20.294   2.412  0.00  0.00    +0.210 HD
ENDBRANCH  10  22
BRANCH  13  24
ATOM     24  O   UNL     1     -35.750  20.139   1.010  0.00  0.00    -0.382 OA
ATOM     25  H   UNL     1     -36.559  19.724   0.675  0.00  0.00    +0.210 HD
ENDBRANCH  13  24
BRANCH  19  26
ATOM     26  O   UNL     1     -35.370  20.795   6.108  0.00  0.00    -0.384 OA
ATOM     27  H   UNL     1     -36.340  20.766   6.144  0.00  0.00    +0.210 HD
ENDBRANCH  19  26
BRANCH   6  28
ATOM     28  C   UNL     1     -41.928  26.318   1.418  0.00  0.00    +0.001 C 
ATOM     29  C   UNL     1     -42.294  26.873   2.799  0.00  0.00    +0.000 C 
BRANCH  28  30
ATOM     30  C   UNL     1     -43.168  26.133   0.521  0.00  0.00    +0.012 C 
BRANCH  30  31
ATOM     31  C   UNL     1     -44.494  26.200   1.282  0.00  0.00    +0.109 C 
BRANCH  31  33
ATOM     32  O   UNL     1     -44.886  23.821   0.937  0.00  0.00    -0.250 OA
ATOM     33  C   UNL     1     -45.016  24.823   1.626  0.00  0.00    +0.314 C 
BRANCH  33  34
ATOM     34  O   UNL     1     -45.669  24.824   2.819  0.00  0.00    -0.480 OA
ATOM     35  H   UNL     1     -45.190  24.699   3.615  0.00  0.00    +0.295 HD
ENDBRANCH  33  34
ENDBRANCH  31  33
ENDBRANCH  30  31
ENDBRANCH  28  30
ENDBRANCH   6  28
TORSDOF 9
ENDMDL
MODEL 3
REMARK VINA RESULT:      -6.3      3.599      6.790
REMARK  Name = 5283897
REMARK  9 active torsions:
REMARK  status: ('A' for Active; 'I' for Inactive)
REMARK    1  A    between atoms: C_6  and  C_28
REMARK    2  A    between atoms: C_7  and  O_20
REMARK    3  A    between atoms: C_10  and  O_22
REMARK    4  A    between atoms: C_13  and  O_24
REMARK    5  A    between atoms: C_19  and  O_26
REMARK    6  A    between atoms: C_28  and  C_30
REMARK    7  A    between atoms: C_30  and  C_31
REMARK    8  A    between atoms: C_31  and  C_33
REMARK    9  A    between atoms: C_33  and  O_34
REMARK                            x       y       z     vdW  Elec       q    Type
REMARK                         _______ _______ _______ _____ _____    ______ ____
ROOT
ATOM      1  C   UNL     1     -39.600  25.265   1.791  0.00  0.00    +0.025 C 
ATOM      2  C   UNL     1     -39.288  23.771   1.538  0.00  0.00    +0.005 C 
ATOM      3  C   UNL     1     -37.782  23.463   1.504  0.00  0.00    +0.029 C 
ATOM      4  C   UNL     1     -37.142  23.891   2.872  0.00  0.00    +0.005 C 
ATOM      5  C   UNL     1     -35.586  23.618   2.905  0.00  0.00    +0.003 C 
ATOM      6  C   UNL     1     -41.146  25.208   1.669  0.00  0.00    +0.002 C 
ATOM      7  C   UNL     1     -39.035  25.653   3.172  0.00  0.00    +0.110 C 
ATOM      8  C   UNL     1     -35.318  22.108   2.583  0.00  0.00    +0.032 C 
ATOM      9  C   UNL     1     -37.526  25.349   3.264  0.00  0.00    +0.029 C 
ATOM     10  C   UNL     1     -37.485  21.985   1.172  0.00  0.00    +0.137 C 
ATOM     11  C   UNL     1     -40.122  23.432   0.302  0.00  0.00    +0.000 C 
ATOM     12  C   UNL     1     -41.387  24.298   0.446  0.00  0.00    +0.000 C 
ATOM     13  C   UNL     1     -35.983  21.686   1.252  0.00  0.00    +0.137 C 
ATOM     14  C   UNL     1     -34.944  23.961   4.283  0.00  0.00    +0.003 C 
ATOM     15  C   UNL     1     -39.002  26.217   0.719  0.00  0.00    +0.002 C 
ATOM     16  C   UNL     1     -35.683  21.169   3.756  0.00  0.00    +0.032 C 
ATOM     17  C   UNL     1     -34.841  24.505   1.870  0.00  0.00    +0.000 C 
ATOM     18  C   UNL     1     -35.360  23.031   5.414  0.00  0.00    +0.029 C 
ATOM     19  C   UNL     1     -35.025  21.587   5.067  0.00  0.00    +0.111 C 
ENDROOT
BRANCH   7  20
ATOM     20  O   UNL     1     -39.678  24.940   4.228  0.00  0.00    -0.384 OA
ATOM     21  H   UNL     1     -40.636  24.932   4.077  0.00  0.00    +0.210 HD
ENDBRANCH   7  20
BRANCH  10  22
ATOM     22  O   UNL     1     -38.194  21.108   2.044  0.00  0.00    -0.382 OA
ATOM     23  H   UNL     1     -37.673  20.963   2.849  0.00  0.00    +0.210 HD
ENDBRANCH  10  22
BRANCH  13  24
ATOM     24  O   UNL     1     -35.769  20.300   0.991  0.00  0.00    -0.382 OA
ATOM     25  H   UNL     1     -36.379  20.003   0.298  0.00  0.00    +0.210 HD
ENDBRANCH  13  24
BRANCH  19  26
ATOM     26  O   UNL     1     -35.464  20.732   6.118  0.00  0.00    -0.384 OA
ATOM     27  H   UNL     1     -35.945  21.254   6.780  0.00  0.00    +0.210 HD
ENDBRANCH  19  26
BRANCH   6  28
ATOM     28  C   UNL     1     -41.866  26.546   1.566  0.00  0.00    +0.001 C 
ATOM     29  C   UNL     1     -43.067  26.572   2.517  0.00  0.00    +0.000 C 
BRANCH  28  30
ATOM     30  C   UNL     1     -42.279  26.814   0.105  0.00  0.00    +0.012 C 
BRANCH  30  31
ATOM     31  C   UNL     1     -42.605  28.281  -0.184  0.00  0.00    +0.109 C 
BRANCH  31  33
ATOM     32  O   UNL     1     -40.378  29.264  -0.103  0.00  0.00    -0.250 OA
ATOM     33  C   UNL     1     -41.523  29.208   0.323  0.00  0.00    +0.314 C 
BRANCH  33  34
ATOM     34  O   UNL     1     -41.975  29.990   1.339  0.00  0.00    -0.480 OA
ATOM     35  H   UNL     1     -41.540  29.977   2.169  0.00  0.00    +0.295 HD
ENDBRANCH  33  34
ENDBRANCH  31  33
ENDBRANCH  30  31
ENDBRANCH  28  30
ENDBRANCH   6  28
TORSDOF 9
ENDMDL
MODEL 4
REMARK VINA RESULT:      -6.3      5.302     10.552
REMARK  Name = 5283897
REMARK  9 active torsions:
REMARK  status: ('A' for Active; 'I' for Inactive)
REMARK    1  A    between atoms: C_6  and  C_28
REMARK    2  A    between atoms: C_7  and  O_20
REMARK    3  A    between atoms: C_10  and  O_22
REMARK    4  A    between atoms: C_13  and  O_24
REMARK    5  A    between atoms: C_19  and  O_26
REMARK    6  A    between atoms: C_28  and  C_30
REMARK    7  A    between atoms: C_30  and  C_31
REMARK    8  A    between atoms: C_31  and  C_33
REMARK    9  A    between atoms: C_33  and  O_34
REMARK                            x       y       z     vdW  Elec       q    Type
REMARK                         _______ _______ _______ _____ _____    ______ ____
ROOT
ATOM      1  C   UNL     1     -34.084  26.815   3.696  0.00  0.00    +0.025 C 
ATOM      2  C   UNL     1     -33.354  27.587   4.821  0.00  0.00    +0.005 C 
ATOM      3  C   UNL     1     -32.007  28.178   4.377  0.00  0.00    +0.029 C 
ATOM      4  C   UNL     1     -32.249  29.151   3.169  0.00  0.00    +0.005 C 
ATOM      5  C   UNL     1     -30.900  29.786   2.646  0.00  0.00    +0.003 C 
ATOM      6  C   UNL     1     -35.305  26.307   4.509  0.00  0.00    +0.002 C 
ATOM      7  C   UNL     1     -34.387  27.800   2.548  0.00  0.00    +0.110 C 
ATOM      8  C   UNL     1     -30.170  30.502   3.834  0.00  0.00    +0.032 C 
ATOM      9  C   UNL     1     -33.099  28.485   2.047  0.00  0.00    +0.029 C 
ATOM     10  C   UNL     1     -31.255  28.875   5.531  0.00  0.00    +0.137 C 
ATOM     11  C   UNL     1     -33.361  26.605   5.994  0.00  0.00    +0.000 C 
ATOM     12  C   UNL     1     -34.690  25.842   5.846  0.00  0.00    +0.000 C 
ATOM     13  C   UNL     1     -29.969  29.547   5.033  0.00  0.00    +0.137 C 
ATOM     14  C   UNL     1     -31.126  30.818   1.499  0.00  0.00    +0.003 C 
ATOM     15  C   UNL     1     -33.269  25.620   3.130  0.00  0.00    +0.002 C 
ATOM     16  C   UNL     1     -30.843  31.834   4.239  0.00  0.00    +0.032 C 
ATOM     17  C   UNL     1     -29.966  28.700   2.047  0.00  0.00    +0.000 C 
ATOM     18  C   UNL     1     -31.824  32.097   1.939  0.00  0.00    +0.029 C 
ATOM     19  C   UNL     1     -31.040  32.774   3.055  0.00  0.00    +0.111 C 
ENDROOT
BRANCH   7  20
ATOM     20  O   UNL     1     -35.285  28.830   2.956  0.00  0.00    -0.384 OA
ATOM     21  H   UNL     1     -34.783  29.559   3.353  0.00  0.00    +0.210 HD
ENDBRANCH   7  20
BRANCH  10  22
ATOM     22  O   UNL     1     -32.080  29.843   6.174  0.00  0.00    -0.382 OA
ATOM     23  H   UNL     1     -32.895  29.964   5.662  0.00  0.00    +0.210 HD
ENDBRANCH  10  22
BRANCH  13  24
ATOM     24  O   UNL     1     -29.342  30.220   6.124  0.00  0.00    -0.382 OA
ATOM     25  H   UNL     1     -28.653  29.652   6.501  0.00  0.00    +0.210 HD
ENDBRANCH  13  24
BRANCH  19  26
ATOM     26  O   UNL     1     -31.734  33.943   3.481  0.00  0.00    -0.384 OA
ATOM     27  H   UNL     1     -31.380  34.235   4.336  0.00  0.00    +0.210 HD
ENDBRANCH  19  26
BRANCH   6  28
ATOM     28  C   UNL     1     -36.162  25.239   3.844  0.00  0.00    +0.001 C 
ATOM     29  C   UNL     1     -37.477  25.852   3.350  0.00  0.00    +0.000 C 
BRANCH  28  30
ATOM     30  C   UNL     1     -36.400  24.068   4.819  0.00  0.00    +0.012 C 
BRANCH  30  31
ATOM     31  C   UNL     1     -35.675  22.780   4.424  0.00  0.00    +0.109 C 
BRANCH  31  33
ATOM     32  O   UNL     1     -35.287  22.323   6.785  0.00  0.00    -0.250 OA
ATOM     33  C   UNL     1     -35.345  21.928   5.629  0.00  0.00    +0.314 C 
BRANCH  33  34
ATOM     34  O   UNL     1     -35.107  20.637   5.274  0.00  0.00    -0.480 OA
ATOM     35  H   UNL     1     -34.649  20.447   4.478  0.00  0.00    +0.295 HD
ENDBRANCH  33  34
ENDBRANCH  31  33
ENDBRANCH  30  31
ENDBRANCH  28  30
ENDBRANCH   6  28
TORSDOF 9
ENDMDL
MODEL 5
REMARK VINA RESULT:      -5.8      3.990      6.827
REMARK  Name = 5283897
REMARK  9 active torsions:
REMARK  status: ('A' for Active; 'I' for Inactive)
REMARK    1  A    between atoms: C_6  and  C_28
REMARK    2  A    between atoms: C_7  and  O_20
REMARK    3  A    between atoms: C_10  and  O_22
REMARK    4  A    between atoms: C_13  and  O_24
REMARK    5  A    between atoms: C_19  and  O_26
REMARK    6  A    between atoms: C_28  and  C_30
REMARK    7  A    between atoms: C_30  and  C_31
REMARK    8  A    between atoms: C_31  and  C_33
REMARK    9  A    between atoms: C_33  and  O_34
REMARK                            x       y       z     vdW  Elec       q    Type
REMARK                         _______ _______ _______ _____ _____    ______ ____
ROOT
ATOM      1  C   UNL     1     -32.653  27.384   3.801  0.00  0.00    +0.025 C 
ATOM      2  C   UNL     1     -33.369  26.190   4.476  0.00  0.00    +0.005 C 
ATOM      3  C   UNL     1     -34.541  25.639   3.649  0.00  0.00    +0.029 C 
ATOM      4  C   UNL     1     -34.007  25.183   2.245  0.00  0.00    +0.005 C 
ATOM      5  C   UNL     1     -35.164  24.619   1.329  0.00  0.00    +0.003 C 
ATOM      6  C   UNL     1     -31.632  27.714   4.923  0.00  0.00    +0.002 C 
ATOM      7  C   UNL     1     -32.064  26.903   2.459  0.00  0.00    +0.110 C 
ATOM      8  C   UNL     1     -35.898  23.455   2.080  0.00  0.00    +0.032 C 
ATOM      9  C   UNL     1     -33.155  26.292   1.558  0.00  0.00    +0.029 C 
ATOM     10  C   UNL     1     -35.295  24.502   4.370  0.00  0.00    +0.137 C 
ATOM     11  C   UNL     1     -33.657  26.695   5.890  0.00  0.00    +0.000 C 
ATOM     12  C   UNL     1     -32.464  27.610   6.220  0.00  0.00    +0.000 C 
ATOM     13  C   UNL     1     -36.388  23.902   3.477  0.00  0.00    +0.137 C 
ATOM     14  C   UNL     1     -34.643  24.085  -0.039  0.00  0.00    +0.003 C 
ATOM     15  C   UNL     1     -33.583  28.599   3.534  0.00  0.00    +0.002 C 
ATOM     16  C   UNL     1     -35.065  22.152   2.130  0.00  0.00    +0.032 C 
ATOM     17  C   UNL     1     -36.190  25.730   0.976  0.00  0.00    +0.000 C 
ATOM     18  C   UNL     1     -33.799  22.822   0.064  0.00  0.00    +0.029 C 
ATOM     19  C   UNL     1     -34.583  21.713   0.751  0.00  0.00    +0.111 C 
ENDROOT
BRANCH   7  20
ATOM     20  O   UNL     1     -31.060  25.906   2.648  0.00  0.00    -0.384 OA
ATOM     21  H   UNL     1     -31.269  25.131   2.104  0.00  0.00    +0.210 HD
ENDBRANCH   7  20
BRANCH  10  22
ATOM     22  O   UNL     1     -34.401  23.473   4.786  0.00  0.00    -0.382 OA
ATOM     23  H   UNL     1     -33.500  23.829   4.838  0.00  0.00    +0.210 HD
ENDBRANCH  10  22
BRANCH  13  24
ATOM     24  O   UNL     1     -37.016  22.823   4.168  0.00  0.00    -0.382 OA
ATOM     25  H   UNL     1     -37.400  23.150   4.996  0.00  0.00    +0.210 HD
ENDBRANCH  13  24
BRANCH  19  26
ATOM     26  O   UNL     1     -33.760  20.558   0.877  0.00  0.00    -0.384 OA
ATOM     27  H   UNL     1     -33.530  20.227  -0.006  0.00  0.00    +0.210 HD
ENDBRANCH  19  26
BRANCH   6  28
ATOM     28  C   UNL     1     -30.892  29.039   4.795  0.00  0.00    +0.001 C 
ATOM     29  C   UNL     1     -29.583  28.837   4.025  0.00  0.00    +0.000 C 
BRANCH  28  30
ATOM     30  C   UNL     1     -30.654  29.649   6.191  0.00  0.00    +0.012 C 
BRANCH  30  31
ATOM     31  C   UNL     1     -29.202  30.061   6.445  0.00  0.00    +0.109 C 
BRANCH  31  33
ATOM     32  O   UNL     1     -28.058  29.881   8.587  0.00  0.00    -0.250 OA
ATOM     33  C   UNL     1     -28.615  29.344   7.640  0.00  0.00    +0.314 C 
BRANCH  33  34
ATOM     34  O   UNL     1     -28.774  27.998   7.539  0.00  0.00    -0.480 OA
ATOM     35  H   UNL     1     -29.382  27.554   8.099  0.00  0.00    +0.295 HD
ENDBRANCH  33  34
ENDBRANCH  31  33
ENDBRANCH  30  31
ENDBRANCH  28  30
ENDBRANCH   6  28
TORSDOF 9
ENDMDL
MODEL 6
REMARK VINA RESULT:      -5.8      2.320      3.192
REMARK  Name = 5283897
REMARK  9 active torsions:
REMARK  status: ('A' for Active; 'I' for Inactive)
REMARK    1  A    between atoms: C_6  and  C_28
REMARK    2  A    between atoms: C_7  and  O_20
REMARK    3  A    between atoms: C_10  and  O_22
REMARK    4  A    between atoms: C_13  and  O_24
REMARK    5  A    between atoms: C_19  and  O_26
REMARK    6  A    between atoms: C_28  and  C_30
REMARK    7  A    between atoms: C_30  and  C_31
REMARK    8  A    between atoms: C_31  and  C_33
REMARK    9  A    between atoms: C_33  and  O_34
REMARK                            x       y       z     vdW  Elec       q    Type
REMARK                         _______ _______ _______ _____ _____    ______ ____
ROOT
ATOM      1  C   UNL     1     -35.810  21.641   1.719  0.00  0.00    +0.025 C 
ATOM      2  C   UNL     1     -36.934  20.781   1.094  0.00  0.00    +0.005 C 
ATOM      3  C   UNL     1     -36.547  20.171  -0.263  0.00  0.00    +0.029 C 
ATOM      4  C   UNL     1     -35.268  19.279  -0.076  0.00  0.00    +0.005 C 
ATOM      5  C   UNL     1     -34.800  18.629  -1.438  0.00  0.00    +0.003 C 
ATOM      6  C   UNL     1     -36.568  22.143   2.978  0.00  0.00    +0.002 C 
ATOM      7  C   UNL     1     -34.587  20.737   1.971  0.00  0.00    +0.110 C 
ATOM      8  C   UNL     1     -35.989  17.820  -2.062  0.00  0.00    +0.032 C 
ATOM      9  C   UNL     1     -34.133  20.038   0.673  0.00  0.00    +0.029 C 
ATOM     10  C   UNL     1     -37.704  19.382  -0.911  0.00  0.00    +0.137 C 
ATOM     11  C   UNL     1     -38.160  21.692   1.152  0.00  0.00    +0.000 C 
ATOM     12  C   UNL     1     -37.970  22.508   2.443  0.00  0.00    +0.000 C 
ATOM     13  C   UNL     1     -37.255  18.696  -2.208  0.00  0.00    +0.137 C 
ATOM     14  C   UNL     1     -33.580  17.675  -1.261  0.00  0.00    +0.003 C 
ATOM     15  C   UNL     1     -35.374  22.839   0.831  0.00  0.00    +0.002 C 
ATOM     16  C   UNL     1     -36.266  16.491  -1.322  0.00  0.00    +0.032 C 
ATOM     17  C   UNL     1     -34.333  19.716  -2.445  0.00  0.00    +0.000 C 
ATOM     18  C   UNL     1     -33.893  16.397  -0.496  0.00  0.00    +0.029 C 
ATOM     19  C   UNL     1     -35.016  15.629  -1.179  0.00  0.00    +0.111 C 
ENDROOT
BRANCH   7  20
ATOM     20  O   UNL     1     -34.870  19.716   2.927  0.00  0.00    -0.384 OA
ATOM     21  H   UNL     1     -34.341  19.866   3.726  0.00  0.00    +0.210 HD
ENDBRANCH   7  20
BRANCH  10  22
ATOM     22  O   UNL     1     -38.230  18.407  -0.014  0.00  0.00    -0.382 OA
ATOM     23  H   UNL     1     -39.135  18.180  -0.278  0.00  0.00    +0.210 HD
ENDBRANCH  10  22
BRANCH  13  24
ATOM     24  O   UNL     1     -38.343  17.939  -2.736  0.00  0.00    -0.382 OA
ATOM     25  H   UNL     1     -38.479  18.175  -3.666  0.00  0.00    +0.210 HD
ENDBRANCH  13  24
BRANCH  19  26
ATOM     26  O   UNL     1     -35.323  14.462  -0.422  0.00  0.00    -0.384 OA
ATOM     27  H   UNL     1     -34.596  13.823  -0.505  0.00  0.00    +0.210 HD
ENDBRANCH  19  26
BRANCH   6  28
ATOM     28  C   UNL     1     -35.913  23.277   3.754  0.00  0.00    +0.001 C 
ATOM     29  C   UNL     1     -35.530  22.801   5.159  0.00  0.00    +0.000 C 
BRANCH  28  30
ATOM     30  C   UNL     1     -36.849  24.502   3.793  0.00  0.00    +0.012 C 
BRANCH  30  31
ATOM     31  C   UNL     1     -36.190  25.797   3.311  0.00  0.00    +0.109 C 
BRANCH  31  33
ATOM     32  O   UNL     1     -34.531  27.174   4.443  0.00  0.00    -0.250 OA
ATOM     33  C   UNL     1     -35.606  26.592   4.457  0.00  0.00    +0.314 C 
BRANCH  33  34
ATOM     34  O   UNL     1     -36.430  26.581   5.539  0.00  0.00    -0.480 OA
ATOM     35  H   UNL     1     -36.809  27.381   5.847  0.00  0.00    +0.295 HD
ENDBRANCH  33  34
ENDBRANCH  31  33
ENDBRANCH  30  31
ENDBRANCH  28  30
ENDBRANCH   6  28
TORSDOF 9
ENDMDL
MODEL 7
REMARK VINA RESULT:      -5.8      3.796      6.459
REMARK  Name = 5283897
REMARK  9 active torsions:
REMARK  status: ('A' for Active; 'I' for Inactive)
REMARK    1  A    between atoms: C_6  and  C_28
REMARK    2  A    between atoms: C_7  and  O_20
REMARK    3  A    between atoms: C_10  and  O_22
REMARK    4  A    between atoms: C_13  and  O_24
REMARK    5  A    between atoms: C_19  and  O_26
REMARK    6  A    between atoms: C_28  and  C_30
REMARK    7  A    between atoms: C_30  and  C_31
REMARK    8  A    between atoms: C_31  and  C_33
REMARK    9  A    between atoms: C_33  and  O_34
REMARK                            x       y       z     vdW  Elec       q    Type
REMARK                         _______ _______ _______ _____ _____    ______ ____
ROOT
ATOM      1  C   UNL     1     -33.670  26.971   2.928  0.00  0.00    +0.025 C 
ATOM      2  C   UNL     1     -33.731  25.935   4.075  0.00  0.00    +0.005 C 
ATOM      3  C   UNL     1     -34.981  25.044   4.022  0.00  0.00    +0.029 C 
ATOM      4  C   UNL     1     -35.008  24.283   2.649  0.00  0.00    +0.005 C 
ATOM      5  C   UNL     1     -36.281  23.355   2.515  0.00  0.00    +0.003 C 
ATOM      6  C   UNL     1     -32.375  27.716   3.349  0.00  0.00    +0.002 C 
ATOM      7  C   UNL     1     -33.617  26.210   1.587  0.00  0.00    +0.110 C 
ATOM      8  C   UNL     1     -36.332  22.367   3.730  0.00  0.00    +0.032 C 
ATOM      9  C   UNL     1     -34.814  25.250   1.443  0.00  0.00    +0.029 C 
ATOM     10  C   UNL     1     -35.069  24.070   5.216  0.00  0.00    +0.137 C 
ATOM     11  C   UNL     1     -33.496  26.774   5.331  0.00  0.00    +0.000 C 
ATOM     12  C   UNL     1     -32.524  27.878   4.878  0.00  0.00    +0.000 C 
ATOM     13  C   UNL     1     -36.267  23.122   5.078  0.00  0.00    +0.137 C 
ATOM     14  C   UNL     1     -36.286  22.528   1.193  0.00  0.00    +0.003 C 
ATOM     15  C   UNL     1     -34.878  27.947   2.904  0.00  0.00    +0.002 C 
ATOM     16  C   UNL     1     -35.281  21.236   3.630  0.00  0.00    +0.032 C 
ATOM     17  C   UNL     1     -37.585  24.197   2.481  0.00  0.00    +0.000 C 
ATOM     18  C   UNL     1     -35.212  21.452   1.126  0.00  0.00    +0.029 C 
ATOM     19  C   UNL     1     -35.347  20.492   2.301  0.00  0.00    +0.111 C 
ENDROOT
BRANCH   7  20
ATOM     20  O   UNL     1     -32.428  25.429   1.468  0.00  0.00    -0.384 OA
ATOM     21  H   UNL     1     -32.660  24.487   1.462  0.00  0.00    +0.210 HD
ENDBRANCH   7  20
BRANCH  10  22
ATOM     22  O   UNL     1     -33.871  23.308   5.350  0.00  0.00    -0.382 OA
ATOM     23  H   UNL     1     -34.062  22.489   5.833  0.00  0.00    +0.210 HD
ENDBRANCH  10  22
BRANCH  13  24
ATOM     24  O   UNL     1     -36.271  22.211   6.176  0.00  0.00    -0.382 OA
ATOM     25  H   UNL     1     -36.567  21.340   5.872  0.00  0.00    +0.210 HD
ENDBRANCH  13  24
BRANCH  19  26
ATOM     26  O   UNL     1     -34.307  19.521   2.242  0.00  0.00    -0.384 OA
ATOM     27  H   UNL     1     -33.910  19.420   3.123  0.00  0.00    +0.210 HD
ENDBRANCH  19  26
BRANCH   6  28
ATOM     28  C   UNL     1     -32.089  29.031   2.636  0.00  0.00    +0.001 C 
ATOM     29  C   UNL     1     -30.864  28.880   1.728  0.00  0.00    +0.000 C 
BRANCH  28  30
ATOM     30  C   UNL     1     -31.909  30.164   3.666  0.00  0.00    +0.012 C 
BRANCH  30  31
ATOM     31  C   UNL     1     -32.465  31.512   3.202  0.00  0.00    +0.109 C 
BRANCH  31  33
ATOM     32  O   UNL     1     -34.567  31.788   2.004  0.00  0.00    -0.250 OA
ATOM     33  C   UNL     1     -33.966  31.469   3.020  0.00  0.00    +0.314 C 
BRANCH  33  34
ATOM     34  O   UNL     1     -34.590  31.031   4.145  0.00  0.00    -0.480 OA
ATOM     35  H   UNL     1     -35.347  31.482   4.466  0.00  0.00    +0.295 HD
ENDBRANCH  33  34
ENDBRANCH  31  33
ENDBRANCH  30  31
ENDBRANCH  28  30
ENDBRANCH   6  28
TORSDOF 9
ENDMDL
MODEL 8
REMARK VINA RESULT:      -5.8      3.857      7.422
REMARK  Name = 5283897
REMARK  9 active torsions:
REMARK  status: ('A' for Active; 'I' for Inactive)
REMARK    1  A    between atoms: C_6  and  C_28
REMARK    2  A    between atoms: C_7  and  O_20
REMARK    3  A    between atoms: C_10  and  O_22
REMARK    4  A    between atoms: C_13  and  O_24
REMARK    5  A    between atoms: C_19  and  O_26
REMARK    6  A    between atoms: C_28  and  C_30
REMARK    7  A    between atoms: C_30  and  C_31
REMARK    8  A    between atoms: C_31  and  C_33
REMARK    9  A    between atoms: C_33  and  O_34
REMARK                            x       y       z     vdW  Elec       q    Type
REMARK                         _______ _______ _______ _____ _____    ______ ____
ROOT
ATOM      1  C   UNL     1     -33.650  19.818  -0.514  0.00  0.00    +0.025 C 
ATOM      2  C   UNL     1     -34.345  19.724   0.866  0.00  0.00    +0.005 C 
ATOM      3  C   UNL     1     -34.755  21.093   1.432  0.00  0.00    +0.029 C 
ATOM      4  C   UNL     1     -35.729  21.794   0.419  0.00  0.00    +0.005 C 
ATOM      5  C   UNL     1     -36.182  23.219   0.928  0.00  0.00    +0.003 C 
ATOM      6  C   UNL     1     -33.312  18.315  -0.712  0.00  0.00    +0.002 C 
ATOM      7  C   UNL     1     -34.643  20.435  -1.519  0.00  0.00    +0.110 C 
ATOM      8  C   UNL     1     -36.823  23.081   2.352  0.00  0.00    +0.032 C 
ATOM      9  C   UNL     1     -35.153  21.805  -1.029  0.00  0.00    +0.029 C 
ATOM     10  C   UNL     1     -35.375  20.991   2.842  0.00  0.00    +0.137 C 
ATOM     11  C   UNL     1     -33.393  18.858   1.691  0.00  0.00    +0.000 C 
ATOM     12  C   UNL     1     -32.798  17.867   0.674  0.00  0.00    +0.000 C 
ATOM     13  C   UNL     1     -35.872  22.356   3.333  0.00  0.00    +0.137 C 
ATOM     14  C   UNL     1     -37.212  23.899  -0.024  0.00  0.00    +0.003 C 
ATOM     15  C   UNL     1     -32.352  20.672  -0.501  0.00  0.00    +0.002 C 
ATOM     16  C   UNL     1     -38.235  22.452   2.317  0.00  0.00    +0.032 C 
ATOM     17  C   UNL     1     -34.977  24.197   0.999  0.00  0.00    +0.000 C 
ATOM     18  C   UNL     1     -38.576  23.223  -0.051  0.00  0.00    +0.029 C 
ATOM     19  C   UNL     1     -39.171  23.168   1.349  0.00  0.00    +0.111 C 
ENDROOT
BRANCH   7  20
ATOM     20  O   UNL     1     -35.784  19.601  -1.716  0.00  0.00    -0.384 OA
ATOM     21  H   UNL     1     -35.703  19.137  -2.564  0.00  0.00    +0.210 HD
ENDBRANCH   7  20
BRANCH  10  22
ATOM     22  O   UNL     1     -36.449  20.054   2.867  0.00  0.00    -0.382 OA
ATOM     23  H   UNL     1     -36.094  19.154   2.813  0.00  0.00    +0.210 HD
ENDBRANCH  10  22
BRANCH  13  24
ATOM     24  O   UNL     1     -36.482  22.197   4.613  0.00  0.00    -0.382 OA
ATOM     25  H   UNL     1     -37.140  22.896   4.746  0.00  0.00    +0.210 HD
ENDBRANCH  13  24
BRANCH  19  26
ATOM     26  O   UNL     1     -40.425  22.493   1.306  0.00  0.00    -0.384 OA
ATOM     27  H   UNL     1     -41.115  23.069   1.672  0.00  0.00    +0.210 HD
ENDBRANCH  19  26
BRANCH   6  28
ATOM     28  C   UNL     1     -32.346  17.982  -1.841  0.00  0.00    +0.001 C 
ATOM     29  C   UNL     1     -33.111  17.388  -3.028  0.00  0.00    +0.000 C 
BRANCH  28  30
ATOM     30  C   UNL     1     -31.242  17.035  -1.331  0.00  0.00    +0.012 C 
BRANCH  30  31
ATOM     31  C   UNL     1     -31.409  15.586  -1.796  0.00  0.00    +0.109 C 
BRANCH  31  33
ATOM     32  O   UNL     1     -30.795  14.554   0.323  0.00  0.00    -0.250 OA
ATOM     33  C   UNL     1     -31.558  14.635  -0.630  0.00  0.00    +0.314 C 
BRANCH  33  34
ATOM     34  O   UNL     1     -32.661  13.852  -0.766  0.00  0.00    -0.480 OA
ATOM     35  H   UNL     1     -33.509  14.245  -0.834  0.00  0.00    +0.295 HD
ENDBRANCH  33  34
ENDBRANCH  31  33
ENDBRANCH  30  31
ENDBRANCH  28  30
ENDBRANCH   6  28
TORSDOF 9
ENDMDL
MODEL 9
REMARK VINA RESULT:      -5.7      5.004      8.946
REMARK  Name = 5283897
REMARK  9 active torsions:
REMARK  status: ('A' for Active; 'I' for Inactive)
REMARK    1  A    between atoms: C_6  and  C_28
REMARK    2  A    between atoms: C_7  and  O_20
REMARK    3  A    between atoms: C_10  and  O_22
REMARK    4  A    between atoms: C_13  and  O_24
REMARK    5  A    between atoms: C_19  and  O_26
REMARK    6  A    between atoms: C_28  and  C_30
REMARK    7  A    between atoms: C_30  and  C_31
REMARK    8  A    between atoms: C_31  and  C_33
REMARK    9  A    between atoms: C_33  and  O_34
REMARK                            x       y       z     vdW  Elec       q    Type
REMARK                         _______ _______ _______ _____ _____    ______ ____
ROOT
ATOM      1  C   UNL     1     -35.638  26.742   2.005  0.00  0.00    +0.025 C 
ATOM      2  C   UNL     1     -35.286  28.071   2.714  0.00  0.00    +0.005 C 
ATOM      3  C   UNL     1     -35.143  29.255   1.746  0.00  0.00    +0.029 C 
ATOM      4  C   UNL     1     -36.490  29.440   0.961  0.00  0.00    +0.005 C 
ATOM      5  C   UNL     1     -36.412  30.635  -0.070  0.00  0.00    +0.003 C 
ATOM      6  C   UNL     1     -35.609  25.799   3.238  0.00  0.00    +0.002 C 
ATOM      7  C   UNL     1     -37.001  26.910   1.303  0.00  0.00    +0.110 C 
ATOM      8  C   UNL     1     -35.992  31.943   0.684  0.00  0.00    +0.032 C 
ATOM      9  C   UNL     1     -36.983  28.105   0.329  0.00  0.00    +0.029 C 
ATOM     10  C   UNL     1     -34.713  30.556   2.457  0.00  0.00    +0.137 C 
ATOM     11  C   UNL     1     -34.087  27.705   3.590  0.00  0.00    +0.000 C 
ATOM     12  C   UNL     1     -34.355  26.251   4.018  0.00  0.00    +0.000 C 
ATOM     13  C   UNL     1     -34.684  31.742   1.484  0.00  0.00    +0.137 C 
ATOM     14  C   UNL     1     -37.765  30.888  -0.802  0.00  0.00    +0.003 C 
ATOM     15  C   UNL     1     -34.584  26.297   0.953  0.00  0.00    +0.002 C 
ATOM     16  C   UNL     1     -37.133  32.533   1.546  0.00  0.00    +0.032 C 
ATOM     17  C   UNL     1     -35.383  30.337  -1.195  0.00  0.00    +0.000 C 
ATOM     18  C   UNL     1     -38.867  31.434   0.095  0.00  0.00    +0.029 C 
ATOM     19  C   UNL     1     -38.422  32.731   0.756  0.00  0.00    +0.111 C 
ENDROOT
BRANCH   7  20
ATOM     20  O   UNL     1     -38.054  27.141   2.239  0.00  0.00    -0.384 OA
ATOM     21  H   UNL     1     -37.722  27.002   3.140  0.00  0.00    +0.210 HD
ENDBRANCH   7  20
BRANCH  10  22
ATOM     22  O   UNL     1     -35.578  30.856   3.549  0.00  0.00    -0.382 OA
ATOM     23  H   UNL     1     -36.365  31.318   3.221  0.00  0.00    +0.210 HD
ENDBRANCH  10  22
BRANCH  13  24
ATOM     24  O   UNL     1     -34.335  32.925   2.201  0.00  0.00    -0.382 OA
ATOM     25  H   UNL     1     -34.221  33.659   1.578  0.00  0.00    +0.210 HD
ENDBRANCH  13  24
BRANCH  19  26
ATOM     26  O   UNL     1     -39.450  33.199   1.623  0.00  0.00    -0.384 OA
ATOM     27  H   UNL     1     -39.053  33.709   2.348  0.00  0.00    +0.210 HD
ENDBRANCH  19  26
BRANCH   6  28
ATOM     28  C   UNL     1     -35.623  24.305   2.948  0.00  0.00    +0.001 C 
ATOM     29  C   UNL     1     -37.066  23.790   2.911  0.00  0.00    +0.000 C 
BRANCH  28  30
ATOM     30  C   UNL     1     -34.767  23.555   3.989  0.00  0.00    +0.012 C 
BRANCH  30  31
ATOM     31  C   UNL     1     -35.588  22.715   4.971  0.00  0.00    +0.109 C 
BRANCH  31  33
ATOM     32  O   UNL     1     -35.285  20.653   3.711  0.00  0.00    -0.250 OA
ATOM     33  C   UNL     1     -35.344  21.234   4.785  0.00  0.00    +0.314 C 
BRANCH  33  34
ATOM     34  O   UNL     1     -35.199  20.601   5.980  0.00  0.00    -0.480 OA
ATOM     35  H   UNL     1     -35.106  19.669   6.007  0.00  0.00    +0.295 HD
ENDBRANCH  33  34
ENDBRANCH  31  33
ENDBRANCH  30  31
ENDBRANCH  28  30
ENDBRANCH   6  28
TORSDOF 9
ENDMDL
