MODEL 1
REMARK VINA RESULT:      -6.9      0.000      0.000
REMARK  Name = 51556
REMARK  6 active torsions:
REMARK  status: ('A' for Active; 'I' for Inactive)
REMARK    1  A    between atoms: C_1  and  C_9
REMARK    2  A    between atoms: C_2  and  O_18
REMARK    3  A    between atoms: C_3  and  N_17
REMARK    4  A    between atoms: N_8  and  S_11
REMARK    5  A    between atoms: O_18  and  C_20
REMARK    6  A    between atoms: C_21  and  C_29
REMARK                            x       y       z     vdW  Elec       q    Type
REMARK                         _______ _______ _______ _____ _____    ______ ____
ROOT
ATOM      1  C   UNL     1     -34.930  23.619   2.695  0.00  0.00    +0.080 C 
ATOM      2  C   UNL     1     -34.870  21.500   1.535  0.00  0.00    +0.146 C 
ATOM      3  C   UNL     1     -35.562  23.008   3.778  0.00  0.00    +0.147 C 
ATOM      4  C   UNL     1     -34.583  22.865   1.574  0.00  0.00    +0.044 C 
ATOM      5  C   UNL     1     -35.503  20.890   2.618  0.00  0.00    +0.039 C 
ATOM      6  C   UNL     1     -35.850  21.644   3.739  0.00  0.00    +0.027 C 
ENDROOT
BRANCH   1   9
ATOM      7  O   UNL     1     -34.987  25.797   1.790  0.00  0.00    -0.269 OA
ATOM      8  N   UNL     1     -33.839  25.528   3.816  0.00  0.00    -0.185 N 
ATOM      9  C   UNL     1     -34.614  25.043   2.699  0.00  0.00    +0.266 C 
ATOM     10  H   UNL     1     -33.576  24.870   4.500  0.00  0.00    +0.176 HD
BRANCH   8  11
ATOM     11  S   UNL     1     -33.340  27.148   4.055  0.00  0.00    +0.058 S 
ATOM     12  O   UNL     1     -34.425  28.056   3.741  0.00  0.00    -0.154 OA
ATOM     13  O   UNL     1     -32.636  27.235   5.319  0.00  0.00    -0.154 OA
ATOM     14  C   UNL     1     -32.129  27.276   2.761  0.00  0.00    +0.200 C 
ENDBRANCH   8  11
ENDBRANCH   1   9
BRANCH   3  17
ATOM     15  O   UNL     1     -36.907  24.531   4.868  0.00  0.00    -0.126 OA
ATOM     16  O   UNL     1     -35.254  23.614   5.982  0.00  0.00    -0.126 OA
ATOM     17  N   UNL     1     -35.925  23.755   4.934  0.00  0.00    +0.058 N 
ENDBRANCH   3  17
BRANCH   2  18
ATOM     18  O   UNL     1     -34.531  20.765   0.441  0.00  0.00    -0.453 OA
BRANCH  18  20
ATOM     19 CL   UNL     1     -32.116  22.011  -0.843  0.00  0.00    -0.079 Cl
ATOM     20  C   UNL     1     -33.372  20.010   0.507  0.00  0.00    +0.156 C 
ATOM     21  C   UNL     1     -31.085  18.460   0.670  0.00  0.00    +0.072 C 
ATOM     22  C   UNL     1     -32.196  20.481  -0.049  0.00  0.00    +0.092 C 
ATOM     23  C   UNL     1     -33.432  18.782   1.142  0.00  0.00    +0.038 C 
ATOM     24  C   UNL     1     -31.043  19.700   0.033  0.00  0.00    +0.018 C 
ATOM     25  C   UNL     1     -32.280  18.000   1.224  0.00  0.00    +0.007 C 
BRANCH  21  29
ATOM     26  F   UNL     1     -28.846  18.044  -0.064  0.00  0.00    -0.166 F 
ATOM     27  F   UNL     1     -29.302  17.591   2.008  0.00  0.00    -0.166 F 
ATOM     28  F   UNL     1     -30.078  16.319   0.424  0.00  0.00    -0.166 F 
ATOM     29  C   UNL     1     -29.852  17.624   0.759  0.00  0.00    +0.419 C 
ENDBRANCH  21  29
ENDBRANCH  18  20
ENDBRANCH   2  18
TORSDOF 6
ENDMDL
MODEL 2
REMARK VINA RESULT:      -6.8      3.820      5.667
REMARK  Name = 51556
REMARK  6 active torsions:
REMARK  status: ('A' for Active; 'I' for Inactive)
REMARK    1  A    between atoms: C_1  and  C_9
REMARK    2  A    between atoms: C_2  and  O_18
REMARK    3  A    between atoms: C_3  and  N_17
REMARK    4  A    between atoms: N_8  and  S_11
REMARK    5  A    between atoms: O_18  and  C_20
REMARK    6  A    between atoms: C_21  and  C_29
REMARK                            x       y       z     vdW  Elec       q    Type
REMARK                         _______ _______ _______ _____ _____    ______ ____
ROOT
ATOM      1  C   UNL     1     -34.165  27.542   3.998  0.00  0.00    +0.080 C 
ATOM      2  C   UNL     1     -35.262  25.565   4.850  0.00  0.00    +0.146 C 
ATOM      3  C   UNL     1     -33.253  27.488   5.052  0.00  0.00    +0.147 C 
ATOM      4  C   UNL     1     -35.170  26.579   3.897  0.00  0.00    +0.044 C 
ATOM      5  C   UNL     1     -34.350  25.512   5.903  0.00  0.00    +0.039 C 
ATOM      6  C   UNL     1     -33.345  26.474   6.005  0.00  0.00    +0.027 C 
ENDROOT
BRANCH   1   9
ATOM      7  O   UNL     1     -33.218  28.600   2.115  0.00  0.00    -0.269 OA
ATOM      8  N   UNL     1     -35.115  29.611   3.048  0.00  0.00    -0.185 N 
ATOM      9  C   UNL     1     -34.100  28.587   2.984  0.00  0.00    +0.266 C 
ATOM     10  H   UNL     1     -35.783  29.538   3.767  0.00  0.00    +0.176 HD
BRANCH   8  11
ATOM     11  S   UNL     1     -35.258  30.941   1.979  0.00  0.00    +0.058 S 
ATOM     12  O   UNL     1     -34.951  30.528   0.624  0.00  0.00    -0.154 OA
ATOM     13  O   UNL     1     -36.486  31.649   2.283  0.00  0.00    -0.154 OA
ATOM     14  C   UNL     1     -33.910  31.937   2.567  0.00  0.00    +0.200 C 
ENDBRANCH   8  11
ENDBRANCH   1   9
BRANCH   3  17
ATOM     15  O   UNL     1     -31.062  28.161   4.796  0.00  0.00    -0.126 OA
ATOM     16  O   UNL     1     -32.494  29.579   5.665  0.00  0.00    -0.126 OA
ATOM     17  N   UNL     1     -32.218  28.458   5.178  0.00  0.00    +0.058 N 
ENDBRANCH   3  17
BRANCH   2  18
ATOM     18  O   UNL     1     -36.242  24.625   4.750  0.00  0.00    -0.453 OA
BRANCH  18  20
ATOM     19 CL   UNL     1     -35.499  22.151   6.285  0.00  0.00    -0.079 Cl
ATOM     20  C   UNL     1     -35.985  23.506   3.976  0.00  0.00    +0.156 C 
ATOM     21  C   UNL     1     -35.483  21.300   2.381  0.00  0.00    +0.072 C 
ATOM     22  C   UNL     1     -35.634  22.307   4.572  0.00  0.00    +0.092 C 
ATOM     23  C   UNL     1     -36.090  23.628   2.601  0.00  0.00    +0.038 C 
ATOM     24  C   UNL     1     -35.381  21.195   3.769  0.00  0.00    +0.018 C 
ATOM     25  C   UNL     1     -35.838  22.516   1.798  0.00  0.00    +0.007 C 
BRANCH  21  29
ATOM     26  F   UNL     1     -36.287  19.277   1.388  0.00  0.00    -0.166 F 
ATOM     27  F   UNL     1     -34.850  20.430   0.244  0.00  0.00    -0.166 F 
ATOM     28  F   UNL     1     -34.203  19.331   2.006  0.00  0.00    -0.166 F 
ATOM     29  C   UNL     1     -35.214  20.111   1.521  0.00  0.00    +0.419 C 
ENDBRANCH  21  29
ENDBRANCH  18  20
ENDBRANCH   2  18
TORSDOF 6
ENDMDL
MODEL 3
REMARK VINA RESULT:      -6.7      3.277      4.972
REMARK  Name = 51556
REMARK  6 active torsions:
REMARK  status: ('A' for Active; 'I' for Inactive)
REMARK    1  A    between atoms: C_1  and  C_9
REMARK    2  A    between atoms: C_2  and  O_18
REMARK    3  A    between atoms: C_3  and  N_17
REMARK    4  A    between atoms: N_8  and  S_11
REMARK    5  A    between atoms: O_18  and  C_20
REMARK    6  A    between atoms: C_21  and  C_29
REMARK                            x       y       z     vdW  Elec       q    Type
REMARK                         _______ _______ _______ _____ _____    ______ ____
ROOT
ATOM      1  C   UNL     1     -34.218  26.969   3.674  0.00  0.00    +0.080 C 
ATOM      2  C   UNL     1     -36.017  25.363   3.538  0.00  0.00    +0.146 C 
ATOM      3  C   UNL     1     -34.951  27.857   2.886  0.00  0.00    +0.147 C 
ATOM      4  C   UNL     1     -34.751  25.722   4.001  0.00  0.00    +0.044 C 
ATOM      5  C   UNL     1     -36.750  26.250   2.750  0.00  0.00    +0.039 C 
ATOM      6  C   UNL     1     -36.217  27.497   2.423  0.00  0.00    +0.027 C 
ENDROOT
BRANCH   1   9
ATOM      7  O   UNL     1     -31.861  26.883   3.637  0.00  0.00    -0.269 OA
ATOM      8  N   UNL     1     -32.841  28.169   5.334  0.00  0.00    -0.185 N 
ATOM      9  C   UNL     1     -32.891  27.310   4.175  0.00  0.00    +0.266 C 
ATOM     10  H   UNL     1     -33.701  28.468   5.709  0.00  0.00    +0.176 HD
BRANCH   8  11
ATOM     11  S   UNL     1     -31.416  28.713   6.112  0.00  0.00    +0.058 S 
ATOM     12  O   UNL     1     -31.754  29.508   7.275  0.00  0.00    -0.154 OA
ATOM     13  O   UNL     1     -30.490  27.602   6.211  0.00  0.00    -0.154 OA
ATOM     14  C   UNL     1     -30.799  29.811   4.859  0.00  0.00    +0.200 C 
ENDBRANCH   8  11
ENDBRANCH   1   9
BRANCH   3  17
ATOM     15  O   UNL     1     -34.525  30.071   3.367  0.00  0.00    -0.126 OA
ATOM     16  O   UNL     1     -33.891  29.286   1.419  0.00  0.00    -0.126 OA
ATOM     17  N   UNL     1     -34.430  29.135   2.539  0.00  0.00    +0.058 N 
ENDBRANCH   3  17
BRANCH   2  18
ATOM     18  O   UNL     1     -36.537  24.146   3.858  0.00  0.00    -0.453 OA
BRANCH  18  20
ATOM     19 CL   UNL     1     -35.581  21.991   5.722  0.00  0.00    -0.079 Cl
ATOM     20  C   UNL     1     -35.993  23.031   3.242  0.00  0.00    +0.156 C 
ATOM     21  C   UNL     1     -34.920  20.827   1.958  0.00  0.00    +0.072 C 
ATOM     22  C   UNL     1     -35.520  21.973   3.998  0.00  0.00    +0.092 C 
ATOM     23  C   UNL     1     -35.942  23.013   1.859  0.00  0.00    +0.038 C 
ATOM     24  C   UNL     1     -34.979  20.862   3.352  0.00  0.00    +0.018 C 
ATOM     25  C   UNL     1     -35.401  21.903   1.212  0.00  0.00    +0.007 C 
BRANCH  21  29
ATOM     26  F   UNL     1     -33.551  19.958   0.198  0.00  0.00    -0.166 F 
ATOM     27  F   UNL     1     -33.558  18.863   2.070  0.00  0.00    -0.166 F 
ATOM     28  F   UNL     1     -35.301  18.802   0.771  0.00  0.00    -0.166 F 
ATOM     29  C   UNL     1     -34.342  19.639   1.265  0.00  0.00    +0.419 C 
ENDBRANCH  21  29
ENDBRANCH  18  20
ENDBRANCH   2  18
TORSDOF 6
ENDMDL
MODEL 4
REMARK VINA RESULT:      -6.7      5.740      8.687
REMARK  Name = 51556
REMARK  6 active torsions:
REMARK  status: ('A' for Active; 'I' for Inactive)
REMARK    1  A    between atoms: C_1  and  C_9
REMARK    2  A    between atoms: C_2  and  O_18
REMARK    3  A    between atoms: C_3  and  N_17
REMARK    4  A    between atoms: N_8  and  S_11
REMARK    5  A    between atoms: O_18  and  C_20
REMARK    6  A    between atoms: C_21  and  C_29
REMARK                            x       y       z     vdW  Elec       q    Type
REMARK                         _______ _______ _______ _____ _____    ______ ____
ROOT
ATOM      1  C   UNL     1     -36.294  19.353   0.745  0.00  0.00    +0.080 C 
ATOM      2  C   UNL     1     -35.962  20.911   2.562  0.00  0.00    +0.146 C 
ATOM      3  C   UNL     1     -34.917  19.138   0.678  0.00  0.00    +0.147 C 
ATOM      4  C   UNL     1     -36.817  20.239   1.687  0.00  0.00    +0.044 C 
ATOM      5  C   UNL     1     -34.585  20.696   2.494  0.00  0.00    +0.039 C 
ATOM      6  C   UNL     1     -34.063  19.810   1.552  0.00  0.00    +0.027 C 
ENDROOT
BRANCH   1   9
ATOM      7  O   UNL     1     -37.707  19.235  -1.141  0.00  0.00    -0.269 OA
ATOM      8  N   UNL     1     -37.538  17.301   0.173  0.00  0.00    -0.185 N 
ATOM      9  C   UNL     1     -37.218  18.669  -0.153  0.00  0.00    +0.266 C 
ATOM     10  H   UNL     1     -37.114  16.918   0.975  0.00  0.00    +0.176 HD
BRANCH   8  11
ATOM     11  S   UNL     1     -38.591  16.284  -0.716  0.00  0.00    +0.058 S 
ATOM     12  O   UNL     1     -38.710  14.996  -0.065  0.00  0.00    -0.154 OA
ATOM     13  O   UNL     1     -39.769  17.045  -1.085  0.00  0.00    -0.154 OA
ATOM     14  C   UNL     1     -37.617  16.066  -2.186  0.00  0.00    +0.200 C 
ENDBRANCH   8  11
ENDBRANCH   1   9
BRANCH   3  17
ATOM     15  O   UNL     1     -34.325  17.016  -0.002  0.00  0.00    -0.126 OA
ATOM     16  O   UNL     1     -33.921  18.696  -1.355  0.00  0.00    -0.126 OA
ATOM     17  N   UNL     1     -34.360  18.239  -0.274  0.00  0.00    +0.058 N 
ENDBRANCH   3  17
BRANCH   2  18
ATOM     18  O   UNL     1     -36.472  21.774   3.482  0.00  0.00    -0.453 OA
BRANCH  18  20
ATOM     19 CL   UNL     1     -35.438  22.167   6.276  0.00  0.00    -0.079 Cl
ATOM     20  C   UNL     1     -35.792  22.961   3.698  0.00  0.00    +0.156 C 
ATOM     21  C   UNL     1     -34.439  25.347   4.073  0.00  0.00    +0.072 C 
ATOM     22  C   UNL     1     -35.269  23.252   4.946  0.00  0.00    +0.092 C 
ATOM     23  C   UNL     1     -35.655  23.835   2.633  0.00  0.00    +0.038 C 
ATOM     24  C   UNL     1     -34.587  24.454   5.135  0.00  0.00    +0.018 C 
ATOM     25  C   UNL     1     -34.973  25.037   2.822  0.00  0.00    +0.007 C 
BRANCH  21  29
ATOM     26  F   UNL     1     -34.390  27.725   3.817  0.00  0.00    -0.166 F 
ATOM     27  F   UNL     1     -33.433  26.906   5.583  0.00  0.00    -0.166 F 
ATOM     28  F   UNL     1     -32.505  26.658   3.632  0.00  0.00    -0.166 F 
ATOM     29  C   UNL     1     -33.710  26.632   4.274  0.00  0.00    +0.419 C 
ENDBRANCH  21  29
ENDBRANCH  18  20
ENDBRANCH   2  18
TORSDOF 6
ENDMDL
MODEL 5
REMARK VINA RESULT:      -6.7      5.872      7.846
REMARK  Name = 51556
REMARK  6 active torsions:
REMARK  status: ('A' for Active; 'I' for Inactive)
REMARK    1  A    between atoms: C_1  and  C_9
REMARK    2  A    between atoms: C_2  and  O_18
REMARK    3  A    between atoms: C_3  and  N_17
REMARK    4  A    between atoms: N_8  and  S_11
REMARK    5  A    between atoms: O_18  and  C_20
REMARK    6  A    between atoms: C_21  and  C_29
REMARK                            x       y       z     vdW  Elec       q    Type
REMARK                         _______ _______ _______ _____ _____    ______ ____
ROOT
ATOM      1  C   UNL     1     -38.210  20.909   1.140  0.00  0.00    +0.080 C 
ATOM      2  C   UNL     1     -36.065  20.595   2.205  0.00  0.00    +0.146 C 
ATOM      3  C   UNL     1     -37.807  20.087   0.087  0.00  0.00    +0.147 C 
ATOM      4  C   UNL     1     -37.339  21.163   2.199  0.00  0.00    +0.044 C 
ATOM      5  C   UNL     1     -35.662  19.774   1.152  0.00  0.00    +0.039 C 
ATOM      6  C   UNL     1     -36.533  19.520   0.093  0.00  0.00    +0.027 C 
ENDROOT
BRANCH   1   9
ATOM      7  O   UNL     1     -40.462  21.037   1.830  0.00  0.00    -0.269 OA
ATOM      8  N   UNL     1     -39.709  22.715   0.378  0.00  0.00    -0.185 N 
ATOM      9  C   UNL     1     -39.534  21.520   1.168  0.00  0.00    +0.266 C 
ATOM     10  H   UNL     1     -38.928  23.040  -0.124  0.00  0.00    +0.176 HD
BRANCH   8  11
ATOM     11  S   UNL     1     -41.158  23.618   0.243  0.00  0.00    +0.058 S 
ATOM     12  O   UNL     1     -42.193  22.811  -0.370  0.00  0.00    -0.154 OA
ATOM     13  O   UNL     1     -41.393  24.308   1.496  0.00  0.00    -0.154 OA
ATOM     14  C   UNL     1     -40.637  24.833  -0.944  0.00  0.00    +0.200 C 
ENDBRANCH   8  11
ENDBRANCH   1   9
BRANCH   3  17
ATOM     15  O   UNL     1     -39.359  18.760  -0.985  0.00  0.00    -0.126 OA
ATOM     16  O   UNL     1     -38.738  20.629  -1.953  0.00  0.00    -0.126 OA
ATOM     17  N   UNL     1     -38.678  19.812  -1.005  0.00  0.00    +0.058 N 
ENDBRANCH   3  17
BRANCH   2  18
ATOM     18  O   UNL     1     -35.215  20.842   3.240  0.00  0.00    -0.453 OA
BRANCH  18  20
ATOM     19 CL   UNL     1     -35.486  21.026   6.227  0.00  0.00    -0.079 Cl
ATOM     20  C   UNL     1     -35.187  22.127   3.757  0.00  0.00    +0.156 C 
ATOM     21  C   UNL     1     -35.122  24.715   4.736  0.00  0.00    +0.072 C 
ATOM     22  C   UNL     1     -35.302  22.336   5.120  0.00  0.00    +0.092 C 
ATOM     23  C   UNL     1     -35.041  23.180   2.872  0.00  0.00    +0.038 C 
ATOM     24  C   UNL     1     -35.269  23.640   5.614  0.00  0.00    +0.018 C 
ATOM     25  C   UNL     1     -35.008  24.485   3.365  0.00  0.00    +0.007 C 
BRANCH  21  29
ATOM     26  F   UNL     1     -36.313  26.591   5.622  0.00  0.00    -0.166 F 
ATOM     27  F   UNL     1     -34.307  26.255   6.375  0.00  0.00    -0.166 F 
ATOM     28  F   UNL     1     -34.595  27.002   4.353  0.00  0.00    -0.166 F 
ATOM     29  C   UNL     1     -35.086  26.109   5.263  0.00  0.00    +0.419 C 
ENDBRANCH  21  29
ENDBRANCH  18  20
ENDBRANCH   2  18
TORSDOF 6
ENDMDL
MODEL 6
REMARK VINA RESULT:      -6.6      3.928      5.406
REMARK  Name = 51556
REMARK  6 active torsions:
REMARK  status: ('A' for Active; 'I' for Inactive)
REMARK    1  A    between atoms: C_1  and  C_9
REMARK    2  A    between atoms: C_2  and  O_18
REMARK    3  A    between atoms: C_3  and  N_17
REMARK    4  A    between atoms: N_8  and  S_11
REMARK    5  A    between atoms: O_18  and  C_20
REMARK    6  A    between atoms: C_21  and  C_29
REMARK                            x       y       z     vdW  Elec       q    Type
REMARK                         _______ _______ _______ _____ _____    ______ ____
ROOT
ATOM      1  C   UNL     1     -34.863  26.556   3.397  0.00  0.00    +0.080 C 
ATOM      2  C   UNL     1     -35.747  24.600   4.505  0.00  0.00    +0.146 C 
ATOM      3  C   UNL     1     -33.908  26.695   4.405  0.00  0.00    +0.147 C 
ATOM      4  C   UNL     1     -35.782  25.508   3.446  0.00  0.00    +0.044 C 
ATOM      5  C   UNL     1     -34.793  24.740   5.513  0.00  0.00    +0.039 C 
ATOM      6  C   UNL     1     -33.874  25.788   5.463  0.00  0.00    +0.027 C 
ENDROOT
BRANCH   1   9
ATOM      7  O   UNL     1     -34.385  27.240   1.190  0.00  0.00    -0.269 OA
ATOM      8  N   UNL     1     -35.661  28.710   2.495  0.00  0.00    -0.185 N 
ATOM      9  C   UNL     1     -34.930  27.485   2.275  0.00  0.00    +0.266 C 
ATOM     10  H   UNL     1     -36.066  28.838   3.384  0.00  0.00    +0.176 HD
BRANCH   8  11
ATOM     11  S   UNL     1     -35.886  29.958   1.345  0.00  0.00    +0.058 S 
ATOM     12  O   UNL     1     -34.675  30.150   0.573  0.00  0.00    -0.154 OA
ATOM     13  O   UNL     1     -37.164  29.760   0.691  0.00  0.00    -0.154 OA
ATOM     14  C   UNL     1     -36.060  31.343   2.444  0.00  0.00    +0.200 C 
ENDBRANCH   8  11
ENDBRANCH   1   9
BRANCH   3  17
ATOM     15  O   UNL     1     -31.740  27.474   4.313  0.00  0.00    -0.126 OA
ATOM     16  O   UNL     1     -33.371  28.938   4.414  0.00  0.00    -0.126 OA
ATOM     17  N   UNL     1     -32.960  27.755   4.376  0.00  0.00    +0.058 N 
ENDBRANCH   3  17
BRANCH   2  18
ATOM     18  O   UNL     1     -36.643  23.576   4.553  0.00  0.00    -0.453 OA
BRANCH  18  20
ATOM     19 CL   UNL     1     -38.908  23.508   2.578  0.00  0.00    -0.079 Cl
ATOM     20  C   UNL     1     -36.550  22.593   3.582  0.00  0.00    +0.156 C 
ATOM     21  C   UNL     1     -36.312  20.611   1.665  0.00  0.00    +0.072 C 
ATOM     22  C   UNL     1     -37.534  22.465   2.618  0.00  0.00    +0.092 C 
ATOM     23  C   UNL     1     -35.450  21.753   3.612  0.00  0.00    +0.038 C 
ATOM     24  C   UNL     1     -37.415  21.466   1.651  0.00  0.00    +0.018 C 
ATOM     25  C   UNL     1     -35.330  20.754   2.646  0.00  0.00    +0.007 C 
BRANCH  21  29
ATOM     26  F   UNL     1     -37.214  18.647   0.638  0.00  0.00    -0.166 F 
ATOM     27  F   UNL     1     -36.134  20.021  -0.646  0.00  0.00    -0.166 F 
ATOM     28  F   UNL     1     -35.049  18.797   0.788  0.00  0.00    -0.166 F 
ATOM     29  C   UNL     1     -36.183  19.543   0.632  0.00  0.00    +0.419 C 
ENDBRANCH  21  29
ENDBRANCH  18  20
ENDBRANCH   2  18
TORSDOF 6
ENDMDL
MODEL 7
REMARK VINA RESULT:      -6.6      5.553      8.224
REMARK  Name = 51556
REMARK  6 active torsions:
REMARK  status: ('A' for Active; 'I' for Inactive)
REMARK    1  A    between atoms: C_1  and  C_9
REMARK    2  A    between atoms: C_2  and  O_18
REMARK    3  A    between atoms: C_3  and  N_17
REMARK    4  A    between atoms: N_8  and  S_11
REMARK    5  A    between atoms: O_18  and  C_20
REMARK    6  A    between atoms: C_21  and  C_29
REMARK                            x       y       z     vdW  Elec       q    Type
REMARK                         _______ _______ _______ _____ _____    ______ ____
ROOT
ATOM      1  C   UNL     1     -34.075  19.392   0.875  0.00  0.00    +0.080 C 
ATOM      2  C   UNL     1     -35.653  20.433   2.379  0.00  0.00    +0.146 C 
ATOM      3  C   UNL     1     -35.069  19.295  -0.100  0.00  0.00    +0.147 C 
ATOM      4  C   UNL     1     -34.366  19.961   2.114  0.00  0.00    +0.044 C 
ATOM      5  C   UNL     1     -36.646  20.336   1.405  0.00  0.00    +0.039 C 
ATOM      6  C   UNL     1     -36.354  19.766   0.165  0.00  0.00    +0.027 C 
ENDROOT
BRANCH   1   9
ATOM      7  O   UNL     1     -31.764  19.686   0.500  0.00  0.00    -0.269 OA
ATOM      8  N   UNL     1     -32.550  17.478   0.554  0.00  0.00    -0.185 N 
ATOM      9  C   UNL     1     -32.720  18.909   0.634  0.00  0.00    +0.266 C 
ATOM     10  H   UNL     1     -33.355  16.923   0.668  0.00  0.00    +0.176 HD
BRANCH   8  11
ATOM     11  S   UNL     1     -31.069  16.663   0.281  0.00  0.00    +0.058 S 
ATOM     12  O   UNL     1     -30.025  17.234   1.109  0.00  0.00    -0.154 OA
ATOM     13  O   UNL     1     -31.320  15.236   0.275  0.00  0.00    -0.154 OA
ATOM     14  C   UNL     1     -30.767  17.158  -1.398  0.00  0.00    +0.200 C 
ENDBRANCH   8  11
ENDBRANCH   1   9
BRANCH   3  17
ATOM     15  O   UNL     1     -34.481  19.473  -2.322  0.00  0.00    -0.126 OA
ATOM     16  O   UNL     1     -34.878  17.475  -1.505  0.00  0.00    -0.126 OA
ATOM     17  N   UNL     1     -34.796  18.719  -1.372  0.00  0.00    +0.058 N 
ENDBRANCH   3  17
BRANCH   2  18
ATOM     18  O   UNL     1     -35.937  20.990   3.588  0.00  0.00    -0.453 OA
BRANCH  18  20
ATOM     19 CL   UNL     1     -35.544  21.707   6.480  0.00  0.00    -0.079 Cl
ATOM     20  C   UNL     1     -35.497  22.283   3.821  0.00  0.00    +0.156 C 
ATOM     21  C   UNL     1     -34.618  24.875   4.229  0.00  0.00    +0.072 C 
ATOM     22  C   UNL     1     -35.280  22.727   5.114  0.00  0.00    +0.092 C 
ATOM     23  C   UNL     1     -35.286  23.104   2.728  0.00  0.00    +0.038 C 
ATOM     24  C   UNL     1     -34.837  24.033   5.320  0.00  0.00    +0.018 C 
ATOM     25  C   UNL     1     -34.843  24.410   2.932  0.00  0.00    +0.007 C 
BRANCH  21  29
ATOM     26  F   UNL     1     -32.926  26.531   3.884  0.00  0.00    -0.166 F 
ATOM     27  F   UNL     1     -34.981  27.221   3.937  0.00  0.00    -0.166 F 
ATOM     28  F   UNL     1     -34.005  26.578   5.771  0.00  0.00    -0.166 F 
ATOM     29  C   UNL     1     -34.143  26.272   4.447  0.00  0.00    +0.419 C 
ENDBRANCH  21  29
ENDBRANCH  18  20
ENDBRANCH   2  18
TORSDOF 6
ENDMDL
MODEL 8
REMARK VINA RESULT:      -6.6      3.696      5.524
REMARK  Name = 51556
REMARK  6 active torsions:
REMARK  status: ('A' for Active; 'I' for Inactive)
REMARK    1  A    between atoms: C_1  and  C_9
REMARK    2  A    between atoms: C_2  and  O_18
REMARK    3  A    between atoms: C_3  and  N_17
REMARK    4  A    between atoms: N_8  and  S_11
REMARK    5  A    between atoms: O_18  and  C_20
REMARK    6  A    between atoms: C_21  and  C_29
REMARK                            x       y       z     vdW  Elec       q    Type
REMARK                         _______ _______ _______ _____ _____    ______ ____
ROOT
ATOM      1  C   UNL     1     -33.637  27.461   4.044  0.00  0.00    +0.080 C 
ATOM      2  C   UNL     1     -35.118  25.688   4.751  0.00  0.00    +0.146 C 
ATOM      3  C   UNL     1     -33.014  27.437   5.292  0.00  0.00    +0.147 C 
ATOM      4  C   UNL     1     -34.689  26.586   3.773  0.00  0.00    +0.044 C 
ATOM      5  C   UNL     1     -34.495  25.666   5.999  0.00  0.00    +0.039 C 
ATOM      6  C   UNL     1     -33.443  26.541   6.269  0.00  0.00    +0.027 C 
ENDROOT
BRANCH   1   9
ATOM      7  O   UNL     1     -33.825  29.440   2.775  0.00  0.00    -0.269 OA
ATOM      8  N   UNL     1     -32.055  28.004   2.229  0.00  0.00    -0.185 N 
ATOM      9  C   UNL     1     -33.216  28.385   2.997  0.00  0.00    +0.266 C 
ATOM     10  H   UNL     1     -31.624  27.149   2.460  0.00  0.00    +0.176 HD
BRANCH   8  11
ATOM     11  S   UNL     1     -31.363  28.909   0.951  0.00  0.00    +0.058 S 
ATOM     12  O   UNL     1     -32.279  28.973  -0.170  0.00  0.00    -0.154 OA
ATOM     13  O   UNL     1     -30.775  30.114   1.503  0.00  0.00    -0.154 OA
ATOM     14  C   UNL     1     -30.031  27.821   0.508  0.00  0.00    +0.200 C 
ENDBRANCH   8  11
ENDBRANCH   1   9
BRANCH   3  17
ATOM     15  O   UNL     1     -30.775  27.991   5.257  0.00  0.00    -0.126 OA
ATOM     16  O   UNL     1     -32.184  29.398   6.180  0.00  0.00    -0.126 OA
ATOM     17  N   UNL     1     -31.938  28.319   5.592  0.00  0.00    +0.058 N 
ENDBRANCH   3  17
BRANCH   2  18
ATOM     18  O   UNL     1     -36.144  24.833   4.487  0.00  0.00    -0.453 OA
BRANCH  18  20
ATOM     19 CL   UNL     1     -35.673  22.401   6.188  0.00  0.00    -0.079 Cl
ATOM     20  C   UNL     1     -35.852  23.673   3.789  0.00  0.00    +0.156 C 
ATOM     21  C   UNL     1     -35.275  21.383   2.345  0.00  0.00    +0.072 C 
ATOM     22  C   UNL     1     -35.617  22.489   4.466  0.00  0.00    +0.092 C 
ATOM     23  C   UNL     1     -35.805  23.740   2.408  0.00  0.00    +0.038 C 
ATOM     24  C   UNL     1     -35.326  21.335   3.739  0.00  0.00    +0.018 C 
ATOM     25  C   UNL     1     -35.514  22.586   1.680  0.00  0.00    +0.007 C 
BRANCH  21  29
ATOM     26  F   UNL     1     -36.047  19.339   1.370  0.00  0.00    -0.166 F 
ATOM     27  F   UNL     1     -34.477  20.400   0.316  0.00  0.00    -0.166 F 
ATOM     28  F   UNL     1     -34.027  19.366   2.175  0.00  0.00    -0.166 F 
ATOM     29  C   UNL     1     -34.965  20.150   1.566  0.00  0.00    +0.419 C 
ENDBRANCH  21  29
ENDBRANCH  18  20
ENDBRANCH   2  18
TORSDOF 6
ENDMDL
MODEL 9
REMARK VINA RESULT:      -6.6      6.121      7.945
REMARK  Name = 51556
REMARK  6 active torsions:
REMARK  status: ('A' for Active; 'I' for Inactive)
REMARK    1  A    between atoms: C_1  and  C_9
REMARK    2  A    between atoms: C_2  and  O_18
REMARK    3  A    between atoms: C_3  and  N_17
REMARK    4  A    between atoms: N_8  and  S_11
REMARK    5  A    between atoms: O_18  and  C_20
REMARK    6  A    between atoms: C_21  and  C_29
REMARK                            x       y       z     vdW  Elec       q    Type
REMARK                         _______ _______ _______ _____ _____    ______ ____
ROOT
ATOM      1  C   UNL     1     -39.957  24.981   2.194  0.00  0.00    +0.080 C 
ATOM      2  C   UNL     1     -38.226  23.499   2.995  0.00  0.00    +0.146 C 
ATOM      3  C   UNL     1     -40.372  24.006   1.286  0.00  0.00    +0.147 C 
ATOM      4  C   UNL     1     -38.884  24.728   3.048  0.00  0.00    +0.044 C 
ATOM      5  C   UNL     1     -38.641  22.524   2.088  0.00  0.00    +0.039 C 
ATOM      6  C   UNL     1     -39.713  22.778   1.233  0.00  0.00    +0.027 C 
ENDROOT
BRANCH   1   9
ATOM      7  O   UNL     1     -40.291  27.227   1.553  0.00  0.00    -0.269 OA
ATOM      8  N   UNL     1     -41.677  26.398   3.253  0.00  0.00    -0.185 N 
ATOM      9  C   UNL     1     -40.620  26.277   2.278  0.00  0.00    +0.266 C 
ATOM     10  H   UNL     1     -41.882  25.602   3.794  0.00  0.00    +0.176 HD
BRANCH   8  11
ATOM     11  S   UNL     1     -42.606  27.806   3.546  0.00  0.00    +0.058 S 
ATOM     12  O   UNL     1     -41.952  28.639   4.535  0.00  0.00    -0.154 OA
ATOM     13  O   UNL     1     -43.033  28.353   2.274  0.00  0.00    -0.154 OA
ATOM     14  C   UNL     1     -44.029  27.065   4.311  0.00  0.00    +0.200 C 
ENDBRANCH   8  11
ENDBRANCH   1   9
BRANCH   3  17
ATOM     15  O   UNL     1     -42.626  23.996   0.804  0.00  0.00    -0.126 OA
ATOM     16  O   UNL     1     -41.231  24.683  -0.744  0.00  0.00    -0.126 OA
ATOM     17  N   UNL     1     -41.463  24.240   0.404  0.00  0.00    +0.058 N 
ENDBRANCH   3  17
BRANCH   2  18
ATOM     18  O   UNL     1     -37.180  23.251   3.830  0.00  0.00    -0.453 OA
BRANCH  18  20
ATOM     19 CL   UNL     1     -35.047  23.127   1.716  0.00  0.00    -0.079 Cl
ATOM     20  C   UNL     1     -36.193  24.218   3.930  0.00  0.00    +0.156 C 
ATOM     21  C   UNL     1     -34.249  26.173   4.176  0.00  0.00    +0.072 C 
ATOM     22  C   UNL     1     -35.158  24.261   3.012  0.00  0.00    +0.092 C 
ATOM     23  C   UNL     1     -36.278  25.128   4.969  0.00  0.00    +0.038 C 
ATOM     24  C   UNL     1     -34.178  25.246   3.135  0.00  0.00    +0.018 C 
ATOM     25  C   UNL     1     -35.299  26.114   5.093  0.00  0.00    +0.007 C 
BRANCH  21  29
ATOM     26  F   UNL     1     -32.063  26.959   3.604  0.00  0.00    -0.166 F 
ATOM     27  F   UNL     1     -33.607  28.458   3.878  0.00  0.00    -0.166 F 
ATOM     28  F   UNL     1     -32.798  27.405   5.601  0.00  0.00    -0.166 F 
ATOM     29  C   UNL     1     -33.202  27.227   4.309  0.00  0.00    +0.419 C 
ENDBRANCH  21  29
ENDBRANCH  18  20
ENDBRANCH   2  18
TORSDOF 6
ENDMDL
