MODEL 1
REMARK VINA RESULT:      -5.7      0.000      0.000
REMARK  Name = 56972233
REMARK  7 active torsions:
REMARK  status: ('A' for Active; 'I' for Inactive)
REMARK    1  A    between atoms: C_7  and  C_17
REMARK    2  A    between atoms: C_8  and  N_14
REMARK    3  A    between atoms: C_9  and  O_15
REMARK    4  A    between atoms: C_17  and  CA_18
REMARK    5  A    between atoms: CA_18  and  N_19
REMARK    6  A    between atoms: CA_18  and  C_24
REMARK    7  A    between atoms: C_24  and  O_25
REMARK                            x       y       z     vdW  Elec       q    Type
REMARK                         _______ _______ _______ _____ _____    ______ ____
ROOT
ATOM      1  O   UNL     1     -37.155  24.659   4.520  0.00  0.00    -0.274 OA
ATOM      2  N   UNL     1     -36.524  22.743   3.421  0.00  0.00    -0.234 N 
ATOM      3  C   UNL     1     -35.506  21.686   3.263  0.00  0.00    +0.072 C 
ATOM      4  C   UNL     1     -36.080  20.619   2.334  0.00  0.00    +0.021 C 
ATOM      5  C   UNL     1     -37.305  21.298   1.815  0.00  0.00    +0.051 C 
ATOM      6  C   UNL     1     -37.551  22.507   2.480  0.00  0.00    +0.083 C 
ATOM      7  C   UNL     1     -36.332  23.750   4.350  0.00  0.00    +0.232 C 
ATOM      8  C   UNL     1     -38.667  23.259   2.141  0.00  0.00    +0.157 C 
ATOM      9  C   UNL     1     -38.155  20.816   0.829  0.00  0.00    +0.140 C 
ATOM     10  C   UNL     1     -39.528  22.783   1.143  0.00  0.00    +0.028 C 
ATOM     11  C   UNL     1     -39.275  21.571   0.492  0.00  0.00    +0.039 C 
ENDROOT
BRANCH   8  14
ATOM     12  O   UNL     1     -38.593  25.565   2.229  0.00  0.00    -0.126 OA
ATOM     13  O   UNL     1     -39.800  24.500   3.723  0.00  0.00    -0.126 OA
ATOM     14  N   UNL     1     -39.037  24.498   2.725  0.00  0.00    +0.059 N 
ENDBRANCH   8  14
BRANCH   9  15
ATOM     15  O   UNL     1     -37.907  19.637   0.203  0.00  0.00    -0.471 OA
ATOM     16  C   UNL     1     -38.787  19.262  -0.859  0.00  0.00    +0.252 C 
ENDBRANCH   9  15
BRANCH   7  17
ATOM     17  C   UNL     1     -35.078  23.759   5.179  0.00  0.00    +0.075 C 
BRANCH  17  18
ATOM     18  CA  UNL     1     -34.165  24.882   4.704  0.00  0.00    +0.045 C 
BRANCH  18  19
ATOM     19  N   UNL     1     -34.472  25.190   3.307  0.00  0.00    +0.389 N 
ATOM     20  H1  UNL     1     -34.699  26.180   3.220  0.00  0.00    -0.088 HD
ATOM     21  H2  UNL     1     -35.267  24.630   3.003  0.00  0.00    -0.088 HD
ATOM     22  H3  UNL     1     -33.661  24.975   2.726  0.00  0.00    -0.088 HD
ENDBRANCH  18  19
BRANCH  18  24
ATOM     23  OXT UNL     1     -33.738  26.507   6.476  0.00  0.00    -0.253 OA
ATOM     24  C   UNL     1     -34.370  26.172   5.483  0.00  0.00    +0.293 C 
BRANCH  24  25
ATOM     25  O   UNL     1     -35.373  26.929   4.961  0.00  0.00    -0.482 OA
ATOM     26  H   UNL     1     -35.555  26.898   4.042  0.00  0.00    +0.295 HD
ENDBRANCH  24  25
ENDBRANCH  18  24
ENDBRANCH  17  18
ENDBRANCH   7  17
TORSDOF 7
ENDMDL
MODEL 2
REMARK VINA RESULT:      -5.6      1.452      1.567
REMARK  Name = 56972233
REMARK  7 active torsions:
REMARK  status: ('A' for Active; 'I' for Inactive)
REMARK    1  A    between atoms: C_7  and  C_17
REMARK    2  A    between atoms: C_8  and  N_14
REMARK    3  A    between atoms: C_9  and  O_15
REMARK    4  A    between atoms: C_17  and  CA_18
REMARK    5  A    between atoms: CA_18  and  N_19
REMARK    6  A    between atoms: CA_18  and  C_24
REMARK    7  A    between atoms: C_24  and  O_25
REMARK                            x       y       z     vdW  Elec       q    Type
REMARK                         _______ _______ _______ _____ _____    ______ ____
ROOT
ATOM      1  O   UNL     1     -38.061  24.341   3.705  0.00  0.00    -0.274 OA
ATOM      2  N   UNL     1     -36.678  22.587   3.168  0.00  0.00    -0.234 N 
ATOM      3  C   UNL     1     -35.417  21.875   3.453  0.00  0.00    +0.072 C 
ATOM      4  C   UNL     1     -35.418  20.581   2.642  0.00  0.00    +0.021 C 
ATOM      5  C   UNL     1     -36.589  20.791   1.739  0.00  0.00    +0.051 C 
ATOM      6  C   UNL     1     -37.312  21.940   2.084  0.00  0.00    +0.083 C 
ATOM      7  C   UNL     1     -37.016  23.710   3.904  0.00  0.00    +0.232 C 
ATOM      8  C   UNL     1     -38.450  22.274   1.363  0.00  0.00    +0.157 C 
ATOM      9  C   UNL     1     -36.982  19.961   0.699  0.00  0.00    +0.140 C 
ATOM     10  C   UNL     1     -38.852  21.445   0.308  0.00  0.00    +0.028 C 
ATOM     11  C   UNL     1     -38.125  20.296  -0.022  0.00  0.00    +0.039 C 
ENDROOT
BRANCH   8  14
ATOM     12  O   UNL     1     -38.967  24.506   1.072  0.00  0.00    -0.126 OA
ATOM     13  O   UNL     1     -40.293  23.280   2.322  0.00  0.00    -0.126 OA
ATOM     14  N   UNL     1     -39.274  23.405   1.597  0.00  0.00    +0.059 N 
ENDBRANCH   8  14
BRANCH   9  15
ATOM     15  O   UNL     1     -36.274  18.845   0.385  0.00  0.00    -0.471 OA
ATOM     16  C   UNL     1     -36.965  17.806  -0.310  0.00  0.00    +0.252 C 
ENDBRANCH   9  15
BRANCH   7  17
ATOM     17  C   UNL     1     -36.082  24.196   4.977  0.00  0.00    +0.075 C 
BRANCH  17  18
ATOM     18  CA  UNL     1     -35.600  25.599   4.631  0.00  0.00    +0.045 C 
BRANCH  18  19
ATOM     19  N   UNL     1     -36.476  26.577   5.276  0.00  0.00    +0.389 N 
ATOM     20  H1  UNL     1     -35.919  27.364   5.609  0.00  0.00    -0.088 HD
ATOM     21  H2  UNL     1     -36.953  26.140   6.063  0.00  0.00    -0.088 HD
ATOM     22  H3  UNL     1     -37.166  26.912   4.602  0.00  0.00    -0.088 HD
ENDBRANCH  18  19
BRANCH  18  24
ATOM     23  OXT UNL     1     -33.913  26.660   6.042  0.00  0.00    -0.253 OA
ATOM     24  C   UNL     1     -34.196  25.878   5.143  0.00  0.00    +0.293 C 
BRANCH  24  25
ATOM     25  O   UNL     1     -33.254  25.167   4.467  0.00  0.00    -0.482 OA
ATOM     26  H   UNL     1     -32.535  24.784   4.928  0.00  0.00    +0.295 HD
ENDBRANCH  24  25
ENDBRANCH  18  24
ENDBRANCH  17  18
ENDBRANCH   7  17
TORSDOF 7
ENDMDL
MODEL 3
REMARK VINA RESULT:      -5.5      2.422      6.379
REMARK  Name = 56972233
REMARK  7 active torsions:
REMARK  status: ('A' for Active; 'I' for Inactive)
REMARK    1  A    between atoms: C_7  and  C_17
REMARK    2  A    between atoms: C_8  and  N_14
REMARK    3  A    between atoms: C_9  and  O_15
REMARK    4  A    between atoms: C_17  and  CA_18
REMARK    5  A    between atoms: CA_18  and  N_19
REMARK    6  A    between atoms: CA_18  and  C_24
REMARK    7  A    between atoms: C_24  and  O_25
REMARK                            x       y       z     vdW  Elec       q    Type
REMARK                         _______ _______ _______ _____ _____    ______ ____
ROOT
ATOM      1  O   UNL     1     -35.518  21.216   3.518  0.00  0.00    -0.274 OA
ATOM      2  N   UNL     1     -35.026  23.271   2.616  0.00  0.00    -0.234 N 
ATOM      3  C   UNL     1     -34.770  24.055   1.393  0.00  0.00    +0.072 C 
ATOM      4  C   UNL     1     -34.714  25.530   1.786  0.00  0.00    +0.021 C 
ATOM      5  C   UNL     1     -34.680  25.443   3.276  0.00  0.00    +0.051 C 
ATOM      6  C   UNL     1     -34.890  24.134   3.727  0.00  0.00    +0.083 C 
ATOM      7  C   UNL     1     -35.296  21.917   2.522  0.00  0.00    +0.232 C 
ATOM      8  C   UNL     1     -34.917  23.875   5.090  0.00  0.00    +0.157 C 
ATOM      9  C   UNL     1     -34.508  26.504   4.156  0.00  0.00    +0.140 C 
ATOM     10  C   UNL     1     -34.739  24.938   5.986  0.00  0.00    +0.028 C 
ATOM     11  C   UNL     1     -34.536  26.243   5.523  0.00  0.00    +0.039 C 
ENDROOT
BRANCH   8  14
ATOM     12  O   UNL     1     -34.142  21.813   5.782  0.00  0.00    -0.126 OA
ATOM     13  O   UNL     1     -36.260  22.296   6.106  0.00  0.00    -0.126 OA
ATOM     14  N   UNL     1     -35.116  22.603   5.686  0.00  0.00    +0.059 N 
ENDBRANCH   8  14
BRANCH   9  15
ATOM     15  O   UNL     1     -34.315  27.769   3.701  0.00  0.00    -0.471 OA
ATOM     16  C   UNL     1     -32.978  28.273   3.717  0.00  0.00    +0.252 C 
ENDBRANCH   9  15
BRANCH   7  17
ATOM     17  C   UNL     1     -35.312  21.261   1.169  0.00  0.00    +0.075 C 
BRANCH  17  18
ATOM     18  CA  UNL     1     -36.677  20.627   0.930  0.00  0.00    +0.045 C 
BRANCH  18  19
ATOM     19  N   UNL     1     -36.808  19.441   1.776  0.00  0.00    +0.389 N 
ATOM     20  H1  UNL     1     -37.009  19.727   2.734  0.00  0.00    -0.088 HD
ATOM     21  H2  UNL     1     -35.937  18.911   1.755  0.00  0.00    -0.088 HD
ATOM     22  H3  UNL     1     -37.571  18.859   1.429  0.00  0.00    -0.088 HD
ENDBRANCH  18  19
BRANCH  18  24
ATOM     23  OXT UNL     1     -38.102  22.601   0.740  0.00  0.00    -0.253 OA
ATOM     24  C   UNL     1     -37.825  21.551   1.306  0.00  0.00    +0.293 C 
BRANCH  24  25
ATOM     25  O   UNL     1     -38.520  21.091   2.380  0.00  0.00    -0.482 OA
ATOM     26  H   UNL     1     -38.502  20.179   2.595  0.00  0.00    +0.295 HD
ENDBRANCH  24  25
ENDBRANCH  18  24
ENDBRANCH  17  18
ENDBRANCH   7  17
TORSDOF 7
ENDMDL
MODEL 4
REMARK VINA RESULT:      -5.4      4.065      8.543
REMARK  Name = 56972233
REMARK  7 active torsions:
REMARK  status: ('A' for Active; 'I' for Inactive)
REMARK    1  A    between atoms: C_7  and  C_17
REMARK    2  A    between atoms: C_8  and  N_14
REMARK    3  A    between atoms: C_9  and  O_15
REMARK    4  A    between atoms: C_17  and  CA_18
REMARK    5  A    between atoms: CA_18  and  N_19
REMARK    6  A    between atoms: CA_18  and  C_24
REMARK    7  A    between atoms: C_24  and  O_25
REMARK                            x       y       z     vdW  Elec       q    Type
REMARK                         _______ _______ _______ _____ _____    ______ ____
ROOT
ATOM      1  O   UNL     1     -33.139  26.552   5.661  0.00  0.00    -0.274 OA
ATOM      2  N   UNL     1     -33.592  27.785   3.776  0.00  0.00    -0.234 N 
ATOM      3  C   UNL     1     -34.290  27.848   2.478  0.00  0.00    +0.072 C 
ATOM      4  C   UNL     1     -34.155  29.272   1.942  0.00  0.00    +0.021 C 
ATOM      5  C   UNL     1     -33.142  29.850   2.875  0.00  0.00    +0.051 C 
ATOM      6  C   UNL     1     -32.857  28.982   3.938  0.00  0.00    +0.083 C 
ATOM      7  C   UNL     1     -33.705  26.654   4.565  0.00  0.00    +0.232 C 
ATOM      8  C   UNL     1     -31.954  29.371   4.916  0.00  0.00    +0.157 C 
ATOM      9  C   UNL     1     -32.554  31.103   2.774  0.00  0.00    +0.140 C 
ATOM     10  C   UNL     1     -31.352  30.633   4.820  0.00  0.00    +0.028 C 
ATOM     11  C   UNL     1     -31.649  31.494   3.757  0.00  0.00    +0.039 C 
ENDROOT
BRANCH   8  14
ATOM     12  O   UNL     1     -30.584  27.823   5.944  0.00  0.00    -0.126 OA
ATOM     13  O   UNL     1     -32.223  28.705   7.110  0.00  0.00    -0.126 OA
ATOM     14  N   UNL     1     -31.570  28.598   6.042  0.00  0.00    +0.059 N 
ENDBRANCH   8  14
BRANCH   9  15
ATOM     15  O   UNL     1     -32.849  31.936   1.742  0.00  0.00    -0.471 OA
ATOM     16  C   UNL     1     -33.705  33.045   2.021  0.00  0.00    +0.252 C 
ENDBRANCH   9  15
BRANCH   7  17
ATOM     17  C   UNL     1     -34.531  25.496   4.078  0.00  0.00    +0.075 C 
BRANCH  17  18
ATOM     18  CA  UNL     1     -35.654  25.224   5.070  0.00  0.00    +0.045 C 
BRANCH  18  19
ATOM     19  N   UNL     1     -36.309  26.487   5.411  0.00  0.00    +0.389 N 
ATOM     20  H1  UNL     1     -37.268  26.476   5.065  0.00  0.00    -0.088 HD
ATOM     21  H2  UNL     1     -35.801  27.259   4.981  0.00  0.00    -0.088 HD
ATOM     22  H3  UNL     1     -36.314  26.605   6.424  0.00  0.00    -0.088 HD
ENDBRANCH  18  19
BRANCH  18  24
ATOM     23  OXT UNL     1     -36.592  23.140   4.209  0.00  0.00    -0.253 OA
ATOM     24  C   UNL     1     -36.736  24.321   4.497  0.00  0.00    +0.293 C 
BRANCH  24  25
ATOM     25  O   UNL     1     -37.908  24.985   4.309  0.00  0.00    -0.482 OA
ATOM     26  H   UNL     1     -38.509  25.085   5.021  0.00  0.00    +0.295 HD
ENDBRANCH  24  25
ENDBRANCH  18  24
ENDBRANCH  17  18
ENDBRANCH   7  17
TORSDOF 7
ENDMDL
MODEL 5
REMARK VINA RESULT:      -5.4      3.717      6.856
REMARK  Name = 56972233
REMARK  7 active torsions:
REMARK  status: ('A' for Active; 'I' for Inactive)
REMARK    1  A    between atoms: C_7  and  C_17
REMARK    2  A    between atoms: C_8  and  N_14
REMARK    3  A    between atoms: C_9  and  O_15
REMARK    4  A    between atoms: C_17  and  CA_18
REMARK    5  A    between atoms: CA_18  and  N_19
REMARK    6  A    between atoms: CA_18  and  C_24
REMARK    7  A    between atoms: C_24  and  O_25
REMARK                            x       y       z     vdW  Elec       q    Type
REMARK                         _______ _______ _______ _____ _____    ______ ____
ROOT
ATOM      1  O   UNL     1     -33.468  25.199   4.404  0.00  0.00    -0.274 OA
ATOM      2  N   UNL     1     -35.021  26.089   2.965  0.00  0.00    -0.234 N 
ATOM      3  C   UNL     1     -36.141  25.830   2.040  0.00  0.00    +0.072 C 
ATOM      4  C   UNL     1     -36.739  27.177   1.639  0.00  0.00    +0.021 C 
ATOM      5  C   UNL     1     -35.720  28.129   2.174  0.00  0.00    +0.051 C 
ATOM      6  C   UNL     1     -34.758  27.478   2.957  0.00  0.00    +0.083 C 
ATOM      7  C   UNL     1     -34.410  25.034   3.619  0.00  0.00    +0.232 C 
ATOM      8  C   UNL     1     -33.749  28.217   3.556  0.00  0.00    +0.157 C 
ATOM      9  C   UNL     1     -35.704  29.504   1.985  0.00  0.00    +0.140 C 
ATOM     10  C   UNL     1     -33.721  29.605   3.367  0.00  0.00    +0.028 C 
ATOM     11  C   UNL     1     -34.692  30.245   2.588  0.00  0.00    +0.039 C 
ENDROOT
BRANCH   8  14
ATOM     12  O   UNL     1     -31.660  27.271   3.822  0.00  0.00    -0.126 OA
ATOM     13  O   UNL     1     -32.866  27.663   5.615  0.00  0.00    -0.126 OA
ATOM     14  N   UNL     1     -32.711  27.693   4.369  0.00  0.00    +0.059 N 
ENDBRANCH   8  14
BRANCH   9  15
ATOM     15  O   UNL     1     -36.651  30.121   1.230  0.00  0.00    -0.471 OA
ATOM     16  C   UNL     1     -36.864  31.515   1.460  0.00  0.00    +0.252 C 
ENDBRANCH   9  15
BRANCH   7  17
ATOM     17  C   UNL     1     -34.891  23.632   3.366  0.00  0.00    +0.075 C 
BRANCH  17  18
ATOM     18  CA  UNL     1     -35.886  23.236   4.449  0.00  0.00    +0.045 C 
BRANCH  18  19
ATOM     19  N   UNL     1     -37.117  22.763   3.817  0.00  0.00    +0.389 N 
ATOM     20  H1  UNL     1     -37.459  23.470   3.167  0.00  0.00    -0.088 HD
ATOM     21  H2  UNL     1     -37.823  22.590   4.533  0.00  0.00    -0.088 HD
ATOM     22  H3  UNL     1     -36.929  21.898   3.310  0.00  0.00    -0.088 HD
ENDBRANCH  18  19
BRANCH  18  24
ATOM     23  OXT UNL     1     -35.016  22.196   6.480  0.00  0.00    -0.253 OA
ATOM     24  C   UNL     1     -35.382  22.093   5.316  0.00  0.00    +0.293 C 
BRANCH  24  25
ATOM     25  O   UNL     1     -35.358  20.912   4.642  0.00  0.00    -0.482 OA
ATOM     26  H   UNL     1     -35.289  20.907   3.707  0.00  0.00    +0.295 HD
ENDBRANCH  24  25
ENDBRANCH  18  24
ENDBRANCH  17  18
ENDBRANCH   7  17
TORSDOF 7
ENDMDL
MODEL 6
REMARK VINA RESULT:      -5.3      2.017      3.179
REMARK  Name = 56972233
REMARK  7 active torsions:
REMARK  status: ('A' for Active; 'I' for Inactive)
REMARK    1  A    between atoms: C_7  and  C_17
REMARK    2  A    between atoms: C_8  and  N_14
REMARK    3  A    between atoms: C_9  and  O_15
REMARK    4  A    between atoms: C_17  and  CA_18
REMARK    5  A    between atoms: CA_18  and  N_19
REMARK    6  A    between atoms: CA_18  and  C_24
REMARK    7  A    between atoms: C_24  and  O_25
REMARK                            x       y       z     vdW  Elec       q    Type
REMARK                         _______ _______ _______ _____ _____    ______ ____
ROOT
ATOM      1  O   UNL     1     -34.885  23.275   3.809  0.00  0.00    -0.274 OA
ATOM      2  N   UNL     1     -37.074  23.844   3.406  0.00  0.00    -0.234 N 
ATOM      3  C   UNL     1     -38.179  24.782   3.684  0.00  0.00    +0.072 C 
ATOM      4  C   UNL     1     -39.326  24.449   2.732  0.00  0.00    +0.021 C 
ATOM      5  C   UNL     1     -38.870  23.148   2.156  0.00  0.00    +0.051 C 
ATOM      6  C   UNL     1     -37.559  22.839   2.539  0.00  0.00    +0.083 C 
ATOM      7  C   UNL     1     -35.843  24.033   4.009  0.00  0.00    +0.232 C 
ATOM      8  C   UNL     1     -36.966  21.676   2.072  0.00  0.00    +0.157 C 
ATOM      9  C   UNL     1     -39.599  22.328   1.305  0.00  0.00    +0.140 C 
ATOM     10  C   UNL     1     -37.695  20.838   1.216  0.00  0.00    +0.028 C 
ATOM     11  C   UNL     1     -39.002  21.161   0.835  0.00  0.00    +0.039 C 
ENDROOT
BRANCH   8  14
ATOM     12  O   UNL     1     -34.706  21.553   1.614  0.00  0.00    -0.126 OA
ATOM     13  O   UNL     1     -35.465  20.540   3.408  0.00  0.00    -0.126 OA
ATOM     14  N   UNL     1     -35.652  21.236   2.379  0.00  0.00    +0.059 N 
ENDBRANCH   8  14
BRANCH   9  15
ATOM     15  O   UNL     1     -40.866  22.648   0.936  0.00  0.00    -0.471 OA
ATOM     16  C   UNL     1     -41.076  23.018  -0.428  0.00  0.00    +0.252 C 
ENDBRANCH   9  15
BRANCH   7  17
ATOM     17  C   UNL     1     -35.653  25.189   4.951  0.00  0.00    +0.075 C 
BRANCH  17  18
ATOM     18  CA  UNL     1     -34.738  26.222   4.307  0.00  0.00    +0.045 C 
BRANCH  18  19
ATOM     19  N   UNL     1     -35.508  27.433   4.025  0.00  0.00    +0.389 N 
ATOM     20  H1  UNL     1     -35.359  27.713   3.055  0.00  0.00    -0.088 HD
ATOM     21  H2  UNL     1     -35.203  28.183   4.645  0.00  0.00    -0.088 HD
ATOM     22  H3  UNL     1     -36.500  27.249   4.176  0.00  0.00    -0.088 HD
ENDBRANCH  18  19
BRANCH  18  24
ATOM     23  OXT UNL     1     -33.632  26.641   6.443  0.00  0.00    -0.253 OA
ATOM     24  C   UNL     1     -33.596  26.642   5.219  0.00  0.00    +0.293 C 
BRANCH  24  25
ATOM     25  O   UNL     1     -32.506  27.054   4.517  0.00  0.00    -0.482 OA
ATOM     26  H   UNL     1     -31.650  26.770   4.773  0.00  0.00    +0.295 HD
ENDBRANCH  24  25
ENDBRANCH  18  24
ENDBRANCH  17  18
ENDBRANCH   7  17
TORSDOF 7
ENDMDL
MODEL 7
REMARK VINA RESULT:      -5.2      2.475      6.662
REMARK  Name = 56972233
REMARK  7 active torsions:
REMARK  status: ('A' for Active; 'I' for Inactive)
REMARK    1  A    between atoms: C_7  and  C_17
REMARK    2  A    between atoms: C_8  and  N_14
REMARK    3  A    between atoms: C_9  and  O_15
REMARK    4  A    between atoms: C_17  and  CA_18
REMARK    5  A    between atoms: CA_18  and  N_19
REMARK    6  A    between atoms: CA_18  and  C_24
REMARK    7  A    between atoms: C_24  and  O_25
REMARK                            x       y       z     vdW  Elec       q    Type
REMARK                         _______ _______ _______ _____ _____    ______ ____
ROOT
ATOM      1  O   UNL     1     -34.852  22.436   1.081  0.00  0.00    -0.274 OA
ATOM      2  N   UNL     1     -35.082  23.065   3.279  0.00  0.00    -0.234 N 
ATOM      3  C   UNL     1     -35.588  22.713   4.619  0.00  0.00    +0.072 C 
ATOM      4  C   UNL     1     -35.071  23.758   5.604  0.00  0.00    +0.021 C 
ATOM      5  C   UNL     1     -34.516  24.793   4.681  0.00  0.00    +0.051 C 
ATOM      6  C   UNL     1     -34.509  24.355   3.351  0.00  0.00    +0.083 C 
ATOM      7  C   UNL     1     -35.258  22.187   2.224  0.00  0.00    +0.232 C 
ATOM      8  C   UNL     1     -34.002  25.183   2.360  0.00  0.00    +0.157 C 
ATOM      9  C   UNL     1     -34.015  26.035   5.048  0.00  0.00    +0.140 C 
ATOM     10  C   UNL     1     -33.499  26.441   2.719  0.00  0.00    +0.028 C 
ATOM     11  C   UNL     1     -33.505  26.865   4.053  0.00  0.00    +0.039 C 
ENDROOT
BRANCH   8  14
ATOM     12  O   UNL     1     -34.928  25.121   0.246  0.00  0.00    -0.126 OA
ATOM     13  O   UNL     1     -32.886  24.358   0.515  0.00  0.00    -0.126 OA
ATOM     14  N   UNL     1     -33.935  24.873   0.977  0.00  0.00    +0.059 N 
ENDBRANCH   8  14
BRANCH   9  15
ATOM     15  O   UNL     1     -34.021  26.440   6.344  0.00  0.00    -0.471 OA
ATOM     16  C   UNL     1     -32.824  27.037   6.848  0.00  0.00    +0.252 C 
ENDBRANCH   9  15
BRANCH   7  17
ATOM     17  C   UNL     1     -35.976  20.887   2.458  0.00  0.00    +0.075 C 
BRANCH  17  18
ATOM     18  CA  UNL     1     -36.714  20.481   1.189  0.00  0.00    +0.045 C 
BRANCH  18  19
ATOM     19  N   UNL     1     -36.869  19.027   1.171  0.00  0.00    +0.389 N 
ATOM     20  H1  UNL     1     -36.536  18.660   0.279  0.00  0.00    -0.088 HD
ATOM     21  H2  UNL     1     -37.853  18.788   1.291  0.00  0.00    -0.088 HD
ATOM     22  H3  UNL     1     -36.325  18.617   1.931  0.00  0.00    -0.088 HD
ENDBRANCH  18  19
BRANCH  18  24
ATOM     23  OXT UNL     1     -38.635  21.539   0.114  0.00  0.00    -0.253 OA
ATOM     24  C   UNL     1     -38.118  21.063   1.117  0.00  0.00    +0.293 C 
BRANCH  24  25
ATOM     25  O   UNL     1     -38.751  21.019   2.319  0.00  0.00    -0.482 OA
ATOM     26  H   UNL     1     -39.663  21.230   2.376  0.00  0.00    +0.295 HD
ENDBRANCH  24  25
ENDBRANCH  18  24
ENDBRANCH  17  18
ENDBRANCH   7  17
TORSDOF 7
ENDMDL
MODEL 8
REMARK VINA RESULT:      -5.2      3.076      6.238
REMARK  Name = 56972233
REMARK  7 active torsions:
REMARK  status: ('A' for Active; 'I' for Inactive)
REMARK    1  A    between atoms: C_7  and  C_17
REMARK    2  A    between atoms: C_8  and  N_14
REMARK    3  A    between atoms: C_9  and  O_15
REMARK    4  A    between atoms: C_17  and  CA_18
REMARK    5  A    between atoms: CA_18  and  N_19
REMARK    6  A    between atoms: CA_18  and  C_24
REMARK    7  A    between atoms: C_24  and  O_25
REMARK                            x       y       z     vdW  Elec       q    Type
REMARK                         _______ _______ _______ _____ _____    ______ ____
ROOT
ATOM      1  O   UNL     1     -35.414  20.636   3.868  0.00  0.00    -0.274 OA
ATOM      2  N   UNL     1     -35.409  22.573   2.633  0.00  0.00    -0.234 N 
ATOM      3  C   UNL     1     -35.393  23.182   1.289  0.00  0.00    +0.072 C 
ATOM      4  C   UNL     1     -35.617  24.684   1.454  0.00  0.00    +0.021 C 
ATOM      5  C   UNL     1     -35.476  24.849   2.932  0.00  0.00    +0.051 C 
ATOM      6  C   UNL     1     -35.386  23.614   3.587  0.00  0.00    +0.083 C 
ATOM      7  C   UNL     1     -35.401  21.195   2.764  0.00  0.00    +0.232 C 
ATOM      8  C   UNL     1     -35.276  23.581   4.970  0.00  0.00    +0.157 C 
ATOM      9  C   UNL     1     -35.471  26.051   3.626  0.00  0.00    +0.140 C 
ATOM     10  C   UNL     1     -35.266  24.789   5.679  0.00  0.00    +0.028 C 
ATOM     11  C   UNL     1     -35.363  26.016   5.013  0.00  0.00    +0.039 C 
ENDROOT
BRANCH   8  14
ATOM     12  O   UNL     1     -34.070  21.810   5.830  0.00  0.00    -0.126 OA
ATOM     13  O   UNL     1     -36.188  21.996   6.379  0.00  0.00    -0.126 OA
ATOM     14  N   UNL     1     -35.174  22.408   5.763  0.00  0.00    +0.059 N 
ENDBRANCH   8  14
BRANCH   9  15
ATOM     15  O   UNL     1     -35.570  27.239   2.974  0.00  0.00    -0.471 OA
ATOM     16  C   UNL     1     -34.447  28.119   3.047  0.00  0.00    +0.252 C 
ENDBRANCH   9  15
BRANCH   7  17
ATOM     17  C   UNL     1     -35.364  20.338   1.530  0.00  0.00    +0.075 C 
BRANCH  17  18
ATOM     18  CA  UNL     1     -34.002  19.665   1.422  0.00  0.00    +0.045 C 
BRANCH  18  19
ATOM     19  N   UNL     1     -34.190  18.258   1.069  0.00  0.00    +0.389 N 
ATOM     20  H1  UNL     1     -33.480  17.693   1.535  0.00  0.00    -0.088 HD
ATOM     21  H2  UNL     1     -34.105  18.146   0.059  0.00  0.00    -0.088 HD
ATOM     22  H3  UNL     1     -35.116  17.953   1.369  0.00  0.00    -0.088 HD
ENDBRANCH  18  19
BRANCH  18  24
ATOM     23  OXT UNL     1     -31.915  20.367   0.365  0.00  0.00    -0.253 OA
ATOM     24  C   UNL     1     -33.135  20.269   0.328  0.00  0.00    +0.293 C 
BRANCH  24  25
ATOM     25  O   UNL     1     -33.876  20.723  -0.718  0.00  0.00    -0.482 OA
ATOM     26  H   UNL     1     -33.534  21.390  -1.280  0.00  0.00    +0.295 HD
ENDBRANCH  24  25
ENDBRANCH  18  24
ENDBRANCH  17  18
ENDBRANCH   7  17
TORSDOF 7
ENDMDL
MODEL 9
REMARK VINA RESULT:      -5.1      2.353      6.841
REMARK  Name = 56972233
REMARK  7 active torsions:
REMARK  status: ('A' for Active; 'I' for Inactive)
REMARK    1  A    between atoms: C_7  and  C_17
REMARK    2  A    between atoms: C_8  and  N_14
REMARK    3  A    between atoms: C_9  and  O_15
REMARK    4  A    between atoms: C_17  and  CA_18
REMARK    5  A    between atoms: CA_18  and  N_19
REMARK    6  A    between atoms: CA_18  and  C_24
REMARK    7  A    between atoms: C_24  and  O_25
REMARK                            x       y       z     vdW  Elec       q    Type
REMARK                         _______ _______ _______ _____ _____    ______ ____
ROOT
ATOM      1  O   UNL     1     -37.668  22.455   3.321  0.00  0.00    -0.274 OA
ATOM      2  N   UNL     1     -37.185  24.600   2.654  0.00  0.00    -0.234 N 
ATOM      3  C   UNL     1     -37.506  25.712   1.739  0.00  0.00    +0.072 C 
ATOM      4  C   UNL     1     -36.712  26.935   2.193  0.00  0.00    +0.021 C 
ATOM      5  C   UNL     1     -35.780  26.335   3.193  0.00  0.00    +0.051 C 
ATOM      6  C   UNL     1     -36.094  24.996   3.460  0.00  0.00    +0.083 C 
ATOM      7  C   UNL     1     -37.899  23.417   2.577  0.00  0.00    +0.232 C 
ATOM      8  C   UNL     1     -35.343  24.289   4.388  0.00  0.00    +0.157 C 
ATOM      9  C   UNL     1     -34.741  26.988   3.842  0.00  0.00    +0.140 C 
ATOM     10  C   UNL     1     -34.289  24.939   5.045  0.00  0.00    +0.028 C 
ATOM     11  C   UNL     1     -33.990  26.278   4.775  0.00  0.00    +0.039 C 
ENDROOT
BRANCH   8  14
ATOM     12  O   UNL     1     -35.121  22.025   3.995  0.00  0.00    -0.126 OA
ATOM     13  O   UNL     1     -36.141  22.671   5.829  0.00  0.00    -0.126 OA
ATOM     14  N   UNL     1     -35.545  22.933   4.754  0.00  0.00    +0.059 N 
ENDBRANCH   8  14
BRANCH   9  15
ATOM     15  O   UNL     1     -34.457  28.290   3.578  0.00  0.00    -0.471 OA
ATOM     16  C   UNL     1     -33.079  28.643   3.437  0.00  0.00    +0.252 C 
ENDBRANCH   9  15
BRANCH   7  17
ATOM     17  C   UNL     1     -38.987  23.279   1.549  0.00  0.00    +0.075 C 
BRANCH  17  18
ATOM     18  CA  UNL     1     -39.269  21.802   1.306  0.00  0.00    +0.045 C 
BRANCH  18  19
ATOM     19  N   UNL     1     -40.043  21.271   2.428  0.00  0.00    +0.389 N 
ATOM     20  H1  UNL     1     -40.481  20.392   2.154  0.00  0.00    -0.088 HD
ATOM     21  H2  UNL     1     -40.764  21.943   2.691  0.00  0.00    -0.088 HD
ATOM     22  H3  UNL     1     -39.424  21.108   3.222  0.00  0.00    -0.088 HD
ENDBRANCH  18  19
BRANCH  18  24
ATOM     23  OXT UNL     1     -39.973  22.156  -1.005  0.00  0.00    -0.253 OA
ATOM     24  C   UNL     1     -40.104  21.563   0.058  0.00  0.00    +0.293 C 
BRANCH  24  25
ATOM     25  O   UNL     1     -41.055  20.610   0.254  0.00  0.00    -0.482 OA
ATOM     26  H   UNL     1     -41.163  19.920  -0.371  0.00  0.00    +0.295 HD
ENDBRANCH  24  25
ENDBRANCH  18  24
ENDBRANCH  17  18
ENDBRANCH   7  17
TORSDOF 7
ENDMDL
