MODEL 1
REMARK VINA RESULT:      -5.1      0.000      0.000
REMARK  Name = 53462212
REMARK  17 active torsions:
REMARK  status: ('A' for Active; 'I' for Inactive)
REMARK    1  A    between atoms: C_3  and  O_7
REMARK    2  A    between atoms: C_3  and  C_18
REMARK    3  A    between atoms: C_4  and  C_10
REMARK    4  A    between atoms: C_5  and  C_15
REMARK    5  A    between atoms: C_10  and  O_11
REMARK    6  A    between atoms: O_11  and  O_12
REMARK    7  A    between atoms: C_15  and  O_16
REMARK    8  A    between atoms: C_18  and  C_19
REMARK    9  A    between atoms: C_19  and  C_20
REMARK   10  A    between atoms: C_20  and  C_21
REMARK   11  A    between atoms: C_21  and  C_22
REMARK   12  A    between atoms: C_22  and  C_23
REMARK   13  A    between atoms: C_23  and  C_24
REMARK   14  A    between atoms: C_24  and  C_25
REMARK   15  A    between atoms: C_25  and  C_26
REMARK   16  A    between atoms: C_26  and  C_27
REMARK   17  A    between atoms: C_27  and  C_28
REMARK                            x       y       z     vdW  Elec       q    Type
REMARK                         _______ _______ _______ _____ _____    ______ ____
ROOT
ATOM      1  O   UNL     1     -36.720  25.442   4.881  0.00  0.00    -0.438 OA
ATOM      2  O   UNL     1     -38.632  24.850   3.773  0.00  0.00    -0.247 OA
ATOM      3  C   UNL     1     -36.560  23.637   3.376  0.00  0.00    +0.191 C 
ATOM      4  C   UNL     1     -35.378  23.573   4.337  0.00  0.00    +0.188 C 
ATOM      5  C   UNL     1     -35.396  24.925   5.027  0.00  0.00    +0.280 C 
ATOM      6  C   UNL     1     -37.446  24.682   4.008  0.00  0.00    +0.342 C 
ENDROOT
BRANCH   3   7
ATOM      7  O   UNL     1     -37.264  22.419   3.266  0.00  0.00    -0.376 OA
ATOM      8  H   UNL     1     -37.298  22.148   2.335  0.00  0.00    +0.211 HD
ENDBRANCH   3   7
BRANCH   4  10
ATOM      9  O   UNL     1     -35.846  22.658   6.518  0.00  0.00    -0.247 OA
ATOM     10  C   UNL     1     -35.519  22.475   5.353  0.00  0.00    +0.358 C 
BRANCH  10  11
ATOM     11  O   UNL     1     -35.230  21.276   4.769  0.00  0.00    -0.299 OA
BRANCH  11  12
ATOM     12  O   UNL     1     -35.292  20.276   5.822  0.00  0.00    -0.198 OA
ATOM     13  H   UNL     1     -35.161  19.394   5.440  0.00  0.00    +0.268 HD
ENDBRANCH  11  12
ENDBRANCH  10  11
ENDBRANCH   4  10
BRANCH   5  15
ATOM     14  O   UNL     1     -34.689  27.092   4.229  0.00  0.00    -0.246 OA
ATOM     15  C   UNL     1     -34.446  25.909   4.419  0.00  0.00    +0.355 C 
BRANCH  15  16
ATOM     16  O   UNL     1     -33.273  25.311   4.101  0.00  0.00    -0.478 OA
ATOM     17  H   UNL     1     -32.542  25.374   4.684  0.00  0.00    +0.295 HD
ENDBRANCH  15  16
ENDBRANCH   5  15
BRANCH   3  18
ATOM     18  C   UNL     1     -36.161  24.098   1.976  0.00  0.00    +0.039 C 
BRANCH  18  19
ATOM     19  C   UNL     1     -34.838  23.500   1.490  0.00  0.00    +0.003 C 
BRANCH  19  20
ATOM     20  C   UNL     1     -34.812  23.242  -0.019  0.00  0.00    +0.000 C 
BRANCH  20  21
ATOM     21  C   UNL     1     -33.606  23.877  -0.721  0.00  0.00    +0.000 C 
BRANCH  21  22
ATOM     22  C   UNL     1     -32.297  23.120  -0.484  0.00  0.00    +0.000 C 
BRANCH  22  23
ATOM     23  C   UNL     1     -32.392  21.681  -0.998  0.00  0.00    +0.000 C 
BRANCH  23  24
ATOM     24  C   UNL     1     -31.484  20.704  -0.246  0.00  0.00    +0.000 C 
BRANCH  24  25
ATOM     25  C   UNL     1     -32.248  19.571   0.444  0.00  0.00    +0.000 C 
BRANCH  25  26
ATOM     26  C   UNL     1     -33.761  19.759   0.304  0.00  0.00    +0.000 C 
BRANCH  26  27
ATOM     27  C   UNL     1     -34.439  19.854   1.672  0.00  0.00    +0.000 C 
BRANCH  27  28
ATOM     28  C   UNL     1     -35.961  19.820   1.542  0.00  0.00    +0.000 C 
ATOM     29  C   UNL     1     -36.401  19.992   0.096  0.00  0.00    +0.000 C 
ENDBRANCH  27  28
ENDBRANCH  26  27
ENDBRANCH  25  26
ENDBRANCH  24  25
ENDBRANCH  23  24
ENDBRANCH  22  23
ENDBRANCH  21  22
ENDBRANCH  20  21
ENDBRANCH  19  20
ENDBRANCH  18  19
ENDBRANCH   3  18
TORSDOF 17
ENDMDL
MODEL 2
REMARK VINA RESULT:      -5.0      1.524      2.216
REMARK  Name = 53462212
REMARK  17 active torsions:
REMARK  status: ('A' for Active; 'I' for Inactive)
REMARK    1  A    between atoms: C_3  and  O_7
REMARK    2  A    between atoms: C_3  and  C_18
REMARK    3  A    between atoms: C_4  and  C_10
REMARK    4  A    between atoms: C_5  and  C_15
REMARK    5  A    between atoms: C_10  and  O_11
REMARK    6  A    between atoms: O_11  and  O_12
REMARK    7  A    between atoms: C_15  and  O_16
REMARK    8  A    between atoms: C_18  and  C_19
REMARK    9  A    between atoms: C_19  and  C_20
REMARK   10  A    between atoms: C_20  and  C_21
REMARK   11  A    between atoms: C_21  and  C_22
REMARK   12  A    between atoms: C_22  and  C_23
REMARK   13  A    between atoms: C_23  and  C_24
REMARK   14  A    between atoms: C_24  and  C_25
REMARK   15  A    between atoms: C_25  and  C_26
REMARK   16  A    between atoms: C_26  and  C_27
REMARK   17  A    between atoms: C_27  and  C_28
REMARK                            x       y       z     vdW  Elec       q    Type
REMARK                         _______ _______ _______ _____ _____    ______ ____
ROOT
ATOM      1  O   UNL     1     -36.470  25.290   5.125  0.00  0.00    -0.438 OA
ATOM      2  O   UNL     1     -38.396  24.871   3.963  0.00  0.00    -0.247 OA
ATOM      3  C   UNL     1     -36.405  23.531   3.560  0.00  0.00    +0.191 C 
ATOM      4  C   UNL     1     -35.251  23.352   4.540  0.00  0.00    +0.188 C 
ATOM      5  C   UNL     1     -35.189  24.677   5.277  0.00  0.00    +0.280 C 
ATOM      6  C   UNL     1     -37.229  24.612   4.213  0.00  0.00    +0.342 C 
ENDROOT
BRANCH   3   7
ATOM      7  O   UNL     1     -37.190  22.369   3.395  0.00  0.00    -0.376 OA
ATOM      8  H   UNL     1     -38.063  22.510   3.794  0.00  0.00    +0.211 HD
ENDBRANCH   3   7
BRANCH   4  10
ATOM      9  O   UNL     1     -36.262  22.299   6.459  0.00  0.00    -0.247 OA
ATOM     10  C   UNL     1     -35.488  22.232   5.514  0.00  0.00    +0.358 C 
BRANCH  10  11
ATOM     11  O   UNL     1     -34.716  21.160   5.170  0.00  0.00    -0.299 OA
BRANCH  11  12
ATOM     12  O   UNL     1     -35.391  20.502   4.063  0.00  0.00    -0.198 OA
ATOM     13  H   UNL     1     -35.836  19.703   4.385  0.00  0.00    +0.268 HD
ENDBRANCH  11  12
ENDBRANCH  10  11
ENDBRANCH   4  10
BRANCH   5  15
ATOM     14  O   UNL     1     -33.109  25.270   4.200  0.00  0.00    -0.246 OA
ATOM     15  C   UNL     1     -34.161  25.613   4.722  0.00  0.00    +0.355 C 
BRANCH  15  16
ATOM     16  O   UNL     1     -34.552  26.901   4.876  0.00  0.00    -0.478 OA
ATOM     17  H   UNL     1     -35.042  27.325   4.200  0.00  0.00    +0.295 HD
ENDBRANCH  15  16
ENDBRANCH   5  15
BRANCH   3  18
ATOM     18  C   UNL     1     -35.946  24.011   2.185  0.00  0.00    +0.039 C 
BRANCH  18  19
ATOM     19  C   UNL     1     -34.657  23.340   1.703  0.00  0.00    +0.003 C 
BRANCH  19  20
ATOM     20  C   UNL     1     -34.843  22.535   0.414  0.00  0.00    +0.000 C 
BRANCH  20  21
ATOM     21  C   UNL     1     -34.874  21.020   0.645  0.00  0.00    +0.000 C 
BRANCH  21  22
ATOM     22  C   UNL     1     -33.481  20.389   0.723  0.00  0.00    +0.000 C 
BRANCH  22  23
ATOM     23  C   UNL     1     -33.523  19.051   1.466  0.00  0.00    +0.000 C 
BRANCH  23  24
ATOM     24  C   UNL     1     -32.298  18.171   1.206  0.00  0.00    +0.000 C 
BRANCH  24  25
ATOM     25  C   UNL     1     -32.600  16.948   0.338  0.00  0.00    +0.000 C 
BRANCH  25  26
ATOM     26  C   UNL     1     -32.490  17.286  -1.151  0.00  0.00    +0.000 C 
BRANCH  26  27
ATOM     27  C   UNL     1     -33.650  16.684  -1.945  0.00  0.00    +0.000 C 
BRANCH  27  28
ATOM     28  C   UNL     1     -34.985  17.305  -1.537  0.00  0.00    +0.000 C 
ATOM     29  C   UNL     1     -35.190  18.664  -2.190  0.00  0.00    +0.000 C 
ENDBRANCH  27  28
ENDBRANCH  26  27
ENDBRANCH  25  26
ENDBRANCH  24  25
ENDBRANCH  23  24
ENDBRANCH  22  23
ENDBRANCH  21  22
ENDBRANCH  20  21
ENDBRANCH  19  20
ENDBRANCH  18  19
ENDBRANCH   3  18
TORSDOF 17
ENDMDL
MODEL 3
REMARK VINA RESULT:      -4.9      1.053      2.195
REMARK  Name = 53462212
REMARK  17 active torsions:
REMARK  status: ('A' for Active; 'I' for Inactive)
REMARK    1  A    between atoms: C_3  and  O_7
REMARK    2  A    between atoms: C_3  and  C_18
REMARK    3  A    between atoms: C_4  and  C_10
REMARK    4  A    between atoms: C_5  and  C_15
REMARK    5  A    between atoms: C_10  and  O_11
REMARK    6  A    between atoms: O_11  and  O_12
REMARK    7  A    between atoms: C_15  and  O_16
REMARK    8  A    between atoms: C_18  and  C_19
REMARK    9  A    between atoms: C_19  and  C_20
REMARK   10  A    between atoms: C_20  and  C_21
REMARK   11  A    between atoms: C_21  and  C_22
REMARK   12  A    between atoms: C_22  and  C_23
REMARK   13  A    between atoms: C_23  and  C_24
REMARK   14  A    between atoms: C_24  and  C_25
REMARK   15  A    between atoms: C_25  and  C_26
REMARK   16  A    between atoms: C_26  and  C_27
REMARK   17  A    between atoms: C_27  and  C_28
REMARK                            x       y       z     vdW  Elec       q    Type
REMARK                         _______ _______ _______ _____ _____    ______ ____
ROOT
ATOM      1  O   UNL     1     -36.800  25.413   4.904  0.00  0.00    -0.438 OA
ATOM      2  O   UNL     1     -38.674  24.757   3.767  0.00  0.00    -0.247 OA
ATOM      3  C   UNL     1     -36.557  23.612   3.405  0.00  0.00    +0.191 C 
ATOM      4  C   UNL     1     -35.390  23.589   4.386  0.00  0.00    +0.188 C 
ATOM      5  C   UNL     1     -35.462  24.940   5.073  0.00  0.00    +0.280 C 
ATOM      6  C   UNL     1     -37.487  24.628   4.021  0.00  0.00    +0.342 C 
ENDROOT
BRANCH   3   7
ATOM      7  O   UNL     1     -37.219  22.372   3.287  0.00  0.00    -0.376 OA
ATOM      8  H   UNL     1     -38.166  22.524   3.136  0.00  0.00    +0.211 HD
ENDBRANCH   3   7
BRANCH   4  10
ATOM      9  O   UNL     1     -35.829  22.666   6.569  0.00  0.00    -0.247 OA
ATOM     10  C   UNL     1     -35.511  22.487   5.401  0.00  0.00    +0.358 C 
BRANCH  10  11
ATOM     11  O   UNL     1     -35.215  21.293   4.812  0.00  0.00    -0.299 OA
BRANCH  11  12
ATOM     12  O   UNL     1     -35.308  20.283   5.855  0.00  0.00    -0.198 OA
ATOM     13  H   UNL     1     -35.656  20.686   6.665  0.00  0.00    +0.268 HD
ENDBRANCH  11  12
ENDBRANCH  10  11
ENDBRANCH   4  10
BRANCH   5  15
ATOM     14  O   UNL     1     -34.858  27.083   4.137  0.00  0.00    -0.246 OA
ATOM     15  C   UNL     1     -34.536  25.954   4.478  0.00  0.00    +0.355 C 
BRANCH  15  16
ATOM     16  O   UNL     1     -33.283  25.452   4.365  0.00  0.00    -0.478 OA
ATOM     17  H   UNL     1     -33.109  24.762   3.755  0.00  0.00    +0.295 HD
ENDBRANCH  15  16
ENDBRANCH   5  15
BRANCH   3  18
ATOM     18  C   UNL     1     -36.150  24.085   2.011  0.00  0.00    +0.039 C 
BRANCH  18  19
ATOM     19  C   UNL     1     -34.695  23.767   1.659  0.00  0.00    +0.003 C 
BRANCH  19  20
ATOM     20  C   UNL     1     -34.523  22.400   0.990  0.00  0.00    +0.000 C 
BRANCH  20  21
ATOM     21  C   UNL     1     -35.741  21.973   0.165  0.00  0.00    +0.000 C 
BRANCH  21  22
ATOM     22  C   UNL     1     -35.391  21.035  -0.994  0.00  0.00    +0.000 C 
BRANCH  22  23
ATOM     23  C   UNL     1     -36.247  19.766  -0.954  0.00  0.00    +0.000 C 
BRANCH  23  24
ATOM     24  C   UNL     1     -35.744  18.723   0.048  0.00  0.00    +0.000 C 
BRANCH  24  25
ATOM     25  C   UNL     1     -34.701  17.770  -0.539  0.00  0.00    +0.000 C 
BRANCH  25  26
ATOM     26  C   UNL     1     -33.574  17.500   0.460  0.00  0.00    +0.000 C 
BRANCH  26  27
ATOM     27  C   UNL     1     -33.113  18.790   1.140  0.00  0.00    +0.000 C 
BRANCH  27  28
ATOM     28  C   UNL     1     -31.718  19.201   0.667  0.00  0.00    +0.000 C 
ATOM     29  C   UNL     1     -31.780  20.376  -0.296  0.00  0.00    +0.000 C 
ENDBRANCH  27  28
ENDBRANCH  26  27
ENDBRANCH  25  26
ENDBRANCH  24  25
ENDBRANCH  23  24
ENDBRANCH  22  23
ENDBRANCH  21  22
ENDBRANCH  20  21
ENDBRANCH  19  20
ENDBRANCH  18  19
ENDBRANCH   3  18
TORSDOF 17
ENDMDL
MODEL 4
REMARK VINA RESULT:      -4.9      0.830      2.464
REMARK  Name = 53462212
REMARK  17 active torsions:
REMARK  status: ('A' for Active; 'I' for Inactive)
REMARK    1  A    between atoms: C_3  and  O_7
REMARK    2  A    between atoms: C_3  and  C_18
REMARK    3  A    between atoms: C_4  and  C_10
REMARK    4  A    between atoms: C_5  and  C_15
REMARK    5  A    between atoms: C_10  and  O_11
REMARK    6  A    between atoms: O_11  and  O_12
REMARK    7  A    between atoms: C_15  and  O_16
REMARK    8  A    between atoms: C_18  and  C_19
REMARK    9  A    between atoms: C_19  and  C_20
REMARK   10  A    between atoms: C_20  and  C_21
REMARK   11  A    between atoms: C_21  and  C_22
REMARK   12  A    between atoms: C_22  and  C_23
REMARK   13  A    between atoms: C_23  and  C_24
REMARK   14  A    between atoms: C_24  and  C_25
REMARK   15  A    between atoms: C_25  and  C_26
REMARK   16  A    between atoms: C_26  and  C_27
REMARK   17  A    between atoms: C_27  and  C_28
REMARK                            x       y       z     vdW  Elec       q    Type
REMARK                         _______ _______ _______ _____ _____    ______ ____
ROOT
ATOM      1  O   UNL     1     -36.646  25.363   4.912  0.00  0.00    -0.438 OA
ATOM      2  O   UNL     1     -38.510  24.554   3.860  0.00  0.00    -0.247 OA
ATOM      3  C   UNL     1     -36.360  23.453   3.565  0.00  0.00    +0.191 C 
ATOM      4  C   UNL     1     -35.182  23.549   4.527  0.00  0.00    +0.188 C 
ATOM      5  C   UNL     1     -35.292  24.950   5.101  0.00  0.00    +0.280 C 
ATOM      6  C   UNL     1     -37.316  24.486   4.107  0.00  0.00    +0.342 C 
ENDROOT
BRANCH   3   7
ATOM      7  O   UNL     1     -36.982  22.186   3.559  0.00  0.00    -0.376 OA
ATOM      8  H   UNL     1     -37.504  22.086   2.747  0.00  0.00    +0.211 HD
ENDBRANCH   3   7
BRANCH   4  10
ATOM      9  O   UNL     1     -35.675  22.773   6.756  0.00  0.00    -0.247 OA
ATOM     10  C   UNL     1     -35.254  22.533   5.633  0.00  0.00    +0.358 C 
BRANCH  10  11
ATOM     11  O   UNL     1     -34.785  21.335   5.179  0.00  0.00    -0.299 OA
BRANCH  11  12
ATOM     12  O   UNL     1     -35.559  20.305   5.854  0.00  0.00    -0.198 OA
ATOM     13  H   UNL     1     -36.160  20.718   6.493  0.00  0.00    +0.268 HD
ENDBRANCH  11  12
ENDBRANCH  10  11
ENDBRANCH   4  10
BRANCH   5  15
ATOM     14  O   UNL     1     -34.677  27.120   4.237  0.00  0.00    -0.246 OA
ATOM     15  C   UNL     1     -34.407  25.940   4.411  0.00  0.00    +0.355 C 
BRANCH  15  16
ATOM     16  O   UNL     1     -33.258  25.352   3.999  0.00  0.00    -0.478 OA
ATOM     17  H   UNL     1     -32.459  25.508   4.463  0.00  0.00    +0.295 HD
ENDBRANCH  15  16
ENDBRANCH   5  15
BRANCH   3  18
ATOM     18  C   UNL     1     -35.986  23.820   2.131  0.00  0.00    +0.039 C 
BRANCH  18  19
ATOM     19  C   UNL     1     -34.743  23.089   1.618  0.00  0.00    +0.003 C 
BRANCH  19  20
ATOM     20  C   UNL     1     -35.074  21.822   0.825  0.00  0.00    +0.000 C 
BRANCH  20  21
ATOM     21  C   UNL     1     -34.570  20.539   1.495  0.00  0.00    +0.000 C 
BRANCH  21  22
ATOM     22  C   UNL     1     -34.857  19.275   0.680  0.00  0.00    +0.000 C 
BRANCH  22  23
ATOM     23  C   UNL     1     -33.684  18.294   0.754  0.00  0.00    +0.000 C 
BRANCH  23  24
ATOM     24  C   UNL     1     -32.336  18.973   1.015  0.00  0.00    +0.000 C 
BRANCH  24  25
ATOM     25  C   UNL     1     -31.389  18.926  -0.186  0.00  0.00    +0.000 C 
BRANCH  25  26
ATOM     26  C   UNL     1     -30.704  20.277  -0.404  0.00  0.00    +0.000 C 
BRANCH  26  27
ATOM     27  C   UNL     1     -31.486  21.143  -1.393  0.00  0.00    +0.000 C 
BRANCH  27  28
ATOM     28  C   UNL     1     -31.852  22.495  -0.779  0.00  0.00    +0.000 C 
ATOM     29  C   UNL     1     -32.427  23.442  -1.820  0.00  0.00    +0.000 C 
ENDBRANCH  27  28
ENDBRANCH  26  27
ENDBRANCH  25  26
ENDBRANCH  24  25
ENDBRANCH  23  24
ENDBRANCH  22  23
ENDBRANCH  21  22
ENDBRANCH  20  21
ENDBRANCH  19  20
ENDBRANCH  18  19
ENDBRANCH   3  18
TORSDOF 17
ENDMDL
MODEL 5
REMARK VINA RESULT:      -4.8      2.851      6.086
REMARK  Name = 53462212
REMARK  17 active torsions:
REMARK  status: ('A' for Active; 'I' for Inactive)
REMARK    1  A    between atoms: C_3  and  O_7
REMARK    2  A    between atoms: C_3  and  C_18
REMARK    3  A    between atoms: C_4  and  C_10
REMARK    4  A    between atoms: C_5  and  C_15
REMARK    5  A    between atoms: C_10  and  O_11
REMARK    6  A    between atoms: O_11  and  O_12
REMARK    7  A    between atoms: C_15  and  O_16
REMARK    8  A    between atoms: C_18  and  C_19
REMARK    9  A    between atoms: C_19  and  C_20
REMARK   10  A    between atoms: C_20  and  C_21
REMARK   11  A    between atoms: C_21  and  C_22
REMARK   12  A    between atoms: C_22  and  C_23
REMARK   13  A    between atoms: C_23  and  C_24
REMARK   14  A    between atoms: C_24  and  C_25
REMARK   15  A    between atoms: C_25  and  C_26
REMARK   16  A    between atoms: C_26  and  C_27
REMARK   17  A    between atoms: C_27  and  C_28
REMARK                            x       y       z     vdW  Elec       q    Type
REMARK                         _______ _______ _______ _____ _____    ______ ____
ROOT
ATOM      1  O   UNL     1     -34.756  21.021   0.284  0.00  0.00    -0.438 OA
ATOM      2  O   UNL     1     -34.097  19.475   1.836  0.00  0.00    -0.247 OA
ATOM      3  C   UNL     1     -36.047  20.872   2.248  0.00  0.00    +0.191 C 
ATOM      4  C   UNL     1     -36.877  21.565   1.174  0.00  0.00    +0.188 C 
ATOM      5  C   UNL     1     -35.868  21.898   0.091  0.00  0.00    +0.280 C 
ATOM      6  C   UNL     1     -34.865  20.351   1.470  0.00  0.00    +0.342 C 
ENDROOT
BRANCH   3   7
ATOM      7  O   UNL     1     -36.716  19.797   2.873  0.00  0.00    -0.376 OA
ATOM      8  H   UNL     1     -36.924  19.118   2.212  0.00  0.00    +0.211 HD
ENDBRANCH   3   7
BRANCH   4  10
ATOM      9  O   UNL     1     -37.742  19.628   0.028  0.00  0.00    -0.247 OA
ATOM     10  C   UNL     1     -37.956  20.679   0.617  0.00  0.00    +0.358 C 
BRANCH  10  11
ATOM     11  O   UNL     1     -39.176  21.232   0.876  0.00  0.00    -0.299 OA
BRANCH  11  12
ATOM     12  O   UNL     1     -39.494  20.908   2.257  0.00  0.00    -0.198 OA
ATOM     13  H   UNL     1     -40.303  21.373   2.521  0.00  0.00    +0.268 HD
ENDBRANCH  11  12
ENDBRANCH  10  11
ENDBRANCH   4  10
BRANCH   5  15
ATOM     14  O   UNL     1     -34.243  23.630   0.532  0.00  0.00    -0.246 OA
ATOM     15  C   UNL     1     -35.364  23.305   0.167  0.00  0.00    +0.355 C 
BRANCH  15  16
ATOM     16  O   UNL     1     -36.322  24.180  -0.222  0.00  0.00    -0.478 OA
ATOM     17  H   UNL     1     -36.974  24.463   0.389  0.00  0.00    +0.295 HD
ENDBRANCH  15  16
ENDBRANCH   5  15
BRANCH   3  18
ATOM     18  C   UNL     1     -35.553  21.833   3.327  0.00  0.00    +0.039 C 
BRANCH  18  19
ATOM     19  C   UNL     1     -35.145  21.135   4.627  0.00  0.00    +0.003 C 
BRANCH  19  20
ATOM     20  C   UNL     1     -35.010  22.096   5.811  0.00  0.00    +0.000 C 
BRANCH  20  21
ATOM     21  C   UNL     1     -35.767  23.413   5.609  0.00  0.00    +0.000 C 
BRANCH  21  22
ATOM     22  C   UNL     1     -34.850  24.637   5.545  0.00  0.00    +0.000 C 
BRANCH  22  23
ATOM     23  C   UNL     1     -35.662  25.928   5.408  0.00  0.00    +0.000 C 
BRANCH  23  24
ATOM     24  C   UNL     1     -35.461  26.635   4.065  0.00  0.00    +0.000 C 
BRANCH  24  25
ATOM     25  C   UNL     1     -35.939  25.812   2.867  0.00  0.00    +0.000 C 
BRANCH  25  26
ATOM     26  C   UNL     1     -37.457  25.906   2.702  0.00  0.00    +0.000 C 
BRANCH  26  27
ATOM     27  C   UNL     1     -38.120  24.536   2.860  0.00  0.00    +0.000 C 
BRANCH  27  28
ATOM     28  C   UNL     1     -39.579  24.671   3.296  0.00  0.00    +0.000 C 
ATOM     29  C   UNL     1     -40.160  26.015   2.886  0.00  0.00    +0.000 C 
ENDBRANCH  27  28
ENDBRANCH  26  27
ENDBRANCH  25  26
ENDBRANCH  24  25
ENDBRANCH  23  24
ENDBRANCH  22  23
ENDBRANCH  21  22
ENDBRANCH  20  21
ENDBRANCH  19  20
ENDBRANCH  18  19
ENDBRANCH   3  18
TORSDOF 17
ENDMDL
MODEL 6
REMARK VINA RESULT:      -4.8      1.308      2.488
REMARK  Name = 53462212
REMARK  17 active torsions:
REMARK  status: ('A' for Active; 'I' for Inactive)
REMARK    1  A    between atoms: C_3  and  O_7
REMARK    2  A    between atoms: C_3  and  C_18
REMARK    3  A    between atoms: C_4  and  C_10
REMARK    4  A    between atoms: C_5  and  C_15
REMARK    5  A    between atoms: C_10  and  O_11
REMARK    6  A    between atoms: O_11  and  O_12
REMARK    7  A    between atoms: C_15  and  O_16
REMARK    8  A    between atoms: C_18  and  C_19
REMARK    9  A    between atoms: C_19  and  C_20
REMARK   10  A    between atoms: C_20  and  C_21
REMARK   11  A    between atoms: C_21  and  C_22
REMARK   12  A    between atoms: C_22  and  C_23
REMARK   13  A    between atoms: C_23  and  C_24
REMARK   14  A    between atoms: C_24  and  C_25
REMARK   15  A    between atoms: C_25  and  C_26
REMARK   16  A    between atoms: C_26  and  C_27
REMARK   17  A    between atoms: C_27  and  C_28
REMARK                            x       y       z     vdW  Elec       q    Type
REMARK                         _______ _______ _______ _____ _____    ______ ____
ROOT
ATOM      1  O   UNL     1     -36.795  24.842   4.991  0.00  0.00    -0.438 OA
ATOM      2  O   UNL     1     -38.660  24.750   3.669  0.00  0.00    -0.247 OA
ATOM      3  C   UNL     1     -36.549  23.832   2.878  0.00  0.00    +0.191 C 
ATOM      4  C   UNL     1     -35.395  23.383   3.767  0.00  0.00    +0.188 C 
ATOM      5  C   UNL     1     -35.464  24.323   4.957  0.00  0.00    +0.280 C 
ATOM      6  C   UNL     1     -37.477  24.509   3.855  0.00  0.00    +0.342 C 
ENDROOT
BRANCH   3   7
ATOM      7  O   UNL     1     -37.222  22.765   2.244  0.00  0.00    -0.376 OA
ATOM      8  H   UNL     1     -37.356  22.979   1.307  0.00  0.00    +0.211 HD
ENDBRANCH   3   7
BRANCH   4  10
ATOM      9  O   UNL     1     -35.446  20.989   3.487  0.00  0.00    -0.247 OA
ATOM     10  C   UNL     1     -35.541  21.959   4.226  0.00  0.00    +0.358 C 
BRANCH  10  11
ATOM     11  O   UNL     1     -35.787  21.938   5.568  0.00  0.00    -0.299 OA
BRANCH  11  12
ATOM     12  O   UNL     1     -35.449  20.601   6.030  0.00  0.00    -0.198 OA
ATOM     13  H   UNL     1     -36.256  20.139   6.304  0.00  0.00    +0.268 HD
ENDBRANCH  11  12
ENDBRANCH  10  11
ENDBRANCH   4  10
BRANCH   5  15
ATOM     14  O   UNL     1     -33.377  25.414   4.423  0.00  0.00    -0.246 OA
ATOM     15  C   UNL     1     -34.520  25.479   4.850  0.00  0.00    +0.355 C 
BRANCH  15  16
ATOM     16  O   UNL     1     -35.104  26.618   5.295  0.00  0.00    -0.478 OA
ATOM     17  H   UNL     1     -34.711  27.448   5.112  0.00  0.00    +0.295 HD
ENDBRANCH  15  16
ENDBRANCH   5  15
BRANCH   3  18
ATOM     18  C   UNL     1     -36.119  24.840   1.814  0.00  0.00    +0.039 C 
BRANCH  18  19
ATOM     19  C   UNL     1     -34.758  24.524   1.188  0.00  0.00    +0.003 C 
BRANCH  19  20
ATOM     20  C   UNL     1     -34.858  24.045  -0.262  0.00  0.00    +0.000 C 
BRANCH  20  21
ATOM     21  C   UNL     1     -34.801  22.520  -0.401  0.00  0.00    +0.000 C 
BRANCH  21  22
ATOM     22  C   UNL     1     -33.802  21.860   0.553  0.00  0.00    +0.000 C 
BRANCH  22  23
ATOM     23  C   UNL     1     -32.690  21.146  -0.221  0.00  0.00    +0.000 C 
BRANCH  23  24
ATOM     24  C   UNL     1     -32.934  19.643  -0.389  0.00  0.00    +0.000 C 
BRANCH  24  25
ATOM     25  C   UNL     1     -33.462  18.967   0.878  0.00  0.00    +0.000 C 
BRANCH  25  26
ATOM     26  C   UNL     1     -32.399  18.066   1.509  0.00  0.00    +0.000 C 
BRANCH  26  27
ATOM     27  C   UNL     1     -31.426  17.533   0.456  0.00  0.00    +0.000 C 
BRANCH  27  28
ATOM     28  C   UNL     1     -29.973  17.751   0.880  0.00  0.00    +0.000 C 
ATOM     29  C   UNL     1     -29.293  18.803   0.019  0.00  0.00    +0.000 C 
ENDBRANCH  27  28
ENDBRANCH  26  27
ENDBRANCH  25  26
ENDBRANCH  24  25
ENDBRANCH  23  24
ENDBRANCH  22  23
ENDBRANCH  21  22
ENDBRANCH  20  21
ENDBRANCH  19  20
ENDBRANCH  18  19
ENDBRANCH   3  18
TORSDOF 17
ENDMDL
MODEL 7
REMARK VINA RESULT:      -4.7      3.467      7.085
REMARK  Name = 53462212
REMARK  17 active torsions:
REMARK  status: ('A' for Active; 'I' for Inactive)
REMARK    1  A    between atoms: C_3  and  O_7
REMARK    2  A    between atoms: C_3  and  C_18
REMARK    3  A    between atoms: C_4  and  C_10
REMARK    4  A    between atoms: C_5  and  C_15
REMARK    5  A    between atoms: C_10  and  O_11
REMARK    6  A    between atoms: O_11  and  O_12
REMARK    7  A    between atoms: C_15  and  O_16
REMARK    8  A    between atoms: C_18  and  C_19
REMARK    9  A    between atoms: C_19  and  C_20
REMARK   10  A    between atoms: C_20  and  C_21
REMARK   11  A    between atoms: C_21  and  C_22
REMARK   12  A    between atoms: C_22  and  C_23
REMARK   13  A    between atoms: C_23  and  C_24
REMARK   14  A    between atoms: C_24  and  C_25
REMARK   15  A    between atoms: C_25  and  C_26
REMARK   16  A    between atoms: C_26  and  C_27
REMARK   17  A    between atoms: C_27  and  C_28
REMARK                            x       y       z     vdW  Elec       q    Type
REMARK                         _______ _______ _______ _____ _____    ______ ____
ROOT
ATOM      1  O   UNL     1     -35.798  24.868   2.198  0.00  0.00    -0.438 OA
ATOM      2  O   UNL     1     -33.570  25.386   2.251  0.00  0.00    -0.247 OA
ATOM      3  C   UNL     1     -34.762  24.884   4.313  0.00  0.00    +0.191 C 
ATOM      4  C   UNL     1     -36.051  24.077   4.411  0.00  0.00    +0.188 C 
ATOM      5  C   UNL     1     -36.783  24.401   3.121  0.00  0.00    +0.280 C 
ATOM      6  C   UNL     1     -34.602  25.075   2.825  0.00  0.00    +0.342 C 
ENDROOT
BRANCH   3   7
ATOM      7  O   UNL     1     -33.634  24.211   4.830  0.00  0.00    -0.376 OA
ATOM      8  H   UNL     1     -33.200  23.714   4.118  0.00  0.00    +0.211 HD
ENDBRANCH   3   7
BRANCH   4  10
ATOM      9  O   UNL     1     -35.602  21.876   3.536  0.00  0.00    -0.247 OA
ATOM     10  C   UNL     1     -35.801  22.598   4.504  0.00  0.00    +0.358 C 
BRANCH  10  11
ATOM     11  O   UNL     1     -35.832  22.214   5.812  0.00  0.00    -0.299 OA
BRANCH  11  12
ATOM     12  O   UNL     1     -35.329  20.850   5.856  0.00  0.00    -0.198 OA
ATOM     13  H   UNL     1     -35.466  20.483   6.742  0.00  0.00    +0.268 HD
ENDBRANCH  11  12
ENDBRANCH  10  11
ENDBRANCH   4  10
BRANCH   5  15
ATOM     14  O   UNL     1     -37.782  26.563   2.723  0.00  0.00    -0.246 OA
ATOM     15  C   UNL     1     -37.812  25.476   3.281  0.00  0.00    +0.355 C 
BRANCH  15  16
ATOM     16  O   UNL     1     -38.787  25.084   4.136  0.00  0.00    -0.478 OA
ATOM     17  H   UNL     1     -39.596  24.749   3.802  0.00  0.00    +0.295 HD
ENDBRANCH  15  16
ENDBRANCH   5  15
BRANCH   3  18
ATOM     18  C   UNL     1     -34.866  26.251   4.985  0.00  0.00    +0.039 C 
BRANCH  18  19
ATOM     19  C   UNL     1     -33.707  26.552   5.939  0.00  0.00    +0.003 C 
BRANCH  19  20
ATOM     20  C   UNL     1     -32.734  27.601   5.394  0.00  0.00    +0.000 C 
BRANCH  20  21
ATOM     21  C   UNL     1     -31.995  28.370   6.495  0.00  0.00    +0.000 C 
BRANCH  21  22
ATOM     22  C   UNL     1     -31.642  29.807   6.099  0.00  0.00    +0.000 C 
BRANCH  22  23
ATOM     23  C   UNL     1     -31.613  29.968   4.577  0.00  0.00    +0.000 C 
BRANCH  23  24
ATOM     24  C   UNL     1     -31.694  31.426   4.117  0.00  0.00    +0.000 C 
BRANCH  24  25
ATOM     25  C   UNL     1     -32.847  31.696   3.149  0.00  0.00    +0.000 C 
BRANCH  25  26
ATOM     26  C   UNL     1     -33.710  30.447   2.955  0.00  0.00    +0.000 C 
BRANCH  26  27
ATOM     27  C   UNL     1     -35.185  30.739   3.240  0.00  0.00    +0.000 C 
BRANCH  27  28
ATOM     28  C   UNL     1     -36.019  30.689   1.960  0.00  0.00    +0.000 C 
ATOM     29  C   UNL     1     -36.653  32.037   1.655  0.00  0.00    +0.000 C 
ENDBRANCH  27  28
ENDBRANCH  26  27
ENDBRANCH  25  26
ENDBRANCH  24  25
ENDBRANCH  23  24
ENDBRANCH  22  23
ENDBRANCH  21  22
ENDBRANCH  20  21
ENDBRANCH  19  20
ENDBRANCH  18  19
ENDBRANCH   3  18
TORSDOF 17
ENDMDL
MODEL 8
REMARK VINA RESULT:      -4.7      2.712      5.078
REMARK  Name = 53462212
REMARK  17 active torsions:
REMARK  status: ('A' for Active; 'I' for Inactive)
REMARK    1  A    between atoms: C_3  and  O_7
REMARK    2  A    between atoms: C_3  and  C_18
REMARK    3  A    between atoms: C_4  and  C_10
REMARK    4  A    between atoms: C_5  and  C_15
REMARK    5  A    between atoms: C_10  and  O_11
REMARK    6  A    between atoms: O_11  and  O_12
REMARK    7  A    between atoms: C_15  and  O_16
REMARK    8  A    between atoms: C_18  and  C_19
REMARK    9  A    between atoms: C_19  and  C_20
REMARK   10  A    between atoms: C_20  and  C_21
REMARK   11  A    between atoms: C_21  and  C_22
REMARK   12  A    between atoms: C_22  and  C_23
REMARK   13  A    between atoms: C_23  and  C_24
REMARK   14  A    between atoms: C_24  and  C_25
REMARK   15  A    between atoms: C_25  and  C_26
REMARK   16  A    between atoms: C_26  and  C_27
REMARK   17  A    between atoms: C_27  and  C_28
REMARK                            x       y       z     vdW  Elec       q    Type
REMARK                         _______ _______ _______ _____ _____    ______ ____
ROOT
ATOM      1  O   UNL     1     -34.326  26.422   1.462  0.00  0.00    -0.438 OA
ATOM      2  O   UNL     1     -36.346  25.804   2.342  0.00  0.00    -0.247 OA
ATOM      3  C   UNL     1     -34.508  26.429   3.811  0.00  0.00    +0.191 C 
ATOM      4  C   UNL     1     -33.320  27.296   3.414  0.00  0.00    +0.188 C 
ATOM      5  C   UNL     1     -33.097  26.964   1.950  0.00  0.00    +0.280 C 
ATOM      6  C   UNL     1     -35.194  26.181   2.490  0.00  0.00    +0.342 C 
ENDROOT
BRANCH   3   7
ATOM      7  O   UNL     1     -35.402  27.067   4.698  0.00  0.00    -0.376 OA
ATOM      8  H   UNL     1     -35.979  27.666   4.199  0.00  0.00    +0.211 HD
ENDBRANCH   3   7
BRANCH   4  10
ATOM      9  O   UNL     1     -34.501  29.355   2.994  0.00  0.00    -0.247 OA
ATOM     10  C   UNL     1     -33.599  28.765   3.572  0.00  0.00    +0.358 C 
BRANCH  10  11
ATOM     11  O   UNL     1     -32.700  29.306   4.445  0.00  0.00    -0.299 OA
BRANCH  11  12
ATOM     12  O   UNL     1     -32.629  28.400   5.580  0.00  0.00    -0.198 OA
ATOM     13  H   UNL     1     -31.703  28.169   5.751  0.00  0.00    +0.268 HD
ENDBRANCH  11  12
ENDBRANCH  10  11
ENDBRANCH   4  10
BRANCH   5  15
ATOM     14  O   UNL     1     -32.014  25.117   0.832  0.00  0.00    -0.246 OA
ATOM     15  C   UNL     1     -32.024  25.942   1.734  0.00  0.00    +0.355 C 
BRANCH  15  16
ATOM     16  O   UNL     1     -31.060  26.052   2.679  0.00  0.00    -0.478 OA
ATOM     17  H   UNL     1     -30.922  26.870   3.114  0.00  0.00    +0.295 HD
ENDBRANCH  15  16
ENDBRANCH   5  15
BRANCH   3  18
ATOM     18  C   UNL     1     -34.090  25.091   4.417  0.00  0.00    +0.039 C 
BRANCH  18  19
ATOM     19  C   UNL     1     -34.835  24.746   5.709  0.00  0.00    +0.003 C 
BRANCH  19  20
ATOM     20  C   UNL     1     -35.751  23.527   5.568  0.00  0.00    +0.000 C 
BRANCH  20  21
ATOM     21  C   UNL     1     -35.120  22.233   6.094  0.00  0.00    +0.000 C 
BRANCH  21  22
ATOM     22  C   UNL     1     -35.069  21.115   5.050  0.00  0.00    +0.000 C 
BRANCH  22  23
ATOM     23  C   UNL     1     -35.471  21.634   3.667  0.00  0.00    +0.000 C 
BRANCH  23  24
ATOM     24  C   UNL     1     -35.418  20.562   2.574  0.00  0.00    +0.000 C 
BRANCH  24  25
ATOM     25  C   UNL     1     -35.357  21.139   1.159  0.00  0.00    +0.000 C 
BRANCH  25  26
ATOM     26  C   UNL     1     -33.909  21.357   0.713  0.00  0.00    +0.000 C 
BRANCH  26  27
ATOM     27  C   UNL     1     -33.387  20.161  -0.086  0.00  0.00    +0.000 C 
BRANCH  27  28
ATOM     28  C   UNL     1     -32.222  19.479   0.631  0.00  0.00    +0.000 C 
ATOM     29  C   UNL     1     -32.683  18.253   1.403  0.00  0.00    +0.000 C 
ENDBRANCH  27  28
ENDBRANCH  26  27
ENDBRANCH  25  26
ENDBRANCH  24  25
ENDBRANCH  23  24
ENDBRANCH  22  23
ENDBRANCH  21  22
ENDBRANCH  20  21
ENDBRANCH  19  20
ENDBRANCH  18  19
ENDBRANCH   3  18
TORSDOF 17
ENDMDL
MODEL 9
REMARK VINA RESULT:      -4.7      1.585      4.274
REMARK  Name = 53462212
REMARK  17 active torsions:
REMARK  status: ('A' for Active; 'I' for Inactive)
REMARK    1  A    between atoms: C_3  and  O_7
REMARK    2  A    between atoms: C_3  and  C_18
REMARK    3  A    between atoms: C_4  and  C_10
REMARK    4  A    between atoms: C_5  and  C_15
REMARK    5  A    between atoms: C_10  and  O_11
REMARK    6  A    between atoms: O_11  and  O_12
REMARK    7  A    between atoms: C_15  and  O_16
REMARK    8  A    between atoms: C_18  and  C_19
REMARK    9  A    between atoms: C_19  and  C_20
REMARK   10  A    between atoms: C_20  and  C_21
REMARK   11  A    between atoms: C_21  and  C_22
REMARK   12  A    between atoms: C_22  and  C_23
REMARK   13  A    between atoms: C_23  and  C_24
REMARK   14  A    between atoms: C_24  and  C_25
REMARK   15  A    between atoms: C_25  and  C_26
REMARK   16  A    between atoms: C_26  and  C_27
REMARK   17  A    between atoms: C_27  and  C_28
REMARK                            x       y       z     vdW  Elec       q    Type
REMARK                         _______ _______ _______ _____ _____    ______ ____
ROOT
ATOM      1  O   UNL     1     -34.789  22.909   3.152  0.00  0.00    -0.438 OA
ATOM      2  O   UNL     1     -35.677  23.629   1.170  0.00  0.00    -0.247 OA
ATOM      3  C   UNL     1     -36.393  24.630   3.270  0.00  0.00    +0.191 C 
ATOM      4  C   UNL     1     -35.593  24.623   4.567  0.00  0.00    +0.188 C 
ATOM      5  C   UNL     1     -34.837  23.308   4.524  0.00  0.00    +0.280 C 
ATOM      6  C   UNL     1     -35.602  23.697   2.387  0.00  0.00    +0.342 C 
ENDROOT
BRANCH   3   7
ATOM      7  O   UNL     1     -36.476  25.902   2.664  0.00  0.00    -0.376 OA
ATOM      8  H   UNL     1     -35.654  26.392   2.828  0.00  0.00    +0.211 HD
ENDBRANCH   3   7
BRANCH   4  10
ATOM      9  O   UNL     1     -33.413  25.653   4.535  0.00  0.00    -0.247 OA
ATOM     10  C   UNL     1     -34.625  25.770   4.654  0.00  0.00    +0.358 C 
BRANCH  10  11
ATOM     11  O   UNL     1     -35.312  26.927   4.880  0.00  0.00    -0.299 OA
BRANCH  11  12
ATOM     12  O   UNL     1     -36.491  26.565   5.649  0.00  0.00    -0.198 OA
ATOM     13  H   UNL     1     -37.042  25.957   5.131  0.00  0.00    +0.268 HD
ENDBRANCH  11  12
ENDBRANCH  10  11
ENDBRANCH   4  10
BRANCH   5  15
ATOM     14  O   UNL     1     -36.177  22.383   6.308  0.00  0.00    -0.246 OA
ATOM     15  C   UNL     1     -35.509  22.217   5.298  0.00  0.00    +0.355 C 
BRANCH  15  16
ATOM     16  O   UNL     1     -35.273  21.010   4.729  0.00  0.00    -0.478 OA
ATOM     17  H   UNL     1     -34.824  20.958   3.909  0.00  0.00    +0.295 HD
ENDBRANCH  15  16
ENDBRANCH   5  15
BRANCH   3  18
ATOM     18  C   UNL     1     -37.807  24.078   3.443  0.00  0.00    +0.039 C 
BRANCH  18  19
ATOM     19  C   UNL     1     -38.789  24.570   2.377  0.00  0.00    +0.003 C 
BRANCH  19  20
ATOM     20  C   UNL     1     -39.227  23.469   1.408  0.00  0.00    +0.000 C 
BRANCH  20  21
ATOM     21  C   UNL     1     -39.052  22.057   1.977  0.00  0.00    +0.000 C 
BRANCH  21  22
ATOM     22  C   UNL     1     -38.271  21.121   1.050  0.00  0.00    +0.000 C 
BRANCH  22  23
ATOM     23  C   UNL     1     -37.079  20.493   1.777  0.00  0.00    +0.000 C 
BRANCH  23  24
ATOM     24  C   UNL     1     -35.912  20.147   0.848  0.00  0.00    +0.000 C 
BRANCH  24  25
ATOM     25  C   UNL     1     -34.616  19.825   1.594  0.00  0.00    +0.000 C 
BRANCH  25  26
ATOM     26  C   UNL     1     -33.662  19.007   0.720  0.00  0.00    +0.000 C 
BRANCH  26  27
ATOM     27  C   UNL     1     -32.600  19.898   0.073  0.00  0.00    +0.000 C 
BRANCH  27  28
ATOM     28  C   UNL     1     -31.194  19.343   0.304  0.00  0.00    +0.000 C 
ATOM     29  C   UNL     1     -31.237  17.962   0.938  0.00  0.00    +0.000 C 
ENDBRANCH  27  28
ENDBRANCH  26  27
ENDBRANCH  25  26
ENDBRANCH  24  25
ENDBRANCH  23  24
ENDBRANCH  22  23
ENDBRANCH  21  22
ENDBRANCH  20  21
ENDBRANCH  19  20
ENDBRANCH  18  19
ENDBRANCH   3  18
TORSDOF 17
ENDMDL
