MODEL 1
REMARK VINA RESULT:      -7.1      0.000      0.000
REMARK  Name = 58298318
REMARK  3 active torsions:
REMARK  status: ('A' for Active; 'I' for Inactive)
REMARK    1  A    between atoms: N_2  and  C_26
REMARK    2  A    between atoms: C_10  and  C_14
REMARK    3  A    between atoms: C_17  and  C_23
REMARK                            x       y       z     vdW  Elec       q    Type
REMARK                         _______ _______ _______ _____ _____    ______ ____
ROOT
ATOM      1  O   UNL     1     -40.827  23.109   1.014  0.00  0.00    -0.273 OA
ATOM      2  N   UNL     1     -38.866  23.769   2.071  0.00  0.00    -0.230 N 
ATOM      3  N   UNL     1     -38.113  21.097   2.105  0.00  0.00    -0.308 N 
ATOM      4  N   UNL     1     -36.790  24.336   3.149  0.00  0.00    -0.386 NA
ATOM      5  N   UNL     1     -36.061  21.652   3.134  0.00  0.00    -0.245 NA
ATOM      6  C   UNL     1     -37.622  23.387   2.653  0.00  0.00    +0.220 C 
ATOM      7  C   UNL     1     -37.264  22.044   2.647  0.00  0.00    +0.170 C 
ATOM      8  C   UNL     1     -39.518  21.391   1.998  0.00  0.00    +0.175 C 
ATOM      9  C   UNL     1     -39.788  22.828   1.615  0.00  0.00    +0.251 C 
ATOM     10  C   UNL     1     -35.608  23.925   3.641  0.00  0.00    +0.137 C 
ATOM     11  C   UNL     1     -35.249  22.602   3.633  0.00  0.00    +0.186 C 
ATOM     12  H   UNL     1     -37.760  20.233   1.795  0.00  0.00    +0.149 HD
ENDROOT
BRANCH  10  14
ATOM     13  N   UNL     1     -32.998  26.587   3.839  0.00  0.00    -0.407 NA
ATOM     14  C   UNL     1     -34.750  24.953   4.169  0.00  0.00    +0.049 C 
ATOM     15  C   UNL     1     -33.822  25.616   3.383  0.00  0.00    +0.111 C 
ATOM     16  C   UNL     1     -34.837  25.308   5.511  0.00  0.00    -0.014 C 
ATOM     17  C   UNL     1     -33.112  26.904   5.149  0.00  0.00    +0.146 C 
ATOM     18  C   UNL     1     -34.007  26.301   6.018  0.00  0.00    +0.088 C 
ATOM     19  C   UNL     1     -33.674  25.286   1.932  0.00  0.00    +0.066 C 
BRANCH  17  23
ATOM     20  N   UNL     1     -32.521  29.264   5.520  0.00  0.00    -0.217 N 
ATOM     21  N   UNL     1     -31.025  27.789   6.122  0.00  0.00    -0.204 NA
ATOM     22  N   UNL     1     -31.522  30.018   6.001  0.00  0.00    -0.157 NA
ATOM     23  C   UNL     1     -32.218  27.940   5.595  0.00  0.00    +0.175 C 
ATOM     24  C   UNL     1     -30.642  29.079   6.352  0.00  0.00    +0.218 C 
ATOM     25  H   UNL     1     -33.364  29.621   5.159  0.00  0.00    +0.176 HD
ENDBRANCH  17  23
ENDBRANCH  10  14
BRANCH   2  26
ATOM     26  C   UNL     1     -39.129  25.196   1.925  0.00  0.00    +0.101 C 
ATOM     27  C   UNL     1     -40.081  25.697   2.992  0.00  0.00    +0.024 C 
ENDBRANCH   2  26
TORSDOF 3
ENDMDL
MODEL 2
REMARK VINA RESULT:      -6.9      2.660      3.943
REMARK  Name = 58298318
REMARK  3 active torsions:
REMARK  status: ('A' for Active; 'I' for Inactive)
REMARK    1  A    between atoms: N_2  and  C_26
REMARK    2  A    between atoms: C_10  and  C_14
REMARK    3  A    between atoms: C_17  and  C_23
REMARK                            x       y       z     vdW  Elec       q    Type
REMARK                         _______ _______ _______ _____ _____    ______ ____
ROOT
ATOM      1  O   UNL     1     -35.236  17.807  -0.107  0.00  0.00    -0.273 OA
ATOM      2  N   UNL     1     -35.181  19.851   0.997  0.00  0.00    -0.230 N 
ATOM      3  N   UNL     1     -37.954  19.875   0.861  0.00  0.00    -0.308 N 
ATOM      4  N   UNL     1     -35.251  21.962   2.152  0.00  0.00    -0.386 NA
ATOM      5  N   UNL     1     -38.029  21.929   2.022  0.00  0.00    -0.245 NA
ATOM      6  C   UNL     1     -35.911  20.950   1.535  0.00  0.00    +0.220 C 
ATOM      7  C   UNL     1     -37.299  20.933   1.464  0.00  0.00    +0.170 C 
ATOM      8  C   UNL     1     -37.248  19.065  -0.098  0.00  0.00    +0.175 C 
ATOM      9  C   UNL     1     -35.806  18.826   0.288  0.00  0.00    +0.251 C 
ATOM     10  C   UNL     1     -35.992  22.948   2.686  0.00  0.00    +0.137 C 
ATOM     11  C   UNL     1     -37.361  22.931   2.623  0.00  0.00    +0.186 C 
ATOM     12  H   UNL     1     -38.892  19.678   1.084  0.00  0.00    +0.149 HD
ENDROOT
BRANCH  10  14
ATOM     13  N   UNL     1     -34.306  24.983   5.324  0.00  0.00    -0.407 NA
ATOM     14  C   UNL     1     -35.263  24.012   3.327  0.00  0.00    +0.049 C 
ATOM     15  C   UNL     1     -34.987  24.004   4.684  0.00  0.00    +0.111 C 
ATOM     16  C   UNL     1     -34.812  25.093   2.577  0.00  0.00    -0.014 C 
ATOM     17  C   UNL     1     -33.885  26.017   4.562  0.00  0.00    +0.146 C 
ATOM     18  C   UNL     1     -34.109  26.118   3.199  0.00  0.00    +0.088 C 
ATOM     19  C   UNL     1     -35.441  22.874   5.551  0.00  0.00    +0.066 C 
BRANCH  17  23
ATOM     20  N   UNL     1     -32.921  28.272   4.767  0.00  0.00    -0.217 N 
ATOM     21  N   UNL     1     -32.652  26.949   6.485  0.00  0.00    -0.204 NA
ATOM     22  N   UNL     1     -32.234  29.031   5.635  0.00  0.00    -0.157 NA
ATOM     23  C   UNL     1     -33.165  27.036   5.280  0.00  0.00    +0.175 C 
ATOM     24  C   UNL     1     -32.097  28.185   6.657  0.00  0.00    +0.218 C 
ATOM     25  H   UNL     1     -33.211  28.571   3.875  0.00  0.00    +0.176 HD
ENDBRANCH  17  23
ENDBRANCH  10  14
BRANCH   2  26
ATOM     26  C   UNL     1     -33.746  19.809   1.250  0.00  0.00    +0.101 C 
ATOM     27  C   UNL     1     -32.960  20.388   0.091  0.00  0.00    +0.024 C 
ENDBRANCH   2  26
TORSDOF 3
ENDMDL
MODEL 3
REMARK VINA RESULT:      -6.7      1.673      2.659
REMARK  Name = 58298318
REMARK  3 active torsions:
REMARK  status: ('A' for Active; 'I' for Inactive)
REMARK    1  A    between atoms: N_2  and  C_26
REMARK    2  A    between atoms: C_10  and  C_14
REMARK    3  A    between atoms: C_17  and  C_23
REMARK                            x       y       z     vdW  Elec       q    Type
REMARK                         _______ _______ _______ _____ _____    ______ ____
ROOT
ATOM      1  O   UNL     1     -37.125  19.777   0.768  0.00  0.00    -0.273 OA
ATOM      2  N   UNL     1     -36.446  21.703   1.877  0.00  0.00    -0.230 N 
ATOM      3  N   UNL     1     -39.130  22.340   2.188  0.00  0.00    -0.308 N 
ATOM      4  N   UNL     1     -35.864  23.718   3.058  0.00  0.00    -0.386 NA
ATOM      5  N   UNL     1     -38.564  24.301   3.374  0.00  0.00    -0.245 NA
ATOM      6  C   UNL     1     -36.820  22.908   2.541  0.00  0.00    +0.220 C 
ATOM      7  C   UNL     1     -38.171  23.198   2.693  0.00  0.00    +0.170 C 
ATOM      8  C   UNL     1     -38.779  21.443   1.118  0.00  0.00    +0.175 C 
ATOM      9  C   UNL     1     -37.385  20.875   1.264  0.00  0.00    +0.251 C 
ATOM     10  C   UNL     1     -36.274  24.815   3.717  0.00  0.00    +0.137 C 
ATOM     11  C   UNL     1     -37.605  25.102   3.874  0.00  0.00    +0.186 C 
ATOM     12  H   UNL     1     -40.043  22.342   2.556  0.00  0.00    +0.149 HD
ENDROOT
BRANCH  10  14
ATOM     13  N   UNL     1     -33.780  27.578   4.017  0.00  0.00    -0.407 NA
ATOM     14  C   UNL     1     -35.236  25.661   4.247  0.00  0.00    +0.049 C 
ATOM     15  C   UNL     1     -34.753  26.759   3.555  0.00  0.00    +0.111 C 
ATOM     16  C   UNL     1     -34.684  25.383   5.493  0.00  0.00    -0.014 C 
ATOM     17  C   UNL     1     -33.268  27.276   5.231  0.00  0.00    +0.146 C 
ATOM     18  C   UNL     1     -33.682  26.201   6.002  0.00  0.00    +0.088 C 
ATOM     19  C   UNL     1     -35.300  27.117   2.210  0.00  0.00    +0.066 C 
BRANCH  17  23
ATOM     20  N   UNL     1     -32.341  29.524   5.609  0.00  0.00    -0.217 N 
ATOM     21  N   UNL     1     -31.084  27.846   6.224  0.00  0.00    -0.204 NA
ATOM     22  N   UNL     1     -31.246  30.124   6.100  0.00  0.00    -0.157 NA
ATOM     23  C   UNL     1     -32.237  28.170   5.686  0.00  0.00    +0.175 C 
ATOM     24  C   UNL     1     -30.517  29.066   6.459  0.00  0.00    +0.218 C 
ATOM     25  H   UNL     1     -33.119  30.001   5.241  0.00  0.00    +0.176 HD
ENDBRANCH  17  23
ENDBRANCH  10  14
BRANCH   2  26
ATOM     26  C   UNL     1     -35.035  21.335   1.896  0.00  0.00    +0.101 C 
ATOM     27  C   UNL     1     -34.341  21.729   0.609  0.00  0.00    +0.024 C 
ENDBRANCH   2  26
TORSDOF 3
ENDMDL
MODEL 4
REMARK VINA RESULT:      -6.7      0.638      1.381
REMARK  Name = 58298318
REMARK  3 active torsions:
REMARK  status: ('A' for Active; 'I' for Inactive)
REMARK    1  A    between atoms: N_2  and  C_26
REMARK    2  A    between atoms: C_10  and  C_14
REMARK    3  A    between atoms: C_17  and  C_23
REMARK                            x       y       z     vdW  Elec       q    Type
REMARK                         _______ _______ _______ _____ _____    ______ ____
ROOT
ATOM      1  O   UNL     1     -40.917  23.137   1.106  0.00  0.00    -0.273 OA
ATOM      2  N   UNL     1     -38.907  23.859   2.021  0.00  0.00    -0.230 N 
ATOM      3  N   UNL     1     -38.150  21.193   2.187  0.00  0.00    -0.308 N 
ATOM      4  N   UNL     1     -36.780  24.488   2.959  0.00  0.00    -0.386 NA
ATOM      5  N   UNL     1     -36.051  21.807   3.077  0.00  0.00    -0.245 NA
ATOM      6  C   UNL     1     -37.635  23.512   2.565  0.00  0.00    +0.220 C 
ATOM      7  C   UNL     1     -37.276  22.170   2.626  0.00  0.00    +0.170 C 
ATOM      8  C   UNL     1     -39.559  21.482   2.131  0.00  0.00    +0.175 C 
ATOM      9  C   UNL     1     -39.849  22.893   1.672  0.00  0.00    +0.251 C 
ATOM     10  C   UNL     1     -35.576  24.106   3.416  0.00  0.00    +0.137 C 
ATOM     11  C   UNL     1     -35.216  22.785   3.474  0.00  0.00    +0.186 C 
ATOM     12  H   UNL     1     -37.812  20.310   1.915  0.00  0.00    +0.149 HD
ENDROOT
BRANCH  10  14
ATOM     13  N   UNL     1     -34.034  26.806   5.484  0.00  0.00    -0.407 NA
ATOM     14  C   UNL     1     -34.693  25.164   3.836  0.00  0.00    +0.049 C 
ATOM     15  C   UNL     1     -34.840  25.809   5.053  0.00  0.00    +0.111 C 
ATOM     16  C   UNL     1     -33.653  25.569   3.006  0.00  0.00    -0.014 C 
ATOM     17  C   UNL     1     -33.034  27.172   4.650  0.00  0.00    +0.146 C 
ATOM     18  C   UNL     1     -32.803  26.590   3.414  0.00  0.00    +0.088 C 
ATOM     19  C   UNL     1     -35.937  25.426   5.994  0.00  0.00    +0.066 C 
BRANCH  17  23
ATOM     20  N   UNL     1     -32.562  29.546   5.095  0.00  0.00    -0.217 N 
ATOM     21  N   UNL     1     -31.015  28.125   5.697  0.00  0.00    -0.204 NA
ATOM     22  N   UNL     1     -31.610  30.332   5.620  0.00  0.00    -0.157 NA
ATOM     23  C   UNL     1     -32.200  28.235   5.144  0.00  0.00    +0.175 C 
ATOM     24  C   UNL     1     -30.696  29.425   5.969  0.00  0.00    +0.218 C 
ATOM     25  H   UNL     1     -33.412  29.874   4.722  0.00  0.00    +0.176 HD
ENDBRANCH  17  23
ENDBRANCH  10  14
BRANCH   2  26
ATOM     26  C   UNL     1     -39.178  25.274   1.799  0.00  0.00    +0.101 C 
ATOM     27  C   UNL     1     -40.001  25.865   2.925  0.00  0.00    +0.024 C 
ENDBRANCH   2  26
TORSDOF 3
ENDMDL
MODEL 5
REMARK VINA RESULT:      -6.7      1.685      2.820
REMARK  Name = 58298318
REMARK  3 active torsions:
REMARK  status: ('A' for Active; 'I' for Inactive)
REMARK    1  A    between atoms: N_2  and  C_26
REMARK    2  A    between atoms: C_10  and  C_14
REMARK    3  A    between atoms: C_17  and  C_23
REMARK                            x       y       z     vdW  Elec       q    Type
REMARK                         _______ _______ _______ _____ _____    ______ ____
ROOT
ATOM      1  O   UNL     1     -38.162  19.911   0.221  0.00  0.00    -0.273 OA
ATOM      2  N   UNL     1     -37.278  21.748   1.337  0.00  0.00    -0.230 N 
ATOM      3  N   UNL     1     -39.872  22.414   2.070  0.00  0.00    -0.308 N 
ATOM      4  N   UNL     1     -36.477  23.671   2.543  0.00  0.00    -0.386 NA
ATOM      5  N   UNL     1     -39.088  24.283   3.281  0.00  0.00    -0.245 NA
ATOM      6  C   UNL     1     -37.520  22.914   2.120  0.00  0.00    +0.220 C 
ATOM      7  C   UNL     1     -38.826  23.219   2.483  0.00  0.00    +0.170 C 
ATOM      8  C   UNL     1     -39.702  21.582   0.907  0.00  0.00    +0.175 C 
ATOM      9  C   UNL     1     -38.319  20.980   0.815  0.00  0.00    +0.251 C 
ATOM     10  C   UNL     1     -36.758  24.730   3.321  0.00  0.00    +0.137 C 
ATOM     11  C   UNL     1     -38.045  25.031   3.685  0.00  0.00    +0.186 C 
ATOM     12  H   UNL     1     -40.722  22.410   2.565  0.00  0.00    +0.149 HD
ENDROOT
BRANCH  10  14
ATOM     13  N   UNL     1     -33.741  25.840   5.220  0.00  0.00    -0.407 NA
ATOM     14  C   UNL     1     -35.632  25.520   3.747  0.00  0.00    +0.049 C 
ATOM     15  C   UNL     1     -34.808  25.129   4.790  0.00  0.00    +0.111 C 
ATOM     16  C   UNL     1     -35.343  26.719   3.105  0.00  0.00    -0.014 C 
ATOM     17  C   UNL     1     -33.493  27.000   4.572  0.00  0.00    +0.146 C 
ATOM     18  C   UNL     1     -34.255  27.479   3.519  0.00  0.00    +0.088 C 
ATOM     19  C   UNL     1     -35.059  23.851   5.525  0.00  0.00    +0.066 C 
BRANCH  17  23
ATOM     20  N   UNL     1     -32.328  28.347   6.270  0.00  0.00    -0.217 N 
ATOM     21  N   UNL     1     -31.201  27.904   4.452  0.00  0.00    -0.204 NA
ATOM     22  N   UNL     1     -31.149  28.951   6.484  0.00  0.00    -0.157 NA
ATOM     23  C   UNL     1     -32.351  27.727   5.060  0.00  0.00    +0.175 C 
ATOM     24  C   UNL     1     -30.504  28.653   5.355  0.00  0.00    +0.218 C 
ATOM     25  H   UNL     1     -33.079  28.352   6.907  0.00  0.00    +0.176 HD
ENDBRANCH  17  23
ENDBRANCH  10  14
BRANCH   2  26
ATOM     26  C   UNL     1     -35.890  21.353   1.129  0.00  0.00    +0.101 C 
ATOM     27  C   UNL     1     -35.416  20.402   2.209  0.00  0.00    +0.024 C 
ENDBRANCH   2  26
TORSDOF 3
ENDMDL
MODEL 6
REMARK VINA RESULT:      -6.6      2.378      3.429
REMARK  Name = 58298318
REMARK  3 active torsions:
REMARK  status: ('A' for Active; 'I' for Inactive)
REMARK    1  A    between atoms: N_2  and  C_26
REMARK    2  A    between atoms: C_10  and  C_14
REMARK    3  A    between atoms: C_17  and  C_23
REMARK                            x       y       z     vdW  Elec       q    Type
REMARK                         _______ _______ _______ _____ _____    ______ ____
ROOT
ATOM      1  O   UNL     1     -35.927  18.624  -0.833  0.00  0.00    -0.273 OA
ATOM      2  N   UNL     1     -35.745  20.461   0.579  0.00  0.00    -0.230 N 
ATOM      3  N   UNL     1     -38.507  20.395   0.843  0.00  0.00    -0.308 N 
ATOM      4  N   UNL     1     -35.678  22.349   2.070  0.00  0.00    -0.386 NA
ATOM      5  N   UNL     1     -38.444  22.227   2.331  0.00  0.00    -0.245 NA
ATOM      6  C   UNL     1     -36.405  21.427   1.392  0.00  0.00    +0.220 C 
ATOM      7  C   UNL     1     -37.788  21.365   1.516  0.00  0.00    +0.170 C 
ATOM      8  C   UNL     1     -37.936  19.782  -0.327  0.00  0.00    +0.175 C 
ATOM      9  C   UNL     1     -36.450  19.541  -0.196  0.00  0.00    +0.251 C 
ATOM     10  C   UNL     1     -36.349  23.205   2.861  0.00  0.00    +0.137 C 
ATOM     11  C   UNL     1     -37.712  23.144   2.990  0.00  0.00    +0.186 C 
ATOM     12  H   UNL     1     -39.399  20.127   1.161  0.00  0.00    +0.149 HD
ENDROOT
BRANCH  10  14
ATOM     13  N   UNL     1     -34.243  26.211   3.543  0.00  0.00    -0.407 NA
ATOM     14  C   UNL     1     -35.551  24.178   3.561  0.00  0.00    +0.049 C 
ATOM     15  C   UNL     1     -34.997  25.275   2.923  0.00  0.00    +0.111 C 
ATOM     16  C   UNL     1     -35.315  24.030   4.924  0.00  0.00    -0.014 C 
ATOM     17  C   UNL     1     -34.035  26.033   4.867  0.00  0.00    +0.146 C 
ATOM     18  C   UNL     1     -34.544  24.971   5.597  0.00  0.00    +0.088 C 
ATOM     19  C   UNL     1     -35.210  25.497   1.459  0.00  0.00    +0.066 C 
BRANCH  17  23
ATOM     20  N   UNL     1     -32.953  28.243   4.898  0.00  0.00    -0.217 N 
ATOM     21  N   UNL     1     -32.653  26.998   6.669  0.00  0.00    -0.204 NA
ATOM     22  N   UNL     1     -32.182  29.009   5.686  0.00  0.00    -0.157 NA
ATOM     23  C   UNL     1     -33.228  27.049   5.489  0.00  0.00    +0.175 C 
ATOM     24  C   UNL     1     -32.030  28.210   6.744  0.00  0.00    +0.218 C 
ATOM     25  H   UNL     1     -33.277  28.511   4.008  0.00  0.00    +0.176 HD
ENDBRANCH  17  23
ENDBRANCH  10  14
BRANCH   2  26
ATOM     26  C   UNL     1     -34.287  20.436   0.616  0.00  0.00    +0.101 C 
ATOM     27  C   UNL     1     -33.773  19.361   1.551  0.00  0.00    +0.024 C 
ENDBRANCH   2  26
TORSDOF 3
ENDMDL
MODEL 7
REMARK VINA RESULT:      -6.2      3.059      8.361
REMARK  Name = 58298318
REMARK  3 active torsions:
REMARK  status: ('A' for Active; 'I' for Inactive)
REMARK    1  A    between atoms: N_2  and  C_26
REMARK    2  A    between atoms: C_10  and  C_14
REMARK    3  A    between atoms: C_17  and  C_23
REMARK                            x       y       z     vdW  Elec       q    Type
REMARK                         _______ _______ _______ _____ _____    ______ ____
ROOT
ATOM      1  O   UNL     1     -32.784  28.412   3.560  0.00  0.00    -0.273 OA
ATOM      2  N   UNL     1     -33.787  26.337   3.264  0.00  0.00    -0.230 N 
ATOM      3  N   UNL     1     -34.205  26.269   6.008  0.00  0.00    -0.308 N 
ATOM      4  N   UNL     1     -34.864  24.193   3.078  0.00  0.00    -0.386 NA
ATOM      5  N   UNL     1     -35.291  24.180   5.826  0.00  0.00    -0.245 NA
ATOM      6  C   UNL     1     -34.424  25.210   3.859  0.00  0.00    +0.220 C 
ATOM      7  C   UNL     1     -34.631  25.205   5.234  0.00  0.00    +0.170 C 
ATOM      8  C   UNL     1     -33.153  27.120   5.516  0.00  0.00    +0.175 C 
ATOM      9  C   UNL     1     -33.251  27.372   4.029  0.00  0.00    +0.251 C 
ATOM     10  C   UNL     1     -35.503  23.178   3.687  0.00  0.00    +0.137 C 
ATOM     11  C   UNL     1     -35.713  23.173   5.041  0.00  0.00    +0.186 C 
ATOM     12  H   UNL     1     -34.617  26.443   6.884  0.00  0.00    +0.149 HD
ENDROOT
BRANCH  10  14
ATOM     13  N   UNL     1     -37.679  21.104   1.472  0.00  0.00    -0.407 NA
ATOM     14  C   UNL     1     -35.950  22.109   2.833  0.00  0.00    +0.049 C 
ATOM     15  C   UNL     1     -37.220  22.088   2.278  0.00  0.00    +0.111 C 
ATOM     16  C   UNL     1     -35.097  21.050   2.542  0.00  0.00    -0.014 C 
ATOM     17  C   UNL     1     -36.820  20.092   1.213  0.00  0.00    +0.146 C 
ATOM     18  C   UNL     1     -35.532  20.019   1.717  0.00  0.00    +0.088 C 
ATOM     19  C   UNL     1     -38.190  23.194   2.548  0.00  0.00    +0.066 C 
BRANCH  17  23
ATOM     20  N   UNL     1     -37.020  17.751   0.480  0.00  0.00    -0.217 N 
ATOM     21  N   UNL     1     -38.185  19.217  -0.646  0.00  0.00    -0.204 NA
ATOM     22  N   UNL     1     -37.644  17.003  -0.442  0.00  0.00    -0.157 NA
ATOM     23  C   UNL     1     -37.346  19.065   0.352  0.00  0.00    +0.175 C 
ATOM     24  C   UNL     1     -38.336  17.937  -1.098  0.00  0.00    +0.218 C 
ATOM     25  H   UNL     1     -36.405  17.395   1.162  0.00  0.00    +0.176 HD
ENDBRANCH  17  23
ENDBRANCH  10  14
BRANCH   2  26
ATOM     26  C   UNL     1     -33.751  26.397   1.807  0.00  0.00    +0.101 C 
ATOM     27  C   UNL     1     -32.424  25.909   1.265  0.00  0.00    +0.024 C 
ENDBRANCH   2  26
TORSDOF 3
ENDMDL
MODEL 8
REMARK VINA RESULT:      -6.1      5.103      7.622
REMARK  Name = 58298318
REMARK  3 active torsions:
REMARK  status: ('A' for Active; 'I' for Inactive)
REMARK    1  A    between atoms: N_2  and  C_26
REMARK    2  A    between atoms: C_10  and  C_14
REMARK    3  A    between atoms: C_17  and  C_23
REMARK                            x       y       z     vdW  Elec       q    Type
REMARK                         _______ _______ _______ _____ _____    ______ ____
ROOT
ATOM      1  O   UNL     1     -37.599  24.743   4.273  0.00  0.00    -0.273 OA
ATOM      2  N   UNL     1     -36.242  23.201   3.186  0.00  0.00    -0.230 N 
ATOM      3  N   UNL     1     -37.911  23.450   0.982  0.00  0.00    -0.308 N 
ATOM      4  N   UNL     1     -34.899  21.630   1.952  0.00  0.00    -0.386 NA
ATOM      5  N   UNL     1     -36.579  21.933  -0.243  0.00  0.00    -0.245 NA
ATOM      6  C   UNL     1     -35.985  22.441   2.009  0.00  0.00    +0.220 C 
ATOM      7  C   UNL     1     -36.829  22.592   0.915  0.00  0.00    +0.170 C 
ATOM      8  C   UNL     1     -38.452  23.801   2.269  0.00  0.00    +0.175 C 
ATOM      9  C   UNL     1     -37.383  23.990   3.321  0.00  0.00    +0.251 C 
ATOM     10  C   UNL     1     -34.676  20.974   0.800  0.00  0.00    +0.137 C 
ATOM     11  C   UNL     1     -35.504  21.125  -0.282  0.00  0.00    +0.186 C 
ATOM     12  H   UNL     1     -38.306  23.817   0.159  0.00  0.00    +0.149 HD
ENDROOT
BRANCH  10  14
ATOM     13  N   UNL     1     -31.235  19.705   0.101  0.00  0.00    -0.407 NA
ATOM     14  C   UNL     1     -33.521  20.115   0.774  0.00  0.00    +0.049 C 
ATOM     15  C   UNL     1     -32.342  20.482   0.148  0.00  0.00    +0.111 C 
ATOM     16  C   UNL     1     -33.570  18.869   1.390  0.00  0.00    -0.014 C 
ATOM     17  C   UNL     1     -31.321  18.501   0.710  0.00  0.00    +0.146 C 
ATOM     18  C   UNL     1     -32.454  18.041   1.363  0.00  0.00    +0.088 C 
ATOM     19  C   UNL     1     -32.218  21.807  -0.535  0.00  0.00    +0.066 C 
BRANCH  17  23
ATOM     20  N   UNL     1     -28.875  18.236   0.714  0.00  0.00    -0.217 N 
ATOM     21  N   UNL     1     -30.043  16.403   0.492  0.00  0.00    -0.204 NA
ATOM     22  N   UNL     1     -27.936  17.283   0.620  0.00  0.00    -0.157 NA
ATOM     23  C   UNL     1     -30.125  17.705   0.637  0.00  0.00    +0.175 C 
ATOM     24  C   UNL     1     -28.694  16.193   0.487  0.00  0.00    +0.218 C 
ATOM     25  H   UNL     1     -28.684  19.196   0.825  0.00  0.00    +0.176 HD
ENDBRANCH  17  23
ENDBRANCH  10  14
BRANCH   2  26
ATOM     26  C   UNL     1     -35.239  23.162   4.244  0.00  0.00    +0.101 C 
ATOM     27  C   UNL     1     -34.315  24.361   4.178  0.00  0.00    +0.024 C 
ENDBRANCH   2  26
TORSDOF 3
ENDMDL
MODEL 9
REMARK VINA RESULT:      -6.0      4.894      6.669
REMARK  Name = 58298318
REMARK  3 active torsions:
REMARK  status: ('A' for Active; 'I' for Inactive)
REMARK    1  A    between atoms: N_2  and  C_26
REMARK    2  A    between atoms: C_10  and  C_14
REMARK    3  A    between atoms: C_17  and  C_23
REMARK                            x       y       z     vdW  Elec       q    Type
REMARK                         _______ _______ _______ _____ _____    ______ ____
ROOT
ATOM      1  O   UNL     1     -31.848  15.450  -0.617  0.00  0.00    -0.273 OA
ATOM      2  N   UNL     1     -32.873  17.332   0.279  0.00  0.00    -0.230 N 
ATOM      3  N   UNL     1     -35.198  16.550  -1.020  0.00  0.00    -0.308 N 
ATOM      4  N   UNL     1     -34.047  19.238   1.166  0.00  0.00    -0.386 NA
ATOM      5  N   UNL     1     -36.362  18.401  -0.127  0.00  0.00    -0.245 NA
ATOM      6  C   UNL     1     -34.052  18.126   0.390  0.00  0.00    +0.220 C 
ATOM      7  C   UNL     1     -35.206  17.706  -0.262  0.00  0.00    +0.170 C 
ATOM      8  C   UNL     1     -33.949  16.056  -1.538  0.00  0.00    +0.175 C 
ATOM      9  C   UNL     1     -32.805  16.224  -0.563  0.00  0.00    +0.251 C 
ATOM     10  C   UNL     1     -35.200  19.921   1.274  0.00  0.00    +0.137 C 
ATOM     11  C   UNL     1     -36.341  19.507   0.637  0.00  0.00    +0.186 C 
ATOM     12  H   UNL     1     -36.038  16.071  -1.204  0.00  0.00    +0.149 HD
ENDROOT
BRANCH  10  14
ATOM     13  N   UNL     1     -34.754  23.474   2.332  0.00  0.00    -0.407 NA
ATOM     14  C   UNL     1     -35.161  21.102   2.098  0.00  0.00    +0.049 C 
ATOM     15  C   UNL     1     -34.803  22.341   1.594  0.00  0.00    +0.111 C 
ATOM     16  C   UNL     1     -35.489  21.017   3.446  0.00  0.00    -0.014 C 
ATOM     17  C   UNL     1     -35.079  23.352   3.639  0.00  0.00    +0.146 C 
ATOM     18  C   UNL     1     -35.450  22.159   4.239  0.00  0.00    +0.088 C 
ATOM     19  C   UNL     1     -34.438  22.505   0.153  0.00  0.00    +0.066 C 
BRANCH  17  23
ATOM     20  N   UNL     1     -36.116  25.205   4.883  0.00  0.00    -0.217 N 
ATOM     21  N   UNL     1     -33.939  25.260   4.708  0.00  0.00    -0.204 NA
ATOM     22  N   UNL     1     -35.783  26.324   5.543  0.00  0.00    -0.157 NA
ATOM     23  C   UNL     1     -35.015  24.578   4.390  0.00  0.00    +0.175 C 
ATOM     24  C   UNL     1     -34.456  26.312   5.408  0.00  0.00    +0.218 C 
ATOM     25  H   UNL     1     -37.038  24.878   4.771  0.00  0.00    +0.176 HD
ENDBRANCH  17  23
ENDBRANCH  10  14
BRANCH   2  26
ATOM     26  C   UNL     1     -31.738  17.696   1.119  0.00  0.00    +0.101 C 
ATOM     27  C   UNL     1     -30.743  18.555   0.367  0.00  0.00    +0.024 C 
ENDBRANCH   2  26
TORSDOF 3
ENDMDL
