MODEL 1
REMARK VINA RESULT:      -6.8      0.000      0.000
REMARK  Name = 191632
REMARK  3 active torsions:
REMARK  status: ('A' for Active; 'I' for Inactive)
REMARK    1  A    between atoms: N_1  and  C_25
REMARK    2  A    between atoms: P_17  and  O_29
REMARK    3  A    between atoms: C_24  and  O_27
REMARK                            x       y       z     vdW  Elec       q    Type
REMARK                         _______ _______ _______ _____ _____    ______ ____
ROOT
ATOM      1  N   UNL     1     -35.882  21.911   1.306  0.00  0.00    -0.262 N 
ATOM      2  N   UNL     1     -35.938  19.955   2.360  0.00  0.00    -0.247 NA
ATOM      3  N   UNL     1     -31.474  21.155  -0.664  0.00  0.00    -0.244 NA
ATOM      4  N   UNL     1     -30.392  19.067  -0.151  0.00  0.00    -0.230 NA
ATOM      5  N   UNL     1     -31.435  17.483   1.238  0.00  0.00    -0.343 N 
ATOM      6  C   UNL     1     -34.698  21.290   0.996  0.00  0.00    +0.070 C 
ATOM      7  C   UNL     1     -36.588  21.073   2.125  0.00  0.00    +0.222 C 
ATOM      8  C   UNL     1     -34.758  20.075   1.664  0.00  0.00    +0.092 C 
ATOM      9  C   UNL     1     -33.612  21.679   0.209  0.00  0.00    +0.035 C 
ATOM     10  C   UNL     1     -33.679  19.188   1.551  0.00  0.00    +0.024 C 
ATOM     11  C   UNL     1     -32.532  20.805   0.087  0.00  0.00    +0.082 C 
ATOM     12  C   UNL     1     -32.575  19.569   0.758  0.00  0.00    +0.050 C 
ATOM     13  C   UNL     1     -31.465  18.745   0.594  0.00  0.00    +0.124 C 
ATOM     14  C   UNL     1     -30.461  20.269  -0.742  0.00  0.00    +0.252 C 
ATOM     15  H   UNL     1     -30.654  16.894   1.128  0.00  0.00    +0.144 HD
ATOM     16  H   UNL     1     -32.193  17.196   1.795  0.00  0.00    +0.144 HD
ENDROOT
BRANCH   1  25
ATOM     17  P   UNL     1     -35.976  25.004   4.716  0.00  0.00    +0.476 P 
ATOM     18  O   UNL     1     -35.326  24.220   1.176  0.00  0.00    -0.333 OA
ATOM     19  O   UNL     1     -36.908  24.202   3.671  0.00  0.00    -0.271 OA
ATOM     20  O   UNL     1     -34.747  25.504   3.790  0.00  0.00    -0.271 OA
ATOM     21  O   UNL     1     -35.562  24.222   5.927  0.00  0.00    -0.227 OA
ATOM     22  C   UNL     1     -37.233  24.796   2.421  0.00  0.00    +0.186 C 
ATOM     23  C   UNL     1     -36.008  25.366   1.714  0.00  0.00    +0.177 C 
ATOM     24  C   UNL     1     -37.647  23.685   1.474  0.00  0.00    +0.188 C 
ATOM     25  C   UNL     1     -36.324  23.231   0.850  0.00  0.00    +0.224 C 
ATOM     26  C   UNL     1     -35.055  26.178   2.578  0.00  0.00    +0.186 C 
BRANCH  24  27
ATOM     27  O   UNL     1     -38.473  24.214   0.440  0.00  0.00    -0.378 OA
ATOM     28  H   UNL     1     -39.108  24.839   0.822  0.00  0.00    +0.211 HD
ENDBRANCH  24  27
BRANCH  17  29
ATOM     29  O   UNL     1     -36.807  26.355   5.040  0.00  0.00    -0.302 OA
ATOM     30  H   UNL     1     -36.293  27.127   4.754  0.00  0.00    +0.222 HD
ENDBRANCH  17  29
ENDBRANCH   1  25
TORSDOF 3
ENDMDL
MODEL 2
REMARK VINA RESULT:      -6.7      6.527     10.579
REMARK  Name = 191632
REMARK  3 active torsions:
REMARK  status: ('A' for Active; 'I' for Inactive)
REMARK    1  A    between atoms: N_1  and  C_25
REMARK    2  A    between atoms: P_17  and  O_29
REMARK    3  A    between atoms: C_24  and  O_27
REMARK                            x       y       z     vdW  Elec       q    Type
REMARK                         _______ _______ _______ _____ _____    ______ ____
ROOT
ATOM      1  N   UNL     1     -41.224  25.998   2.028  0.00  0.00    -0.262 N 
ATOM      2  N   UNL     1     -43.284  25.410   1.433  0.00  0.00    -0.247 NA
ATOM      3  N   UNL     1     -42.702  29.383   5.228  0.00  0.00    -0.244 NA
ATOM      4  N   UNL     1     -45.077  29.688   5.478  0.00  0.00    -0.230 NA
ATOM      5  N   UNL     1     -46.591  28.398   4.225  0.00  0.00    -0.343 N 
ATOM      6  C   UNL     1     -42.063  26.791   2.769  0.00  0.00    +0.070 C 
ATOM      7  C   UNL     1     -42.002  25.190   1.244  0.00  0.00    +0.222 C 
ATOM      8  C   UNL     1     -43.339  26.406   2.381  0.00  0.00    +0.092 C 
ATOM      9  C   UNL     1     -41.819  27.785   3.720  0.00  0.00    +0.035 C 
ATOM     10  C   UNL     1     -44.443  27.040   2.966  0.00  0.00    +0.024 C 
ATOM     11  C   UNL     1     -42.910  28.424   4.310  0.00  0.00    +0.082 C 
ATOM     12  C   UNL     1     -44.210  28.046   3.928  0.00  0.00    +0.050 C 
ATOM     13  C   UNL     1     -45.252  28.723   4.556  0.00  0.00    +0.124 C 
ATOM     14  C   UNL     1     -43.795  29.964   5.761  0.00  0.00    +0.252 C 
ATOM     15  H   UNL     1     -47.335  28.872   4.663  0.00  0.00    +0.144 HD
ATOM     16  H   UNL     1     -46.778  27.700   3.557  0.00  0.00    +0.144 HD
ENDROOT
BRANCH   1  25
ATOM     17  P   UNL     1     -39.444  21.770   1.631  0.00  0.00    +0.476 P 
ATOM     18  O   UNL     1     -39.243  25.368   0.873  0.00  0.00    -0.333 OA
ATOM     19  O   UNL     1     -39.588  23.024   2.636  0.00  0.00    -0.271 OA
ATOM     20  O   UNL     1     -39.048  22.475   0.230  0.00  0.00    -0.271 OA
ATOM     21  O   UNL     1     -40.646  20.875   1.558  0.00  0.00    -0.227 OA
ATOM     22  C   UNL     1     -38.569  24.016   2.671  0.00  0.00    +0.186 C 
ATOM     23  C   UNL     1     -38.176  24.492   1.277  0.00  0.00    +0.177 C 
ATOM     24  C   UNL     1     -39.169  25.274   3.270  0.00  0.00    +0.188 C 
ATOM     25  C   UNL     1     -39.760  26.004   2.059  0.00  0.00    +0.224 C 
ATOM     26  C   UNL     1     -37.974  23.405   0.231  0.00  0.00    +0.186 C 
BRANCH  24  27
ATOM     27  O   UNL     1     -38.137  26.085   3.823  0.00  0.00    -0.378 OA
ATOM     28  H   UNL     1     -37.763  26.650   3.130  0.00  0.00    +0.211 HD
ENDBRANCH  24  27
BRANCH  17  29
ATOM     29  O   UNL     1     -38.084  21.030   2.104  0.00  0.00    -0.302 OA
ATOM     30  H   UNL     1     -37.857  20.333   1.469  0.00  0.00    +0.222 HD
ENDBRANCH  17  29
ENDBRANCH   1  25
TORSDOF 3
ENDMDL
MODEL 3
REMARK VINA RESULT:      -6.7      1.660      2.980
REMARK  Name = 191632
REMARK  3 active torsions:
REMARK  status: ('A' for Active; 'I' for Inactive)
REMARK    1  A    between atoms: N_1  and  C_25
REMARK    2  A    between atoms: P_17  and  O_29
REMARK    3  A    between atoms: C_24  and  O_27
REMARK                            x       y       z     vdW  Elec       q    Type
REMARK                         _______ _______ _______ _____ _____    ______ ____
ROOT
ATOM      1  N   UNL     1     -34.605  21.758   0.492  0.00  0.00    -0.262 N 
ATOM      2  N   UNL     1     -33.057  22.863  -0.659  0.00  0.00    -0.247 NA
ATOM      3  N   UNL     1     -31.821  17.799   1.172  0.00  0.00    -0.244 NA
ATOM      4  N   UNL     1     -29.605  17.847   0.234  0.00  0.00    -0.230 NA
ATOM      5  N   UNL     1     -28.843  19.729  -0.951  0.00  0.00    -0.343 N 
ATOM      6  C   UNL     1     -33.521  20.919   0.431  0.00  0.00    +0.070 C 
ATOM      7  C   UNL     1     -34.277  22.907  -0.175  0.00  0.00    +0.222 C 
ATOM      8  C   UNL     1     -32.571  21.630  -0.289  0.00  0.00    +0.092 C 
ATOM      9  C   UNL     1     -33.298  19.635   0.933  0.00  0.00    +0.035 C 
ATOM     10  C   UNL     1     -31.324  21.037  -0.532  0.00  0.00    +0.024 C 
ATOM     11  C   UNL     1     -32.061  19.034   0.700  0.00  0.00    +0.082 C 
ATOM     12  C   UNL     1     -31.086  19.740  -0.030  0.00  0.00    +0.050 C 
ATOM     13  C   UNL     1     -29.876  19.083  -0.226  0.00  0.00    +0.124 C 
ATOM     14  C   UNL     1     -30.608  17.272   0.913  0.00  0.00    +0.252 C 
ATOM     15  H   UNL     1     -27.984  19.272  -1.096  0.00  0.00    +0.144 HD
ATOM     16  H   UNL     1     -28.986  20.634  -1.310  0.00  0.00    +0.144 HD
ENDROOT
BRANCH   1  25
ATOM     17  P   UNL     1     -35.077  24.072   4.445  0.00  0.00    +0.476 P 
ATOM     18  O   UNL     1     -36.593  22.723   1.371  0.00  0.00    -0.333 OA
ATOM     19  O   UNL     1     -34.948  22.590   3.821  0.00  0.00    -0.271 OA
ATOM     20  O   UNL     1     -36.151  24.782   3.465  0.00  0.00    -0.271 OA
ATOM     21  O   UNL     1     -33.781  24.815   4.588  0.00  0.00    -0.227 OA
ATOM     22  C   UNL     1     -36.125  21.857   3.504  0.00  0.00    +0.186 C 
ATOM     23  C   UNL     1     -37.126  22.686   2.706  0.00  0.00    +0.177 C 
ATOM     24  C   UNL     1     -35.745  20.783   2.502  0.00  0.00    +0.188 C 
ATOM     25  C   UNL     1     -35.886  21.487   1.148  0.00  0.00    +0.224 C 
ATOM     26  C   UNL     1     -37.371  24.102   3.207  0.00  0.00    +0.186 C 
BRANCH  24  27
ATOM     27  O   UNL     1     -36.689  19.717   2.554  0.00  0.00    -0.378 OA
ATOM     28  H   UNL     1     -36.580  19.151   1.775  0.00  0.00    +0.211 HD
ENDBRANCH  24  27
BRANCH  17  29
ATOM     29  O   UNL     1     -35.884  23.856   5.831  0.00  0.00    -0.302 OA
ATOM     30  H   UNL     1     -35.688  22.974   6.185  0.00  0.00    +0.222 HD
ENDBRANCH  17  29
ENDBRANCH   1  25
TORSDOF 3
ENDMDL
MODEL 4
REMARK VINA RESULT:      -6.6      2.081      3.238
REMARK  Name = 191632
REMARK  3 active torsions:
REMARK  status: ('A' for Active; 'I' for Inactive)
REMARK    1  A    between atoms: N_1  and  C_25
REMARK    2  A    between atoms: P_17  and  O_29
REMARK    3  A    between atoms: C_24  and  O_27
REMARK                            x       y       z     vdW  Elec       q    Type
REMARK                         _______ _______ _______ _____ _____    ______ ____
ROOT
ATOM      1  N   UNL     1     -35.396  23.073   2.074  0.00  0.00    -0.262 N 
ATOM      2  N   UNL     1     -34.599  23.813   0.135  0.00  0.00    -0.247 NA
ATOM      3  N   UNL     1     -33.613  18.557   1.520  0.00  0.00    -0.244 NA
ATOM      4  N   UNL     1     -32.382  18.108  -0.500  0.00  0.00    -0.230 NA
ATOM      5  N   UNL     1     -32.069  19.788  -2.114  0.00  0.00    -0.343 N 
ATOM      6  C   UNL     1     -34.743  22.006   1.511  0.00  0.00    +0.070 C 
ATOM      7  C   UNL     1     -35.282  24.130   1.212  0.00  0.00    +0.222 C 
ATOM      8  C   UNL     1     -34.256  22.492   0.306  0.00  0.00    +0.092 C 
ATOM      9  C   UNL     1     -34.543  20.693   1.944  0.00  0.00    +0.035 C 
ATOM     10  C   UNL     1     -33.528  21.630  -0.526  0.00  0.00    +0.024 C 
ATOM     11  C   UNL     1     -33.819  19.825   1.126  0.00  0.00    +0.082 C 
ATOM     12  C   UNL     1     -33.318  20.302  -0.100  0.00  0.00    +0.050 C 
ATOM     13  C   UNL     1     -32.606  19.384  -0.866  0.00  0.00    +0.124 C 
ATOM     14  C   UNL     1     -32.907  17.767   0.686  0.00  0.00    +0.252 C 
ATOM     15  H   UNL     1     -31.564  19.146  -2.663  0.00  0.00    +0.144 HD
ATOM     16  H   UNL     1     -32.202  20.710  -2.431  0.00  0.00    +0.144 HD
ENDROOT
BRANCH   1  25
ATOM     17  P   UNL     1     -33.743  26.301   4.913  0.00  0.00    +0.476 P 
ATOM     18  O   UNL     1     -36.624  24.410   3.611  0.00  0.00    -0.333 OA
ATOM     19  O   UNL     1     -33.901  24.707   4.718  0.00  0.00    -0.271 OA
ATOM     20  O   UNL     1     -35.213  26.857   4.529  0.00  0.00    -0.271 OA
ATOM     21  O   UNL     1     -32.621  26.926   4.138  0.00  0.00    -0.227 OA
ATOM     22  C   UNL     1     -35.020  24.038   5.287  0.00  0.00    +0.186 C 
ATOM     23  C   UNL     1     -36.335  24.746   4.980  0.00  0.00    +0.177 C 
ATOM     24  C   UNL     1     -35.196  22.724   4.549  0.00  0.00    +0.188 C 
ATOM     25  C   UNL     1     -36.092  23.093   3.362  0.00  0.00    +0.224 C 
ATOM     26  C   UNL     1     -36.338  26.257   5.155  0.00  0.00    +0.186 C 
BRANCH  24  27
ATOM     27  O   UNL     1     -35.902  21.799   5.373  0.00  0.00    -0.378 OA
ATOM     28  H   UNL     1     -35.383  21.615   6.170  0.00  0.00    +0.211 HD
ENDBRANCH  24  27
BRANCH  17  29
ATOM     29  O   UNL     1     -33.647  26.502   6.515  0.00  0.00    -0.302 OA
ATOM     30  H   UNL     1     -33.767  25.646   6.957  0.00  0.00    +0.222 HD
ENDBRANCH  17  29
ENDBRANCH   1  25
TORSDOF 3
ENDMDL
MODEL 5
REMARK VINA RESULT:      -6.6      5.159      7.379
REMARK  Name = 191632
REMARK  3 active torsions:
REMARK  status: ('A' for Active; 'I' for Inactive)
REMARK    1  A    between atoms: N_1  and  C_25
REMARK    2  A    between atoms: P_17  and  O_29
REMARK    3  A    between atoms: C_24  and  O_27
REMARK                            x       y       z     vdW  Elec       q    Type
REMARK                         _______ _______ _______ _____ _____    ______ ____
ROOT
ATOM      1  N   UNL     1     -32.747  27.366   4.678  0.00  0.00    -0.262 N 
ATOM      2  N   UNL     1     -33.631  26.531   6.539  0.00  0.00    -0.247 NA
ATOM      3  N   UNL     1     -34.630  23.911   1.779  0.00  0.00    -0.244 NA
ATOM      4  N   UNL     1     -35.970  22.212   2.833  0.00  0.00    -0.230 NA
ATOM      5  N   UNL     1     -36.339  22.241   5.154  0.00  0.00    -0.343 N 
ATOM      6  C   UNL     1     -33.445  26.251   4.288  0.00  0.00    +0.070 C 
ATOM      7  C   UNL     1     -32.888  27.490   6.033  0.00  0.00    +0.222 C 
ATOM      8  C   UNL     1     -33.986  25.750   5.464  0.00  0.00    +0.092 C 
ATOM      9  C   UNL     1     -33.644  25.656   3.039  0.00  0.00    +0.035 C 
ATOM     10  C   UNL     1     -34.771  24.590   5.406  0.00  0.00    +0.024 C 
ATOM     11  C   UNL     1     -34.424  24.502   2.968  0.00  0.00    +0.082 C 
ATOM     12  C   UNL     1     -34.979  23.980   4.151  0.00  0.00    +0.050 C 
ATOM     13  C   UNL     1     -35.745  22.827   4.008  0.00  0.00    +0.124 C 
ATOM     14  C   UNL     1     -35.390  22.798   1.775  0.00  0.00    +0.252 C 
ATOM     15  H   UNL     1     -36.882  21.425   5.064  0.00  0.00    +0.144 HD
ATOM     16  H   UNL     1     -36.208  22.649   6.040  0.00  0.00    +0.144 HD
ENDROOT
BRANCH   1  25
ATOM     17  P   UNL     1     -28.354  27.769   5.999  0.00  0.00    +0.476 P 
ATOM     18  O   UNL     1     -30.834  27.581   3.282  0.00  0.00    -0.333 OA
ATOM     19  O   UNL     1     -29.736  28.586   5.834  0.00  0.00    -0.271 OA
ATOM     20  O   UNL     1     -28.253  26.949   4.609  0.00  0.00    -0.271 OA
ATOM     21  O   UNL     1     -28.266  26.917   7.231  0.00  0.00    -0.227 OA
ATOM     22  C   UNL     1     -29.986  29.306   4.632  0.00  0.00    +0.186 C 
ATOM     23  C   UNL     1     -29.708  28.470   3.388  0.00  0.00    +0.177 C 
ATOM     24  C   UNL     1     -31.483  29.527   4.529  0.00  0.00    +0.188 C 
ATOM     25  C   UNL     1     -31.985  28.268   3.813  0.00  0.00    +0.224 C 
ATOM     26  C   UNL     1     -28.414  27.669   3.395  0.00  0.00    +0.186 C 
BRANCH  24  27
ATOM     27  O   UNL     1     -31.749  30.653   3.697  0.00  0.00    -0.378 OA
ATOM     28  H   UNL     1     -32.677  30.917   3.798  0.00  0.00    +0.211 HD
ENDBRANCH  24  27
BRANCH  17  29
ATOM     29  O   UNL     1     -27.203  28.899   5.880  0.00  0.00    -0.302 OA
ATOM     30  H   UNL     1     -26.525  28.605   5.251  0.00  0.00    +0.222 HD
ENDBRANCH  17  29
ENDBRANCH   1  25
TORSDOF 3
ENDMDL
MODEL 6
REMARK VINA RESULT:      -6.6      2.393      3.003
REMARK  Name = 191632
REMARK  3 active torsions:
REMARK  status: ('A' for Active; 'I' for Inactive)
REMARK    1  A    between atoms: N_1  and  C_25
REMARK    2  A    between atoms: P_17  and  O_29
REMARK    3  A    between atoms: C_24  and  O_27
REMARK                            x       y       z     vdW  Elec       q    Type
REMARK                         _______ _______ _______ _____ _____    ______ ____
ROOT
ATOM      1  N   UNL     1     -36.897  21.152   1.645  0.00  0.00    -0.262 N 
ATOM      2  N   UNL     1     -35.120  21.151   2.981  0.00  0.00    -0.247 NA
ATOM      3  N   UNL     1     -35.204  17.590  -1.242  0.00  0.00    -0.244 NA
ATOM      4  N   UNL     1     -33.048  16.671  -0.693  0.00  0.00    -0.230 NA
ATOM      5  N   UNL     1     -31.836  17.472   1.155  0.00  0.00    -0.343 N 
ATOM      6  C   UNL     1     -36.060  20.186   1.146  0.00  0.00    +0.070 C 
ATOM      7  C   UNL     1     -36.289  21.700   2.742  0.00  0.00    +0.222 C 
ATOM      8  C   UNL     1     -34.962  20.205   1.995  0.00  0.00    +0.092 C 
ATOM      9  C   UNL     1     -36.168  19.321   0.054  0.00  0.00    +0.035 C 
ATOM     10  C   UNL     1     -33.905  19.317   1.753  0.00  0.00    +0.024 C 
ATOM     11  C   UNL     1     -35.124  18.432  -0.198  0.00  0.00    +0.082 C 
ATOM     12  C   UNL     1     -34.003  18.438   0.653  0.00  0.00    +0.050 C 
ATOM     13  C   UNL     1     -32.998  17.526   0.344  0.00  0.00    +0.124 C 
ATOM     14  C   UNL     1     -34.163  16.756  -1.434  0.00  0.00    +0.252 C 
ATOM     15  H   UNL     1     -31.119  16.830   0.945  0.00  0.00    +0.144 HD
ATOM     16  H   UNL     1     -31.746  18.074   1.928  0.00  0.00    +0.144 HD
ENDROOT
BRANCH   1  25
ATOM     17  P   UNL     1     -38.195  25.345   3.037  0.00  0.00    +0.476 P 
ATOM     18  O   UNL     1     -38.094  22.782   0.394  0.00  0.00    -0.333 OA
ATOM     19  O   UNL     1     -38.565  23.777   3.135  0.00  0.00    -0.271 OA
ATOM     20  O   UNL     1     -37.904  25.548   1.459  0.00  0.00    -0.271 OA
ATOM     21  O   UNL     1     -37.080  25.791   3.937  0.00  0.00    -0.227 OA
ATOM     22  C   UNL     1     -39.502  23.219   2.222  0.00  0.00    +0.186 C 
ATOM     23  C   UNL     1     -39.207  23.608   0.778  0.00  0.00    +0.177 C 
ATOM     24  C   UNL     1     -39.278  21.719   2.190  0.00  0.00    +0.188 C 
ATOM     25  C   UNL     1     -38.205  21.537   1.112  0.00  0.00    +0.224 C 
ATOM     26  C   UNL     1     -38.874  25.073   0.535  0.00  0.00    +0.186 C 
BRANCH  24  27
ATOM     27  O   UNL     1     -40.466  21.062   1.756  0.00  0.00    -0.378 OA
ATOM     28  H   UNL     1     -40.927  21.621   1.112  0.00  0.00    +0.211 HD
ENDBRANCH  24  27
BRANCH  17  29
ATOM     29  O   UNL     1     -39.602  26.105   3.285  0.00  0.00    -0.302 OA
ATOM     30  H   UNL     1     -40.057  26.228   2.436  0.00  0.00    +0.222 HD
ENDBRANCH  17  29
ENDBRANCH   1  25
TORSDOF 3
ENDMDL
MODEL 7
REMARK VINA RESULT:      -6.6      4.064      6.380
REMARK  Name = 191632
REMARK  3 active torsions:
REMARK  status: ('A' for Active; 'I' for Inactive)
REMARK    1  A    between atoms: N_1  and  C_25
REMARK    2  A    between atoms: P_17  and  O_29
REMARK    3  A    between atoms: C_24  and  O_27
REMARK                            x       y       z     vdW  Elec       q    Type
REMARK                         _______ _______ _______ _____ _____    ______ ____
ROOT
ATOM      1  N   UNL     1     -34.949  23.949   3.850  0.00  0.00    -0.262 N 
ATOM      2  N   UNL     1     -35.050  24.586   5.977  0.00  0.00    -0.247 NA
ATOM      3  N   UNL     1     -32.092  27.668   2.473  0.00  0.00    -0.244 NA
ATOM      4  N   UNL     1     -31.454  29.244   4.177  0.00  0.00    -0.230 NA
ATOM      5  N   UNL     1     -32.187  28.978   6.395  0.00  0.00    -0.343 N 
ATOM      6  C   UNL     1     -34.196  25.093   3.929  0.00  0.00    +0.070 C 
ATOM      7  C   UNL     1     -35.439  23.688   5.100  0.00  0.00    +0.222 C 
ATOM      8  C   UNL     1     -34.275  25.470   5.262  0.00  0.00    +0.092 C 
ATOM      9  C   UNL     1     -33.472  25.810   2.972  0.00  0.00    +0.035 C 
ATOM     10  C   UNL     1     -33.599  26.625   5.679  0.00  0.00    +0.024 C 
ATOM     11  C   UNL     1     -32.795  26.961   3.374  0.00  0.00    +0.082 C 
ATOM     12  C   UNL     1     -32.865  27.357   4.723  0.00  0.00    +0.050 C 
ATOM     13  C   UNL     1     -32.166  28.514   5.056  0.00  0.00    +0.124 C 
ATOM     14  C   UNL     1     -31.461  28.771   2.923  0.00  0.00    +0.252 C 
ATOM     15  H   UNL     1     -31.697  29.796   6.640  0.00  0.00    +0.144 HD
ATOM     16  H   UNL     1     -32.693  28.483   7.080  0.00  0.00    +0.144 HD
ENDROOT
BRANCH   1  25
ATOM     17  P   UNL     1     -39.388  23.924   2.625  0.00  0.00    +0.476 P 
ATOM     18  O   UNL     1     -35.838  23.947   1.644  0.00  0.00    -0.333 OA
ATOM     19  O   UNL     1     -38.187  22.986   3.155  0.00  0.00    -0.271 OA
ATOM     20  O   UNL     1     -38.681  24.784   1.452  0.00  0.00    -0.271 OA
ATOM     21  O   UNL     1     -40.061  24.750   3.681  0.00  0.00    -0.227 OA
ATOM     22  C   UNL     1     -37.385  22.276   2.219  0.00  0.00    +0.186 C 
ATOM     23  C   UNL     1     -36.904  23.165   1.077  0.00  0.00    +0.177 C 
ATOM     24  C   UNL     1     -36.080  21.920   2.905  0.00  0.00    +0.188 C 
ATOM     25  C   UNL     1     -35.193  23.143   2.651  0.00  0.00    +0.224 C 
ATOM     26  C   UNL     1     -37.948  24.082   0.458  0.00  0.00    +0.186 C 
BRANCH  24  27
ATOM     27  O   UNL     1     -35.487  20.795   2.261  0.00  0.00    -0.378 OA
ATOM     28  H   UNL     1     -36.076  20.476   1.560  0.00  0.00    +0.211 HD
ENDBRANCH  24  27
BRANCH  17  29
ATOM     29  O   UNL     1     -40.372  22.909   1.838  0.00  0.00    -0.302 OA
ATOM     30  H   UNL     1     -40.352  22.040   2.268  0.00  0.00    +0.222 HD
ENDBRANCH  17  29
ENDBRANCH   1  25
TORSDOF 3
ENDMDL
MODEL 8
REMARK VINA RESULT:      -6.5      5.675      7.894
REMARK  Name = 191632
REMARK  3 active torsions:
REMARK  status: ('A' for Active; 'I' for Inactive)
REMARK    1  A    between atoms: N_1  and  C_25
REMARK    2  A    between atoms: P_17  and  O_29
REMARK    3  A    between atoms: C_24  and  O_27
REMARK                            x       y       z     vdW  Elec       q    Type
REMARK                         _______ _______ _______ _____ _____    ______ ____
ROOT
ATOM      1  N   UNL     1     -33.401  27.100   4.593  0.00  0.00    -0.262 N 
ATOM      2  N   UNL     1     -32.854  26.997   6.744  0.00  0.00    -0.247 NA
ATOM      3  N   UNL     1     -29.663  30.010   3.388  0.00  0.00    -0.244 NA
ATOM      4  N   UNL     1     -28.170  30.659   5.160  0.00  0.00    -0.230 NA
ATOM      5  N   UNL     1     -28.520  29.911   7.361  0.00  0.00    -0.343 N 
ATOM      6  C   UNL     1     -32.271  27.868   4.723  0.00  0.00    +0.070 C 
ATOM      7  C   UNL     1     -33.710  26.602   5.829  0.00  0.00    +0.222 C 
ATOM      8  C   UNL     1     -31.950  27.786   6.071  0.00  0.00    +0.092 C 
ATOM      9  C   UNL     1     -31.524  28.604   3.801  0.00  0.00    +0.035 C 
ATOM     10  C   UNL     1     -30.823  28.475   6.540  0.00  0.00    +0.024 C 
ATOM     11  C   UNL     1     -30.399  29.293   4.255  0.00  0.00    +0.082 C 
ATOM     12  C   UNL     1     -30.060  29.222   5.619  0.00  0.00    +0.050 C 
ATOM     13  C   UNL     1     -28.927  29.934   6.003  0.00  0.00    +0.124 C 
ATOM     14  C   UNL     1     -28.590  30.654   3.887  0.00  0.00    +0.252 C 
ATOM     15  H   UNL     1     -27.720  30.411   7.643  0.00  0.00    +0.144 HD
ATOM     16  H   UNL     1     -29.036  29.396   8.022  0.00  0.00    +0.144 HD
ENDROOT
BRANCH   1  25
ATOM     17  P   UNL     1     -36.037  23.335   4.873  0.00  0.00    +0.476 P 
ATOM     18  O   UNL     1     -35.561  26.777   3.651  0.00  0.00    -0.333 OA
ATOM     19  O   UNL     1     -34.765  23.969   4.110  0.00  0.00    -0.271 OA
ATOM     20  O   UNL     1     -37.112  24.543   4.845  0.00  0.00    -0.271 OA
ATOM     21  O   UNL     1     -35.749  22.791   6.242  0.00  0.00    -0.227 OA
ATOM     22  C   UNL     1     -34.954  24.646   2.873  0.00  0.00    +0.186 C 
ATOM     23  C   UNL     1     -36.097  25.652   2.932  0.00  0.00    +0.177 C 
ATOM     24  C   UNL     1     -33.756  25.550   2.653  0.00  0.00    +0.188 C 
ATOM     25  C   UNL     1     -34.152  26.851   3.359  0.00  0.00    +0.224 C 
ATOM     26  C   UNL     1     -37.377  25.172   3.599  0.00  0.00    +0.186 C 
BRANCH  24  27
ATOM     27  O   UNL     1     -33.605  25.823   1.262  0.00  0.00    -0.378 OA
ATOM     28  H   UNL     1     -34.248  25.300   0.759  0.00  0.00    +0.211 HD
ENDBRANCH  24  27
BRANCH  17  29
ATOM     29  O   UNL     1     -36.630  22.249   3.830  0.00  0.00    -0.302 OA
ATOM     30  H   UNL     1     -37.368  22.642   3.339  0.00  0.00    +0.222 HD
ENDBRANCH  17  29
ENDBRANCH   1  25
TORSDOF 3
ENDMDL
MODEL 9
REMARK VINA RESULT:      -6.4      2.785      3.944
REMARK  Name = 191632
REMARK  3 active torsions:
REMARK  status: ('A' for Active; 'I' for Inactive)
REMARK    1  A    between atoms: N_1  and  C_25
REMARK    2  A    between atoms: P_17  and  O_29
REMARK    3  A    between atoms: C_24  and  O_27
REMARK                            x       y       z     vdW  Elec       q    Type
REMARK                         _______ _______ _______ _____ _____    ______ ____
ROOT
ATOM      1  N   UNL     1     -36.936  22.408   1.457  0.00  0.00    -0.262 N 
ATOM      2  N   UNL     1     -35.168  21.141   1.916  0.00  0.00    -0.247 NA
ATOM      3  N   UNL     1     -39.316  18.885  -0.953  0.00  0.00    -0.244 NA
ATOM      4  N   UNL     1     -38.219  16.750  -1.130  0.00  0.00    -0.230 NA
ATOM      5  N   UNL     1     -36.098  16.406  -0.175  0.00  0.00    -0.343 N 
ATOM      6  C   UNL     1     -37.205  21.183   0.900  0.00  0.00    +0.070 C 
ATOM      7  C   UNL     1     -35.706  22.332   2.051  0.00  0.00    +0.222 C 
ATOM      8  C   UNL     1     -36.090  20.413   1.201  0.00  0.00    +0.092 C 
ATOM      9  C   UNL     1     -38.300  20.699   0.181  0.00  0.00    +0.035 C 
ATOM     10  C   UNL     1     -36.052  19.082   0.763  0.00  0.00    +0.024 C 
ATOM     11  C   UNL     1     -38.275  19.375  -0.259  0.00  0.00    +0.082 C 
ATOM     12  C   UNL     1     -37.152  18.580   0.036  0.00  0.00    +0.050 C 
ATOM     13  C   UNL     1     -37.192  17.270  -0.433  0.00  0.00    +0.124 C 
ATOM     14  C   UNL     1     -39.231  17.600  -1.352  0.00  0.00    +0.252 C 
ATOM     15  H   UNL     1     -36.117  15.478  -0.503  0.00  0.00    +0.144 HD
ATOM     16  H   UNL     1     -35.320  16.734   0.331  0.00  0.00    +0.144 HD
ENDROOT
BRANCH   1  25
ATOM     17  P   UNL     1     -35.888  25.428   4.772  0.00  0.00    +0.476 P 
ATOM     18  O   UNL     1     -36.992  24.782   1.318  0.00  0.00    -0.333 OA
ATOM     19  O   UNL     1     -37.042  24.428   4.250  0.00  0.00    -0.271 OA
ATOM     20  O   UNL     1     -35.429  26.184   3.418  0.00  0.00    -0.271 OA
ATOM     21  O   UNL     1     -34.770  24.768   5.524  0.00  0.00    -0.227 OA
ATOM     22  C   UNL     1     -38.069  24.925   3.401  0.00  0.00    +0.186 C 
ATOM     23  C   UNL     1     -37.516  25.750   2.245  0.00  0.00    +0.177 C 
ATOM     24  C   UNL     1     -38.678  23.741   2.672  0.00  0.00    +0.188 C 
ATOM     25  C   UNL     1     -37.798  23.592   1.427  0.00  0.00    +0.224 C 
ATOM     26  C   UNL     1     -36.438  26.762   2.601  0.00  0.00    +0.186 C 
BRANCH  24  27
ATOM     27  O   UNL     1     -40.001  24.062   2.251  0.00  0.00    -0.378 OA
ATOM     28  H   UNL     1     -40.039  24.068   1.282  0.00  0.00    +0.211 HD
ENDBRANCH  24  27
BRANCH  17  29
ATOM     29  O   UNL     1     -36.686  26.559   5.610  0.00  0.00    -0.302 OA
ATOM     30  H   UNL     1     -36.360  27.438   5.358  0.00  0.00    +0.222 HD
ENDBRANCH  17  29
ENDBRANCH   1  25
TORSDOF 3
ENDMDL
