MODEL 1
REMARK VINA RESULT:      -5.9      0.000      0.000
REMARK  Name = 197690
REMARK  6 active torsions:
REMARK  status: ('A' for Active; 'I' for Inactive)
REMARK    1  A    between atoms: C_3  and  O_18
REMARK    2  A    between atoms: C_11  and  N_15
REMARK    3  A    between atoms: C_12  and  C_21
REMARK    4  A    between atoms: C_21  and  O_22
REMARK    5  A    between atoms: O_22  and  C_23
REMARK    6  A    between atoms: C_23  and  C_24
REMARK                            x       y       z     vdW  Elec       q    Type
REMARK                         _______ _______ _______ _____ _____    ______ ____
ROOT
ATOM      1  S   UNL     1     -36.105  22.542   0.239  0.00  0.00    -0.064 S 
ATOM      2  N   UNL     1     -34.467  24.293   1.390  0.00  0.00    -0.403 NA
ATOM      3  C   UNL     1     -40.116  21.794   0.743  0.00  0.00    +0.116 C 
ATOM      4  C   UNL     1     -38.046  23.660   1.507  0.00  0.00    -0.030 C 
ATOM      5  C   UNL     1     -40.492  23.242   1.094  0.00  0.00    +0.034 C 
ATOM      6  C   UNL     1     -39.442  23.917   1.992  0.00  0.00    +0.025 C 
ATOM      7  C   UNL     1     -38.765  21.705   0.012  0.00  0.00    +0.062 C 
ATOM      8  C   UNL     1     -37.760  22.637   0.622  0.00  0.00    +0.005 C 
ATOM      9  C   UNL     1     -36.864  24.380   1.892  0.00  0.00    +0.113 C 
ATOM     10  C   UNL     1     -35.739  23.859   1.259  0.00  0.00    +0.146 C 
ATOM     11  C   UNL     1     -36.648  25.471   2.760  0.00  0.00    +0.038 C 
ATOM     12  C   UNL     1     -35.354  25.954   2.928  0.00  0.00    +0.110 C 
ATOM     13  C   UNL     1     -34.330  25.338   2.232  0.00  0.00    +0.117 C 
ATOM     14  C   UNL     1     -32.925  25.832   2.389  0.00  0.00    +0.067 C 
ENDROOT
BRANCH  11  15
ATOM     15  N   UNL     1     -37.708  26.077   3.470  0.00  0.00    -0.359 N 
ATOM     16  H   UNL     1     -38.625  26.037   3.113  0.00  0.00    +0.142 HD
ATOM     17  H   UNL     1     -37.530  26.540   4.319  0.00  0.00    +0.142 HD
ENDBRANCH  11  15
BRANCH   3  18
ATOM     18  O   UNL     1     -40.045  21.009   1.933  0.00  0.00    -0.384 OA
ATOM     19  H   UNL     1     -39.821  21.580   2.684  0.00  0.00    +0.210 HD
ENDBRANCH   3  18
BRANCH  12  21
ATOM     20  O   UNL     1     -34.675  28.183   3.435  0.00  0.00    -0.245 OA
ATOM     21  C   UNL     1     -35.081  27.080   3.815  0.00  0.00    +0.345 C 
BRANCH  21  22
ATOM     22  O   UNL     1     -35.331  26.758   5.119  0.00  0.00    -0.431 OA
BRANCH  22  23
ATOM     23  C   UNL     1     -34.337  25.973   5.789  0.00  0.00    +0.284 C 
BRANCH  23  24
ATOM     24  C   UNL     1     -34.730  24.565   5.775  0.00  0.00    -0.044 C 
ATOM     25  C   UNL     1     -35.054  23.408   5.763  0.00  0.00    -0.086 C 
ATOM     26  C   UNL     1     -35.448  22.000   5.750  0.00  0.00    +0.090 C 
ENDBRANCH  23  24
ENDBRANCH  22  23
ENDBRANCH  21  22
ENDBRANCH  12  21
TORSDOF 6
ENDMDL
MODEL 2
REMARK VINA RESULT:      -5.8      3.545      7.261
REMARK  Name = 197690
REMARK  6 active torsions:
REMARK  status: ('A' for Active; 'I' for Inactive)
REMARK    1  A    between atoms: C_3  and  O_18
REMARK    2  A    between atoms: C_11  and  N_15
REMARK    3  A    between atoms: C_12  and  C_21
REMARK    4  A    between atoms: C_21  and  O_22
REMARK    5  A    between atoms: O_22  and  C_23
REMARK    6  A    between atoms: C_23  and  C_24
REMARK                            x       y       z     vdW  Elec       q    Type
REMARK                         _______ _______ _______ _____ _____    ______ ____
ROOT
ATOM      1  S   UNL     1     -31.794  28.181   2.170  0.00  0.00    -0.064 S 
ATOM      2  N   UNL     1     -33.616  26.244   2.176  0.00  0.00    -0.403 NA
ATOM      3  C   UNL     1     -30.317  30.568   5.174  0.00  0.00    +0.116 C 
ATOM      4  C   UNL     1     -32.005  28.265   4.734  0.00  0.00    -0.030 C 
ATOM      5  C   UNL     1     -30.472  29.518   6.285  0.00  0.00    +0.034 C 
ATOM      6  C   UNL     1     -31.772  28.710   6.148  0.00  0.00    +0.025 C 
ATOM      7  C   UNL     1     -30.314  29.935   3.772  0.00  0.00    +0.062 C 
ATOM      8  C   UNL     1     -31.345  28.849   3.669  0.00  0.00    +0.005 C 
ATOM      9  C   UNL     1     -32.919  27.244   4.301  0.00  0.00    +0.113 C 
ATOM     10  C   UNL     1     -32.889  27.107   2.916  0.00  0.00    +0.146 C 
ATOM     11  C   UNL     1     -33.804  26.394   4.998  0.00  0.00    +0.038 C 
ATOM     12  C   UNL     1     -34.576  25.487   4.278  0.00  0.00    +0.110 C 
ATOM     13  C   UNL     1     -34.440  25.461   2.902  0.00  0.00    +0.117 C 
ATOM     14  C   UNL     1     -35.255  24.498   2.095  0.00  0.00    +0.067 C 
ENDROOT
BRANCH  11  15
ATOM     15  N   UNL     1     -33.935  26.448   6.403  0.00  0.00    -0.359 N 
ATOM     16  H   UNL     1     -34.456  27.172   6.821  0.00  0.00    +0.142 HD
ATOM     17  H   UNL     1     -33.504  25.764   6.964  0.00  0.00    +0.142 HD
ENDBRANCH  11  15
BRANCH   3  18
ATOM     18  O   UNL     1     -31.383  31.514   5.248  0.00  0.00    -0.384 OA
ATOM     19  H   UNL     1     -31.453  31.989   4.405  0.00  0.00    +0.210 HD
ENDBRANCH   3  18
BRANCH  12  21
ATOM     20  O   UNL     1     -36.734  24.713   4.930  0.00  0.00    -0.245 OA
ATOM     21  C   UNL     1     -35.506  24.588   4.953  0.00  0.00    +0.345 C 
BRANCH  21  22
ATOM     22  O   UNL     1     -34.843  23.592   5.614  0.00  0.00    -0.431 OA
BRANCH  22  23
ATOM     23  C   UNL     1     -35.511  22.329   5.706  0.00  0.00    +0.284 C 
BRANCH  23  24
ATOM     24  C   UNL     1     -35.393  21.615   4.435  0.00  0.00    -0.044 C 
ATOM     25  C   UNL     1     -35.294  21.028   3.392  0.00  0.00    -0.086 C 
ATOM     26  C   UNL     1     -35.173  20.314   2.121  0.00  0.00    +0.090 C 
ENDBRANCH  23  24
ENDBRANCH  22  23
ENDBRANCH  21  22
ENDBRANCH  12  21
TORSDOF 6
ENDMDL
MODEL 3
REMARK VINA RESULT:      -5.7      3.915      6.294
REMARK  Name = 197690
REMARK  6 active torsions:
REMARK  status: ('A' for Active; 'I' for Inactive)
REMARK    1  A    between atoms: C_3  and  O_18
REMARK    2  A    between atoms: C_11  and  N_15
REMARK    3  A    between atoms: C_12  and  C_21
REMARK    4  A    between atoms: C_21  and  O_22
REMARK    5  A    between atoms: O_22  and  C_23
REMARK    6  A    between atoms: C_23  and  C_24
REMARK                            x       y       z     vdW  Elec       q    Type
REMARK                         _______ _______ _______ _____ _____    ______ ____
ROOT
ATOM      1  S   UNL     1     -39.312  21.530   1.210  0.00  0.00    -0.064 S 
ATOM      2  N   UNL     1     -41.119  23.474   1.044  0.00  0.00    -0.403 NA
ATOM      3  C   UNL     1     -35.525  21.433   2.807  0.00  0.00    +0.116 C 
ATOM      4  C   UNL     1     -37.865  23.119   2.626  0.00  0.00    -0.030 C 
ATOM      5  C   UNL     1     -35.807  22.461   3.914  0.00  0.00    +0.034 C 
ATOM      6  C   UNL     1     -36.697  23.616   3.426  0.00  0.00    +0.025 C 
ATOM      7  C   UNL     1     -36.817  20.809   2.251  0.00  0.00    +0.062 C 
ATOM      8  C   UNL     1     -37.889  21.846   2.086  0.00  0.00    +0.005 C 
ATOM      9  C   UNL     1     -39.050  23.861   2.297  0.00  0.00    +0.113 C 
ATOM     10  C   UNL     1     -39.918  23.093   1.526  0.00  0.00    +0.146 C 
ATOM     11  C   UNL     1     -39.473  25.172   2.601  0.00  0.00    +0.038 C 
ATOM     12  C   UNL     1     -40.705  25.611   2.125  0.00  0.00    +0.110 C 
ATOM     13  C   UNL     1     -41.465  24.736   1.371  0.00  0.00    +0.117 C 
ATOM     14  C   UNL     1     -42.795  25.175   0.843  0.00  0.00    +0.067 C 
ENDROOT
BRANCH  11  15
ATOM     15  N   UNL     1     -38.674  26.053   3.364  0.00  0.00    -0.359 N 
ATOM     16  H   UNL     1     -38.075  26.690   2.911  0.00  0.00    +0.142 HD
ATOM     17  H   UNL     1     -38.716  26.029   4.347  0.00  0.00    +0.142 HD
ENDBRANCH  11  15
BRANCH   3  18
ATOM     18  O   UNL     1     -34.818  22.055   1.735  0.00  0.00    -0.384 OA
ATOM     19  H   UNL     1     -35.100  21.666   0.893  0.00  0.00    +0.210 HD
ENDBRANCH   3  18
BRANCH  12  21
ATOM     20  O   UNL     1     -41.287  27.856   1.569  0.00  0.00    -0.245 OA
ATOM     21  C   UNL     1     -41.185  26.959   2.413  0.00  0.00    +0.345 C 
BRANCH  21  22
ATOM     22  O   UNL     1     -41.507  27.102   3.733  0.00  0.00    -0.431 OA
BRANCH  22  23
ATOM     23  C   UNL     1     -42.685  27.861   4.029  0.00  0.00    +0.284 C 
BRANCH  23  24
ATOM     24  C   UNL     1     -43.865  27.005   3.909  0.00  0.00    -0.044 C 
ATOM     25  C   UNL     1     -44.834  26.303   3.810  0.00  0.00    -0.086 C 
ATOM     26  C   UNL     1     -46.015  25.448   3.689  0.00  0.00    +0.090 C 
ENDBRANCH  23  24
ENDBRANCH  22  23
ENDBRANCH  21  22
ENDBRANCH  12  21
TORSDOF 6
ENDMDL
MODEL 4
REMARK VINA RESULT:      -5.6      3.436      6.573
REMARK  Name = 197690
REMARK  6 active torsions:
REMARK  status: ('A' for Active; 'I' for Inactive)
REMARK    1  A    between atoms: C_3  and  O_18
REMARK    2  A    between atoms: C_11  and  N_15
REMARK    3  A    between atoms: C_12  and  C_21
REMARK    4  A    between atoms: C_21  and  O_22
REMARK    5  A    between atoms: O_22  and  C_23
REMARK    6  A    between atoms: C_23  and  C_24
REMARK                            x       y       z     vdW  Elec       q    Type
REMARK                         _______ _______ _______ _____ _____    ______ ____
ROOT
ATOM      1  S   UNL     1     -32.325  28.128   4.508  0.00  0.00    -0.064 S 
ATOM      2  N   UNL     1     -33.528  25.778   4.826  0.00  0.00    -0.403 NA
ATOM      3  C   UNL     1     -33.257  31.398   2.197  0.00  0.00    +0.116 C 
ATOM      4  C   UNL     1     -34.324  28.853   3.057  0.00  0.00    -0.030 C 
ATOM      5  C   UNL     1     -34.779  31.198   2.268  0.00  0.00    +0.034 C 
ATOM      6  C   UNL     1     -35.179  29.716   2.178  0.00  0.00    +0.025 C 
ATOM      7  C   UNL     1     -32.521  30.657   3.327  0.00  0.00    +0.062 C 
ATOM      8  C   UNL     1     -33.111  29.295   3.552  0.00  0.00    +0.005 C 
ATOM      9  C   UNL     1     -34.609  27.506   3.468  0.00  0.00    +0.113 C 
ATOM     10  C   UNL     1     -33.587  27.005   4.268  0.00  0.00    +0.146 C 
ATOM     11  C   UNL     1     -35.692  26.639   3.214  0.00  0.00    +0.038 C 
ATOM     12  C   UNL     1     -35.677  25.361   3.768  0.00  0.00    +0.110 C 
ATOM     13  C   UNL     1     -34.594  24.999   4.546  0.00  0.00    +0.117 C 
ATOM     14  C   UNL     1     -34.545  23.633   5.158  0.00  0.00    +0.067 C 
ENDROOT
BRANCH  11  15
ATOM     15  N   UNL     1     -36.783  27.027   2.405  0.00  0.00    -0.359 N 
ATOM     16  H   UNL     1     -37.693  26.721   2.626  0.00  0.00    +0.142 HD
ATOM     17  H   UNL     1     -36.634  27.602   1.621  0.00  0.00    +0.142 HD
ENDBRANCH  11  15
BRANCH   3  18
ATOM     18  O   UNL     1     -32.764  30.928   0.943  0.00  0.00    -0.384 OA
ATOM     19  H   UNL     1     -33.454  30.412   0.497  0.00  0.00    +0.210 HD
ENDBRANCH   3  18
BRANCH  12  21
ATOM     20  O   UNL     1     -37.833  24.426   4.168  0.00  0.00    -0.245 OA
ATOM     21  C   UNL     1     -36.774  24.427   3.533  0.00  0.00    +0.345 C 
BRANCH  21  22
ATOM     22  O   UNL     1     -36.478  23.556   2.523  0.00  0.00    -0.431 OA
BRANCH  22  23
ATOM     23  C   UNL     1     -36.965  22.217   2.666  0.00  0.00    +0.284 C 
BRANCH  23  24
ATOM     24  C   UNL     1     -35.917  21.269   2.291  0.00  0.00    -0.044 C 
ATOM     25  C   UNL     1     -35.058  20.489   1.983  0.00  0.00    -0.086 C 
ATOM     26  C   UNL     1     -34.011  19.539   1.609  0.00  0.00    +0.090 C 
ENDBRANCH  23  24
ENDBRANCH  22  23
ENDBRANCH  21  22
ENDBRANCH  12  21
TORSDOF 6
ENDMDL
MODEL 5
REMARK VINA RESULT:      -5.6      3.929      5.127
REMARK  Name = 197690
REMARK  6 active torsions:
REMARK  status: ('A' for Active; 'I' for Inactive)
REMARK    1  A    between atoms: C_3  and  O_18
REMARK    2  A    between atoms: C_11  and  N_15
REMARK    3  A    between atoms: C_12  and  C_21
REMARK    4  A    between atoms: C_21  and  O_22
REMARK    5  A    between atoms: O_22  and  C_23
REMARK    6  A    between atoms: C_23  and  C_24
REMARK                            x       y       z     vdW  Elec       q    Type
REMARK                         _______ _______ _______ _____ _____    ______ ____
ROOT
ATOM      1  S   UNL     1     -33.155  22.185  -0.967  0.00  0.00    -0.064 S 
ATOM      2  N   UNL     1     -34.663  23.931   0.356  0.00  0.00    -0.403 NA
ATOM      3  C   UNL     1     -32.053  18.316  -0.122  0.00  0.00    +0.116 C 
ATOM      4  C   UNL     1     -33.797  20.427   0.800  0.00  0.00    -0.030 C 
ATOM      5  C   UNL     1     -33.341  17.959   0.636  0.00  0.00    +0.034 C 
ATOM      6  C   UNL     1     -33.836  19.114   1.523  0.00  0.00    +0.025 C 
ATOM      7  C   UNL     1     -32.235  19.543  -1.032  0.00  0.00    +0.062 C 
ATOM      8  C   UNL     1     -33.047  20.605  -0.348  0.00  0.00    +0.005 C 
ATOM      9  C   UNL     1     -34.470  21.635   1.189  0.00  0.00    +0.113 C 
ATOM     10  C   UNL     1     -34.196  22.666   0.295  0.00  0.00    +0.146 C 
ATOM     11  C   UNL     1     -35.322  21.950   2.270  0.00  0.00    +0.038 C 
ATOM     12  C   UNL     1     -35.828  23.242   2.375  0.00  0.00    +0.110 C 
ATOM     13  C   UNL     1     -35.471  24.166   1.410  0.00  0.00    +0.117 C 
ATOM     14  C   UNL     1     -35.997  25.565   1.493  0.00  0.00    +0.067 C 
ENDROOT
BRANCH  11  15
ATOM     15  N   UNL     1     -35.663  20.993   3.251  0.00  0.00    -0.359 N 
ATOM     16  H   UNL     1     -35.753  21.265   4.193  0.00  0.00    +0.142 HD
ATOM     17  H   UNL     1     -35.809  20.055   2.994  0.00  0.00    +0.142 HD
ENDBRANCH  11  15
BRANCH   3  18
ATOM     18  O   UNL     1     -31.002  18.584   0.805  0.00  0.00    -0.384 OA
ATOM     19  H   UNL     1     -30.605  17.748   1.095  0.00  0.00    +0.210 HD
ENDBRANCH   3  18
BRANCH  12  21
ATOM     20  O   UNL     1     -37.945  23.621   3.405  0.00  0.00    -0.245 OA
ATOM     21  C   UNL     1     -36.712  23.616   3.475  0.00  0.00    +0.345 C 
BRANCH  21  22
ATOM     22  O   UNL     1     -36.000  23.958   4.591  0.00  0.00    -0.431 OA
BRANCH  22  23
ATOM     23  C   UNL     1     -36.290  25.236   5.169  0.00  0.00    +0.284 C 
BRANCH  23  24
ATOM     24  C   UNL     1     -35.057  25.841   5.670  0.00  0.00    -0.044 C 
ATOM     25  C   UNL     1     -34.043  26.339   6.079  0.00  0.00    -0.086 C 
ATOM     26  C   UNL     1     -32.809  26.945   6.578  0.00  0.00    +0.090 C 
ENDBRANCH  23  24
ENDBRANCH  22  23
ENDBRANCH  21  22
ENDBRANCH  12  21
TORSDOF 6
ENDMDL
MODEL 6
REMARK VINA RESULT:      -5.6      3.690      6.410
REMARK  Name = 197690
REMARK  6 active torsions:
REMARK  status: ('A' for Active; 'I' for Inactive)
REMARK    1  A    between atoms: C_3  and  O_18
REMARK    2  A    between atoms: C_11  and  N_15
REMARK    3  A    between atoms: C_12  and  C_21
REMARK    4  A    between atoms: C_21  and  O_22
REMARK    5  A    between atoms: O_22  and  C_23
REMARK    6  A    between atoms: C_23  and  C_24
REMARK                            x       y       z     vdW  Elec       q    Type
REMARK                         _______ _______ _______ _____ _____    ______ ____
ROOT
ATOM      1  S   UNL     1     -34.297  25.345   1.463  0.00  0.00    -0.064 S 
ATOM      2  N   UNL     1     -34.517  23.182  -0.068  0.00  0.00    -0.403 NA
ATOM      3  C   UNL     1     -35.324  26.051   5.381  0.00  0.00    +0.116 C 
ATOM      4  C   UNL     1     -35.116  23.917   3.443  0.00  0.00    -0.030 C 
ATOM      5  C   UNL     1     -35.072  24.612   5.859  0.00  0.00    +0.034 C 
ATOM      6  C   UNL     1     -35.542  23.565   4.837  0.00  0.00    +0.025 C 
ATOM      7  C   UNL     1     -34.607  26.355   4.054  0.00  0.00    +0.062 C 
ATOM      8  C   UNL     1     -34.713  25.197   3.106  0.00  0.00    +0.005 C 
ATOM      9  C   UNL     1     -35.093  23.035   2.309  0.00  0.00    +0.113 C 
ATOM     10  C   UNL     1     -34.659  23.705   1.168  0.00  0.00    +0.146 C 
ATOM     11  C   UNL     1     -35.419  21.672   2.152  0.00  0.00    +0.038 C 
ATOM     12  C   UNL     1     -35.290  21.087   0.895  0.00  0.00    +0.110 C 
ATOM     13  C   UNL     1     -34.844  21.875  -0.150  0.00  0.00    +0.117 C 
ATOM     14  C   UNL     1     -34.692  21.280  -1.515  0.00  0.00    +0.067 C 
ENDROOT
BRANCH  11  15
ATOM     15  N   UNL     1     -35.885  20.889   3.232  0.00  0.00    -0.359 N 
ATOM     16  H   UNL     1     -36.829  20.611   3.266  0.00  0.00    +0.142 HD
ATOM     17  H   UNL     1     -35.267  20.623   3.949  0.00  0.00    +0.142 HD
ENDBRANCH  11  15
BRANCH   3  18
ATOM     18  O   UNL     1     -36.724  26.265   5.206  0.00  0.00    -0.384 OA
ATOM     19  H   UNL     1     -36.891  26.598   4.310  0.00  0.00    +0.210 HD
ENDBRANCH   3  18
BRANCH  12  21
ATOM     20  O   UNL     1     -36.752  19.208   0.782  0.00  0.00    -0.245 OA
ATOM     21  C   UNL     1     -35.616  19.681   0.682  0.00  0.00    +0.345 C 
BRANCH  21  22
ATOM     22  O   UNL     1     -34.503  18.955   0.360  0.00  0.00    -0.431 OA
BRANCH  22  23
ATOM     23  C   UNL     1     -33.465  18.901   1.345  0.00  0.00    +0.284 C 
BRANCH  23  24
ATOM     24  C   UNL     1     -32.170  19.144   0.709  0.00  0.00    -0.044 C 
ATOM     25  C   UNL     1     -31.107  19.342   0.186  0.00  0.00    -0.086 C 
ATOM     26  C   UNL     1     -29.813  19.582  -0.450  0.00  0.00    +0.090 C 
ENDBRANCH  23  24
ENDBRANCH  22  23
ENDBRANCH  21  22
ENDBRANCH  12  21
TORSDOF 6
ENDMDL
MODEL 7
REMARK VINA RESULT:      -5.5      3.063      4.281
REMARK  Name = 197690
REMARK  6 active torsions:
REMARK  status: ('A' for Active; 'I' for Inactive)
REMARK    1  A    between atoms: C_3  and  O_18
REMARK    2  A    between atoms: C_11  and  N_15
REMARK    3  A    between atoms: C_12  and  C_21
REMARK    4  A    between atoms: C_21  and  O_22
REMARK    5  A    between atoms: O_22  and  C_23
REMARK    6  A    between atoms: C_23  and  C_24
REMARK                            x       y       z     vdW  Elec       q    Type
REMARK                         _______ _______ _______ _____ _____    ______ ____
ROOT
ATOM      1  S   UNL     1     -39.453  24.367   2.509  0.00  0.00    -0.064 S 
ATOM      2  N   UNL     1     -37.386  23.989   4.139  0.00  0.00    -0.403 NA
ATOM      3  C   UNL     1     -40.299  27.333  -0.209  0.00  0.00    +0.116 C 
ATOM      4  C   UNL     1     -38.185  26.373   1.511  0.00  0.00    -0.030 C 
ATOM      5  C   UNL     1     -38.834  27.618  -0.576  0.00  0.00    +0.034 C 
ATOM      6  C   UNL     1     -37.905  27.567   0.648  0.00  0.00    +0.025 C 
ATOM      7  C   UNL     1     -40.477  25.950   0.442  0.00  0.00    +0.062 C 
ATOM      8  C   UNL     1     -39.369  25.665   1.413  0.00  0.00    +0.005 C 
ATOM      9  C   UNL     1     -37.326  25.837   2.531  0.00  0.00    +0.113 C 
ATOM     10  C   UNL     1     -37.914  24.734   3.144  0.00  0.00    +0.146 C 
ATOM     11  C   UNL     1     -36.050  26.213   3.001  0.00  0.00    +0.038 C 
ATOM     12  C   UNL     1     -35.465  25.475   4.026  0.00  0.00    +0.110 C 
ATOM     13  C   UNL     1     -36.165  24.400   4.541  0.00  0.00    +0.117 C 
ATOM     14  C   UNL     1     -35.566  23.585   5.645  0.00  0.00    +0.067 C 
ENDROOT
BRANCH  11  15
ATOM     15  N   UNL     1     -35.358  27.323   2.468  0.00  0.00    -0.359 N 
ATOM     16  H   UNL     1     -35.559  27.635   1.555  0.00  0.00    +0.142 HD
ATOM     17  H   UNL     1     -34.676  27.782   3.006  0.00  0.00    +0.142 HD
ENDBRANCH  11  15
BRANCH   3  18
ATOM     18  O   UNL     1     -40.776  28.330   0.695  0.00  0.00    -0.384 OA
ATOM     19  H   UNL     1     -41.314  28.975   0.210  0.00  0.00    +0.210 HD
ENDBRANCH   3  18
BRANCH  12  21
ATOM     20  O   UNL     1     -33.084  25.373   4.111  0.00  0.00    -0.245 OA
ATOM     21  C   UNL     1     -34.147  25.826   4.547  0.00  0.00    +0.345 C 
BRANCH  21  22
ATOM     22  O   UNL     1     -34.241  26.719   5.577  0.00  0.00    -0.431 OA
BRANCH  22  23
ATOM     23  C   UNL     1     -33.214  26.659   6.573  0.00  0.00    +0.284 C 
BRANCH  23  24
ATOM     24  C   UNL     1     -32.338  27.823   6.449  0.00  0.00    -0.044 C 
ATOM     25  C   UNL     1     -31.621  28.781   6.347  0.00  0.00    -0.086 C 
ATOM     26  C   UNL     1     -30.746  29.946   6.221  0.00  0.00    +0.090 C 
ENDBRANCH  23  24
ENDBRANCH  22  23
ENDBRANCH  21  22
ENDBRANCH  12  21
TORSDOF 6
ENDMDL
MODEL 8
REMARK VINA RESULT:      -5.5      3.690      6.893
REMARK  Name = 197690
REMARK  6 active torsions:
REMARK  status: ('A' for Active; 'I' for Inactive)
REMARK    1  A    between atoms: C_3  and  O_18
REMARK    2  A    between atoms: C_11  and  N_15
REMARK    3  A    between atoms: C_12  and  C_21
REMARK    4  A    between atoms: C_21  and  O_22
REMARK    5  A    between atoms: O_22  and  C_23
REMARK    6  A    between atoms: C_23  and  C_24
REMARK                            x       y       z     vdW  Elec       q    Type
REMARK                         _______ _______ _______ _____ _____    ______ ____
ROOT
ATOM      1  S   UNL     1     -35.784  27.283   1.666  0.00  0.00    -0.064 S 
ATOM      2  N   UNL     1     -38.298  27.342   0.801  0.00  0.00    -0.403 NA
ATOM      3  C   UNL     1     -34.056  25.536   4.962  0.00  0.00    +0.116 C 
ATOM      4  C   UNL     1     -36.551  25.658   3.509  0.00  0.00    -0.030 C 
ATOM      5  C   UNL     1     -35.031  24.349   5.026  0.00  0.00    +0.034 C 
ATOM      6  C   UNL     1     -36.477  24.763   4.710  0.00  0.00    +0.025 C 
ATOM      7  C   UNL     1     -34.047  26.206   3.577  0.00  0.00    +0.062 C 
ATOM      8  C   UNL     1     -35.438  26.318   3.023  0.00  0.00    +0.005 C 
ATOM      9  C   UNL     1     -37.729  25.967   2.747  0.00  0.00    +0.113 C 
ATOM     10  C   UNL     1     -37.432  26.846   1.710  0.00  0.00    +0.146 C 
ATOM     11  C   UNL     1     -39.075  25.558   2.859  0.00  0.00    +0.038 C 
ATOM     12  C   UNL     1     -40.006  26.044   1.945  0.00  0.00    +0.110 C 
ATOM     13  C   UNL     1     -39.567  26.912   0.962  0.00  0.00    +0.117 C 
ATOM     14  C   UNL     1     -40.540  27.454  -0.037  0.00  0.00    +0.067 C 
ENDROOT
BRANCH  11  15
ATOM     15  N   UNL     1     -39.503  24.679   3.879  0.00  0.00    -0.359 N 
ATOM     16  H   UNL     1     -40.463  24.496   3.998  0.00  0.00    +0.142 HD
ATOM     17  H   UNL     1     -38.843  24.253   4.470  0.00  0.00    +0.142 HD
ENDBRANCH  11  15
BRANCH   3  18
ATOM     18  O   UNL     1     -34.414  26.511   5.941  0.00  0.00    -0.384 OA
ATOM     19  H   UNL     1     -34.045  26.256   6.800  0.00  0.00    +0.210 HD
ENDBRANCH   3  18
BRANCH  12  21
ATOM     20  O   UNL     1     -41.895  24.688   1.416  0.00  0.00    -0.245 OA
ATOM     21  C   UNL     1     -41.409  25.650   2.020  0.00  0.00    +0.345 C 
BRANCH  21  22
ATOM     22  O   UNL     1     -42.116  26.482   2.843  0.00  0.00    -0.431 OA
BRANCH  22  23
ATOM     23  C   UNL     1     -43.501  26.667   2.531  0.00  0.00    +0.284 C 
BRANCH  23  24
ATOM     24  C   UNL     1     -44.290  26.645   3.762  0.00  0.00    -0.044 C 
ATOM     25  C   UNL     1     -44.939  26.627   4.773  0.00  0.00    -0.086 C 
ATOM     26  C   UNL     1     -45.727  26.607   6.004  0.00  0.00    +0.090 C 
ENDBRANCH  23  24
ENDBRANCH  22  23
ENDBRANCH  21  22
ENDBRANCH  12  21
TORSDOF 6
ENDMDL
MODEL 9
REMARK VINA RESULT:      -5.3      3.629      5.123
REMARK  Name = 197690
REMARK  6 active torsions:
REMARK  status: ('A' for Active; 'I' for Inactive)
REMARK    1  A    between atoms: C_3  and  O_18
REMARK    2  A    between atoms: C_11  and  N_15
REMARK    3  A    between atoms: C_12  and  C_21
REMARK    4  A    between atoms: C_21  and  O_22
REMARK    5  A    between atoms: O_22  and  C_23
REMARK    6  A    between atoms: C_23  and  C_24
REMARK                            x       y       z     vdW  Elec       q    Type
REMARK                         _______ _______ _______ _____ _____    ______ ____
ROOT
ATOM      1  S   UNL     1     -34.450  24.361   1.913  0.00  0.00    -0.064 S 
ATOM      2  N   UNL     1     -33.165  26.689   1.925  0.00  0.00    -0.403 NA
ATOM      3  C   UNL     1     -35.684  21.893   4.960  0.00  0.00    +0.116 C 
ATOM      4  C   UNL     1     -34.558  24.510   4.481  0.00  0.00    -0.030 C 
ATOM      5  C   UNL     1     -35.932  23.022   5.972  0.00  0.00    +0.034 C 
ATOM      6  C   UNL     1     -34.858  24.120   5.898  0.00  0.00    +0.025 C 
ATOM      7  C   UNL     1     -35.658  22.407   3.510  0.00  0.00    +0.062 C 
ATOM      8  C   UNL     1     -34.914  23.707   3.413  0.00  0.00    +0.005 C 
ATOM      9  C   UNL     1     -33.869  25.696   4.050  0.00  0.00    +0.113 C 
ATOM     10  C   UNL     1     -33.752  25.725   2.664  0.00  0.00    +0.146 C 
ATOM     11  C   UNL     1     -33.313  26.786   4.752  0.00  0.00    +0.038 C 
ATOM     12  C   UNL     1     -32.696  27.806   4.033  0.00  0.00    +0.110 C 
ATOM     13  C   UNL     1     -32.655  27.703   2.655  0.00  0.00    +0.117 C 
ATOM     14  C   UNL     1     -31.999  28.782   1.850  0.00  0.00    +0.067 C 
ENDROOT
BRANCH  11  15
ATOM     15  N   UNL     1     -33.356  26.864   6.161  0.00  0.00    -0.359 N 
ATOM     16  H   UNL     1     -34.191  27.124   6.614  0.00  0.00    +0.142 HD
ATOM     17  H   UNL     1     -32.552  26.659   6.690  0.00  0.00    +0.142 HD
ENDBRANCH  11  15
BRANCH   3  18
ATOM     18  O   UNL     1     -34.440  21.252   5.242  0.00  0.00    -0.384 OA
ATOM     19  H   UNL     1     -34.350  20.462   4.688  0.00  0.00    +0.210 HD
ENDBRANCH   3  18
BRANCH  12  21
ATOM     20  O   UNL     1     -32.729  29.973   5.026  0.00  0.00    -0.245 OA
ATOM     21  C   UNL     1     -32.105  28.954   4.713  0.00  0.00    +0.345 C 
BRANCH  21  22
ATOM     22  O   UNL     1     -30.775  28.757   4.959  0.00  0.00    -0.431 OA
BRANCH  22  23
ATOM     23  C   UNL     1     -30.330  28.986   6.301  0.00  0.00    +0.284 C 
BRANCH  23  24
ATOM     24  C   UNL     1     -29.235  28.070   6.619  0.00  0.00    -0.044 C 
ATOM     25  C   UNL     1     -28.337  27.317   6.882  0.00  0.00    -0.086 C 
ATOM     26  C   UNL     1     -27.243  26.401   7.202  0.00  0.00    +0.090 C 
ENDBRANCH  23  24
ENDBRANCH  22  23
ENDBRANCH  21  22
ENDBRANCH  12  21
TORSDOF 6
ENDMDL
