MODEL 1
REMARK VINA RESULT:      -6.0      0.000      0.000
REMARK  Name = 20279
REMARK  4 active torsions:
REMARK  status: ('A' for Active; 'I' for Inactive)
REMARK    1  A    between atoms: N_2  and  C1*_12
REMARK    2  A    between atoms: C3*_13  and  O3*_16
REMARK    3  A    between atoms: C4*_15  and  C5*_18
REMARK    4  A    between atoms: C5*_18  and  O5*_19
REMARK                            x       y       z     vdW  Elec       q    Type
REMARK                         _______ _______ _______ _____ _____    ______ ____
ROOT
ATOM      1 CL   UNL     1     -35.194  21.600   5.444  0.00  0.00    +0.024 Cl
ATOM      2  N   UNL     1     -38.046  23.922   2.026  0.00  0.00    -0.238 N 
ATOM      3  N   UNL     1     -37.973  25.943   2.972  0.00  0.00    -0.240 NA
ATOM      4  N   UNL     1     -36.683  22.677   3.605  0.00  0.00    -0.314 NA
ATOM      5  N   UNL     1     -35.890  24.108   5.416  0.00  0.00    -0.314 NA
ATOM      6  C   UNL     1     -37.279  23.790   3.150  0.00  0.00    +0.221 C 
ATOM      7  C   UNL     1     -38.438  25.235   1.964  0.00  0.00    +0.224 C 
ATOM      8  C   UNL     1     -37.247  25.052   3.721  0.00  0.00    +0.167 C 
ATOM      9  C   UNL     1     -36.518  25.191   4.898  0.00  0.00    +0.212 C 
ATOM     10  C   UNL     1     -36.009  22.936   4.747  0.00  0.00    +0.207 C 
ATOM     11  N   UNL     1     -36.432  26.434   5.547  0.00  0.00    -0.331 N 
ATOM     12  H   UNL     1     -35.913  26.521   6.380  0.00  0.00    +0.145 HD
ATOM     13  H   UNL     1     -36.890  27.220   5.168  0.00  0.00    +0.145 HD
ENDROOT
BRANCH   2  15
ATOM     14  O4* UNL     1     -38.370  21.591   1.716  0.00  0.00    -0.335 OA
ATOM     15  C1* UNL     1     -38.387  22.876   1.068  0.00  0.00    +0.198 C 
ATOM     16  C3* UNL     1     -37.605  21.334  -0.526  0.00  0.00    +0.144 C 
ATOM     17  C2* UNL     1     -37.438  22.780  -0.118  0.00  0.00    +0.083 C 
ATOM     18  C4* UNL     1     -37.817  20.619   0.804  0.00  0.00    +0.173 C 
BRANCH  16  19
ATOM     19  O3* UNL     1     -38.785  21.224  -1.321  0.00  0.00    -0.382 OA
ATOM     20  H3* UNL     1     -38.552  21.316  -2.258  0.00  0.00    +0.210 HD
ENDBRANCH  16  19
BRANCH  18  21
ATOM     21  C5* UNL     1     -36.518  20.096   1.403  0.00  0.00    +0.169 C 
BRANCH  21  22
ATOM     22  O5* UNL     1     -36.733  19.814   2.775  0.00  0.00    -0.379 OA
ATOM     23  H5* UNL     1     -37.518  19.252   2.869  0.00  0.00    +0.211 HD
ENDBRANCH  21  22
ENDBRANCH  18  21
ENDBRANCH   2  15
TORSDOF 4
ENDMDL
MODEL 2
REMARK VINA RESULT:      -5.9      1.530      2.405
REMARK  Name = 20279
REMARK  4 active torsions:
REMARK  status: ('A' for Active; 'I' for Inactive)
REMARK    1  A    between atoms: N_2  and  C1*_12
REMARK    2  A    between atoms: C3*_13  and  O3*_16
REMARK    3  A    between atoms: C4*_15  and  C5*_18
REMARK    4  A    between atoms: C5*_18  and  O5*_19
REMARK                            x       y       z     vdW  Elec       q    Type
REMARK                         _______ _______ _______ _____ _____    ______ ____
ROOT
ATOM      1 CL   UNL     1     -35.047  21.812   5.880  0.00  0.00    +0.024 Cl
ATOM      2  N   UNL     1     -37.868  23.749   2.205  0.00  0.00    -0.238 N 
ATOM      3  N   UNL     1     -37.787  25.863   2.918  0.00  0.00    -0.240 NA
ATOM      4  N   UNL     1     -36.521  22.683   3.923  0.00  0.00    -0.314 NA
ATOM      5  N   UNL     1     -35.727  24.304   5.565  0.00  0.00    -0.314 NA
ATOM      6  C   UNL     1     -37.107  23.740   3.342  0.00  0.00    +0.221 C 
ATOM      7  C   UNL     1     -38.251  25.049   1.994  0.00  0.00    +0.224 C 
ATOM      8  C   UNL     1     -37.070  25.058   3.767  0.00  0.00    +0.167 C 
ATOM      9  C   UNL     1     -36.346  25.325   4.925  0.00  0.00    +0.212 C 
ATOM     10  C   UNL     1     -35.851  23.065   5.032  0.00  0.00    +0.207 C 
ATOM     11  N   UNL     1     -36.255  26.634   5.430  0.00  0.00    -0.331 N 
ATOM     12  H   UNL     1     -35.740  26.810   6.250  0.00  0.00    +0.145 HD
ATOM     13  H   UNL     1     -36.706  27.374   4.962  0.00  0.00    +0.145 HD
ENDROOT
BRANCH   2  15
ATOM     14  O4* UNL     1     -38.587  23.050   0.055  0.00  0.00    -0.335 OA
ATOM     15  C1* UNL     1     -38.211  22.604   1.370  0.00  0.00    +0.198 C 
ATOM     16  C3* UNL     1     -39.895  21.142   0.626  0.00  0.00    +0.144 C 
ATOM     17  C2* UNL     1     -39.368  21.768   1.896  0.00  0.00    +0.083 C 
ATOM     18  C4* UNL     1     -39.681  22.234  -0.417  0.00  0.00    +0.173 C 
BRANCH  16  19
ATOM     19  O3* UNL     1     -39.082  20.013   0.309  0.00  0.00    -0.382 OA
ATOM     20  H3* UNL     1     -39.616  19.205   0.366  0.00  0.00    +0.210 HD
ENDBRANCH  16  19
BRANCH  18  21
ATOM     21  C5* UNL     1     -40.899  23.132  -0.586  0.00  0.00    +0.169 C 
BRANCH  21  22
ATOM     22  O5* UNL     1     -42.058  22.389  -0.249  0.00  0.00    -0.379 OA
ATOM     23  H5* UNL     1     -42.836  22.806  -0.652  0.00  0.00    +0.211 HD
ENDBRANCH  21  22
ENDBRANCH  18  21
ENDBRANCH   2  15
TORSDOF 4
ENDMDL
MODEL 3
REMARK VINA RESULT:      -5.8      3.620      6.042
REMARK  Name = 20279
REMARK  4 active torsions:
REMARK  status: ('A' for Active; 'I' for Inactive)
REMARK    1  A    between atoms: N_2  and  C1*_12
REMARK    2  A    between atoms: C3*_13  and  O3*_16
REMARK    3  A    between atoms: C4*_15  and  C5*_18
REMARK    4  A    between atoms: C5*_18  and  O5*_19
REMARK                            x       y       z     vdW  Elec       q    Type
REMARK                         _______ _______ _______ _____ _____    ______ ____
ROOT
ATOM      1 CL   UNL     1     -39.581  22.684  -0.365  0.00  0.00    +0.024 Cl
ATOM      2  N   UNL     1     -36.282  22.837   3.418  0.00  0.00    -0.238 N 
ATOM      3  N   UNL     1     -35.554  20.738   3.197  0.00  0.00    -0.240 NA
ATOM      4  N   UNL     1     -37.913  22.899   1.618  0.00  0.00    -0.314 NA
ATOM      5  N   UNL     1     -38.020  20.764   0.441  0.00  0.00    -0.314 NA
ATOM      6  C   UNL     1     -36.978  22.299   2.371  0.00  0.00    +0.221 C 
ATOM      7  C   UNL     1     -35.439  21.858   3.879  0.00  0.00    +0.224 C 
ATOM      8  C   UNL     1     -36.512  20.999   2.252  0.00  0.00    +0.167 C 
ATOM      9  C   UNL     1     -37.070  20.222   1.241  0.00  0.00    +0.212 C 
ATOM     10  C   UNL     1     -38.377  22.049   0.676  0.00  0.00    +0.207 C 
ATOM     11  N   UNL     1     -36.658  18.893   1.047  0.00  0.00    -0.331 N 
ATOM     12  H   UNL     1     -37.060  18.352   0.329  0.00  0.00    +0.145 HD
ATOM     13  H   UNL     1     -35.967  18.501   1.630  0.00  0.00    +0.145 HD
ENDROOT
BRANCH   2  15
ATOM     14  O4* UNL     1     -35.749  25.123   3.071  0.00  0.00    -0.335 OA
ATOM     15  C1* UNL     1     -36.403  24.190   3.949  0.00  0.00    +0.198 C 
ATOM     16  C3* UNL     1     -35.474  25.858   5.321  0.00  0.00    +0.144 C 
ATOM     17  C2* UNL     1     -35.786  24.379   5.327  0.00  0.00    +0.083 C 
ATOM     18  C4* UNL     1     -35.088  26.127   3.870  0.00  0.00    +0.173 C 
BRANCH  16  19
ATOM     19  O3* UNL     1     -36.667  26.572   5.638  0.00  0.00    -0.382 OA
ATOM     20  H3* UNL     1     -36.648  27.440   5.206  0.00  0.00    +0.210 HD
ENDBRANCH  16  19
BRANCH  18  21
ATOM     21  C5* UNL     1     -33.589  26.009   3.629  0.00  0.00    +0.169 C 
BRANCH  21  22
ATOM     22  O5* UNL     1     -32.907  26.490   4.775  0.00  0.00    -0.379 OA
ATOM     23  H5* UNL     1     -32.935  25.816   5.472  0.00  0.00    +0.211 HD
ENDBRANCH  21  22
ENDBRANCH  18  21
ENDBRANCH   2  15
TORSDOF 4
ENDMDL
MODEL 4
REMARK VINA RESULT:      -5.8      5.037      6.821
REMARK  Name = 20279
REMARK  4 active torsions:
REMARK  status: ('A' for Active; 'I' for Inactive)
REMARK    1  A    between atoms: N_2  and  C1*_12
REMARK    2  A    between atoms: C3*_13  and  O3*_16
REMARK    3  A    between atoms: C4*_15  and  C5*_18
REMARK    4  A    between atoms: C5*_18  and  O5*_19
REMARK                            x       y       z     vdW  Elec       q    Type
REMARK                         _______ _______ _______ _____ _____    ______ ____
ROOT
ATOM      1 CL   UNL     1     -34.813  22.115   6.048  0.00  0.00    +0.024 Cl
ATOM      2  N   UNL     1     -34.412  26.566   3.758  0.00  0.00    -0.238 N 
ATOM      3  N   UNL     1     -36.474  26.593   2.903  0.00  0.00    -0.240 NA
ATOM      4  N   UNL     1     -34.470  24.428   4.910  0.00  0.00    -0.314 NA
ATOM      5  N   UNL     1     -36.631  23.329   4.636  0.00  0.00    -0.314 NA
ATOM      6  C   UNL     1     -35.006  25.400   4.157  0.00  0.00    +0.221 C 
ATOM      7  C   UNL     1     -35.337  27.247   3.007  0.00  0.00    +0.224 C 
ATOM      8  C   UNL     1     -36.282  25.437   3.617  0.00  0.00    +0.167 C 
ATOM      9  C   UNL     1     -37.107  24.348   3.881  0.00  0.00    +0.212 C 
ATOM     10  C   UNL     1     -35.362  23.430   5.097  0.00  0.00    +0.207 C 
ATOM     11  N   UNL     1     -38.416  24.300   3.373  0.00  0.00    -0.331 N 
ATOM     12  H   UNL     1     -38.991  23.524   3.566  0.00  0.00    +0.145 HD
ATOM     13  H   UNL     1     -38.759  25.042   2.824  0.00  0.00    +0.145 HD
ENDROOT
BRANCH   2  15
ATOM     14  O4* UNL     1     -33.102  28.247   4.801  0.00  0.00    -0.335 OA
ATOM     15  C1* UNL     1     -33.058  27.011   4.066  0.00  0.00    +0.198 C 
ATOM     16  C3* UNL     1     -31.191  28.264   3.377  0.00  0.00    +0.144 C 
ATOM     17  C2* UNL     1     -32.187  27.260   2.843  0.00  0.00    +0.083 C 
ATOM     18  C4* UNL     1     -32.020  29.092   4.353  0.00  0.00    +0.173 C 
BRANCH  16  19
ATOM     19  O3* UNL     1     -30.177  27.558   4.090  0.00  0.00    -0.382 OA
ATOM     20  H3* UNL     1     -30.566  27.142   4.875  0.00  0.00    +0.210 HD
ENDBRANCH  16  19
BRANCH  18  21
ATOM     21  C5* UNL     1     -32.626  30.330   3.706  0.00  0.00    +0.169 C 
BRANCH  21  22
ATOM     22  O5* UNL     1     -33.990  30.415   4.080  0.00  0.00    -0.379 OA
ATOM     23  H5* UNL     1     -34.527  29.897   3.461  0.00  0.00    +0.211 HD
ENDBRANCH  21  22
ENDBRANCH  18  21
ENDBRANCH   2  15
TORSDOF 4
ENDMDL
MODEL 5
REMARK VINA RESULT:      -5.7      3.335      5.815
REMARK  Name = 20279
REMARK  4 active torsions:
REMARK  status: ('A' for Active; 'I' for Inactive)
REMARK    1  A    between atoms: N_2  and  C1*_12
REMARK    2  A    between atoms: C3*_13  and  O3*_16
REMARK    3  A    between atoms: C4*_15  and  C5*_18
REMARK    4  A    between atoms: C5*_18  and  O5*_19
REMARK                            x       y       z     vdW  Elec       q    Type
REMARK                         _______ _______ _______ _____ _____    ______ ____
ROOT
ATOM      1 CL   UNL     1     -32.826  18.437   1.133  0.00  0.00    +0.024 Cl
ATOM      2  N   UNL     1     -36.270  21.785   2.597  0.00  0.00    -0.238 N 
ATOM      3  N   UNL     1     -37.946  20.971   1.366  0.00  0.00    -0.240 NA
ATOM      4  N   UNL     1     -34.509  20.232   1.973  0.00  0.00    -0.314 NA
ATOM      5  N   UNL     1     -35.311  18.574   0.373  0.00  0.00    -0.314 NA
ATOM      6  C   UNL     1     -35.761  20.712   1.919  0.00  0.00    +0.221 C 
ATOM      7  C   UNL     1     -37.587  21.898   2.230  0.00  0.00    +0.224 C 
ATOM      8  C   UNL     1     -36.814  20.223   1.163  0.00  0.00    +0.167 C 
ATOM      9  C   UNL     1     -36.555  19.112   0.368  0.00  0.00    +0.212 C 
ATOM     10  C   UNL     1     -34.379  19.158   1.163  0.00  0.00    +0.207 C 
ATOM     11  N   UNL     1     -37.564  18.550  -0.433  0.00  0.00    -0.331 N 
ATOM     12  H   UNL     1     -37.368  17.763  -0.992  0.00  0.00    +0.145 HD
ATOM     13  H   UNL     1     -38.467  18.943  -0.434  0.00  0.00    +0.145 HD
ENDROOT
BRANCH   2  15
ATOM     14  O4* UNL     1     -36.489  23.233   4.464  0.00  0.00    -0.335 OA
ATOM     15  C1* UNL     1     -35.560  22.648   3.534  0.00  0.00    +0.198 C 
ATOM     16  C3* UNL     1     -34.763  24.810   4.005  0.00  0.00    +0.144 C 
ATOM     17  C2* UNL     1     -34.813  23.801   2.880  0.00  0.00    +0.083 C 
ATOM     18  C4* UNL     1     -36.091  24.595   4.724  0.00  0.00    +0.173 C 
BRANCH  16  19
ATOM     19  O3* UNL     1     -33.688  24.462   4.875  0.00  0.00    -0.382 OA
ATOM     20  H3* UNL     1     -33.966  24.584   5.796  0.00  0.00    +0.210 HD
ENDBRANCH  16  19
BRANCH  18  21
ATOM     21  C5* UNL     1     -37.192  25.514   4.210  0.00  0.00    +0.169 C 
BRANCH  21  22
ATOM     22  O5* UNL     1     -38.397  24.773   4.125  0.00  0.00    -0.379 OA
ATOM     23  H5* UNL     1     -38.727  24.591   5.018  0.00  0.00    +0.211 HD
ENDBRANCH  21  22
ENDBRANCH  18  21
ENDBRANCH   2  15
TORSDOF 4
ENDMDL
MODEL 6
REMARK VINA RESULT:      -5.7      4.035      5.495
REMARK  Name = 20279
REMARK  4 active torsions:
REMARK  status: ('A' for Active; 'I' for Inactive)
REMARK    1  A    between atoms: N_2  and  C1*_12
REMARK    2  A    between atoms: C3*_13  and  O3*_16
REMARK    3  A    between atoms: C4*_15  and  C5*_18
REMARK    4  A    between atoms: C5*_18  and  O5*_19
REMARK                            x       y       z     vdW  Elec       q    Type
REMARK                         _______ _______ _______ _____ _____    ______ ____
ROOT
ATOM      1 CL   UNL     1     -34.882  28.904   0.581  0.00  0.00    +0.024 Cl
ATOM      2  N   UNL     1     -34.603  26.015   4.678  0.00  0.00    -0.238 N 
ATOM      3  N   UNL     1     -32.951  27.145   5.667  0.00  0.00    -0.240 NA
ATOM      4  N   UNL     1     -34.843  27.327   2.648  0.00  0.00    -0.314 NA
ATOM      5  N   UNL     1     -33.263  29.186   2.599  0.00  0.00    -0.314 NA
ATOM      6  C   UNL     1     -34.284  27.042   3.834  0.00  0.00    +0.221 C 
ATOM      7  C   UNL     1     -33.774  26.121   5.765  0.00  0.00    +0.224 C 
ATOM      8  C   UNL     1     -33.260  27.729   4.465  0.00  0.00    +0.167 C 
ATOM      9  C   UNL     1     -32.746  28.840   3.803  0.00  0.00    +0.212 C 
ATOM     10  C   UNL     1     -34.264  28.421   2.104  0.00  0.00    +0.207 C 
ATOM     11  N   UNL     1     -31.705  29.596   4.368  0.00  0.00    -0.331 N 
ATOM     12  H   UNL     1     -31.349  30.380   3.889  0.00  0.00    +0.145 HD
ATOM     13  H   UNL     1     -31.331  29.341   5.243  0.00  0.00    +0.145 HD
ENDROOT
BRANCH   2  15
ATOM     14  O4* UNL     1     -35.823  24.246   5.685  0.00  0.00    -0.335 OA
ATOM     15  C1* UNL     1     -35.627  24.997   4.473  0.00  0.00    +0.198 C 
ATOM     16  C3* UNL     1     -36.109  22.789   3.821  0.00  0.00    +0.144 C 
ATOM     17  C2* UNL     1     -35.299  23.988   3.383  0.00  0.00    +0.083 C 
ATOM     18  C4* UNL     1     -36.040  22.861   5.343  0.00  0.00    +0.173 C 
BRANCH  16  19
ATOM     19  O3* UNL     1     -37.457  22.976   3.394  0.00  0.00    -0.382 OA
ATOM     20  H3* UNL     1     -37.868  23.679   3.921  0.00  0.00    +0.210 HD
ENDBRANCH  16  19
BRANCH  18  21
ATOM     21  C5* UNL     1     -34.889  22.047   5.918  0.00  0.00    +0.169 C 
BRANCH  21  22
ATOM     22  O5* UNL     1     -35.222  20.672   5.839  0.00  0.00    -0.379 OA
ATOM     23  H5* UNL     1     -35.221  20.394   4.910  0.00  0.00    +0.211 HD
ENDBRANCH  21  22
ENDBRANCH  18  21
ENDBRANCH   2  15
TORSDOF 4
ENDMDL
MODEL 7
REMARK VINA RESULT:      -5.5      2.819      4.313
REMARK  Name = 20279
REMARK  4 active torsions:
REMARK  status: ('A' for Active; 'I' for Inactive)
REMARK    1  A    between atoms: N_2  and  C1*_12
REMARK    2  A    between atoms: C3*_13  and  O3*_16
REMARK    3  A    between atoms: C4*_15  and  C5*_18
REMARK    4  A    between atoms: C5*_18  and  O5*_19
REMARK                            x       y       z     vdW  Elec       q    Type
REMARK                         _______ _______ _______ _____ _____    ______ ____
ROOT
ATOM      1 CL   UNL     1     -35.673  19.827   1.520  0.00  0.00    +0.024 Cl
ATOM      2  N   UNL     1     -37.042  24.305   3.332  0.00  0.00    -0.238 N 
ATOM      3  N   UNL     1     -36.167  24.028   5.367  0.00  0.00    -0.240 NA
ATOM      4  N   UNL     1     -36.443  22.174   2.331  0.00  0.00    -0.314 NA
ATOM      5  N   UNL     1     -35.223  20.765   3.906  0.00  0.00    -0.314 NA
ATOM      6  C   UNL     1     -36.475  23.061   3.338  0.00  0.00    +0.221 C 
ATOM      7  C   UNL     1     -36.829  24.846   4.574  0.00  0.00    +0.224 C 
ATOM      8  C   UNL     1     -35.939  22.909   4.606  0.00  0.00    +0.167 C 
ATOM      9  C   UNL     1     -35.294  21.707   4.877  0.00  0.00    +0.212 C 
ATOM     10  C   UNL     1     -35.793  21.052   2.711  0.00  0.00    +0.207 C 
ATOM     11  N   UNL     1     -34.721  21.466   6.137  0.00  0.00    -0.331 N 
ATOM     12  H   UNL     1     -34.267  20.611   6.317  0.00  0.00    +0.145 HD
ATOM     13  H   UNL     1     -34.774  22.153   6.841  0.00  0.00    +0.145 HD
ENDROOT
BRANCH   2  15
ATOM     14  O4* UNL     1     -38.475  26.088   2.699  0.00  0.00    -0.335 OA
ATOM     15  C1* UNL     1     -37.740  24.946   2.223  0.00  0.00    +0.198 C 
ATOM     16  C3* UNL     1     -39.704  25.062   0.934  0.00  0.00    +0.144 C 
ATOM     17  C2* UNL     1     -38.741  24.049   1.511  0.00  0.00    +0.083 C 
ATOM     18  C4* UNL     1     -39.733  26.158   1.996  0.00  0.00    +0.173 C 
BRANCH  16  19
ATOM     19  O3* UNL     1     -39.145  25.580  -0.271  0.00  0.00    -0.382 OA
ATOM     20  H3* UNL     1     -38.467  24.969  -0.601  0.00  0.00    +0.210 HD
ENDBRANCH  16  19
BRANCH  18  21
ATOM     21  C5* UNL     1     -40.852  25.962   3.010  0.00  0.00    +0.169 C 
BRANCH  21  22
ATOM     22  O5* UNL     1     -40.843  27.057   3.910  0.00  0.00    -0.379 OA
ATOM     23  H5* UNL     1     -39.993  27.520   3.846  0.00  0.00    +0.211 HD
ENDBRANCH  21  22
ENDBRANCH  18  21
ENDBRANCH   2  15
TORSDOF 4
ENDMDL
MODEL 8
REMARK VINA RESULT:      -5.5      3.347      4.755
REMARK  Name = 20279
REMARK  4 active torsions:
REMARK  status: ('A' for Active; 'I' for Inactive)
REMARK    1  A    between atoms: N_2  and  C1*_12
REMARK    2  A    between atoms: C3*_13  and  O3*_16
REMARK    3  A    between atoms: C4*_15  and  C5*_18
REMARK    4  A    between atoms: C5*_18  and  O5*_19
REMARK                            x       y       z     vdW  Elec       q    Type
REMARK                         _______ _______ _______ _____ _____    ______ ____
ROOT
ATOM      1 CL   UNL     1     -31.421  28.202   4.839  0.00  0.00    +0.024 Cl
ATOM      2  N   UNL     1     -35.257  25.185   3.658  0.00  0.00    -0.238 N 
ATOM      3  N   UNL     1     -36.482  26.735   2.617  0.00  0.00    -0.240 NA
ATOM      4  N   UNL     1     -33.338  26.533   4.293  0.00  0.00    -0.314 NA
ATOM      5  N   UNL     1     -33.591  28.844   3.553  0.00  0.00    -0.314 NA
ATOM      6  C   UNL     1     -34.539  26.347   3.723  0.00  0.00    +0.221 C 
ATOM      7  C   UNL     1     -36.417  25.472   2.983  0.00  0.00    +0.224 C 
ATOM      8  C   UNL     1     -35.315  27.294   3.073  0.00  0.00    +0.167 C 
ATOM      9  C   UNL     1     -34.800  28.584   2.999  0.00  0.00    +0.212 C 
ATOM     10  C   UNL     1     -32.945  27.819   4.156  0.00  0.00    +0.207 C 
ATOM     11  N   UNL     1     -35.519  29.608   2.359  0.00  0.00    -0.331 N 
ATOM     12  H   UNL     1     -35.144  30.518   2.312  0.00  0.00    +0.145 HD
ATOM     13  H   UNL     1     -36.397  29.416   1.957  0.00  0.00    +0.145 HD
ENDROOT
BRANCH   2  15
ATOM     14  O4* UNL     1     -34.826  22.910   3.139  0.00  0.00    -0.335 OA
ATOM     15  C1* UNL     1     -34.875  23.885   4.196  0.00  0.00    +0.198 C 
ATOM     16  C3* UNL     1     -35.593  21.851   5.131  0.00  0.00    +0.144 C 
ATOM     17  C2* UNL     1     -35.826  23.340   5.251  0.00  0.00    +0.083 C 
ATOM     18  C4* UNL     1     -35.338  21.657   3.640  0.00  0.00    +0.173 C 
BRANCH  16  19
ATOM     19  O3* UNL     1     -34.416  21.518   5.864  0.00  0.00    -0.382 OA
ATOM     20  H3* UNL     1     -34.208  20.579   5.732  0.00  0.00    +0.210 HD
ENDBRANCH  16  19
BRANCH  18  21
ATOM     21  C5* UNL     1     -36.607  21.324   2.866  0.00  0.00    +0.169 C 
BRANCH  21  22
ATOM     22  O5* UNL     1     -36.707  19.915   2.746  0.00  0.00    -0.379 OA
ATOM     23  H5* UNL     1     -35.823  19.539   2.617  0.00  0.00    +0.211 HD
ENDBRANCH  21  22
ENDBRANCH  18  21
ENDBRANCH   2  15
TORSDOF 4
ENDMDL
MODEL 9
REMARK VINA RESULT:      -5.4      3.834      5.935
REMARK  Name = 20279
REMARK  4 active torsions:
REMARK  status: ('A' for Active; 'I' for Inactive)
REMARK    1  A    between atoms: N_2  and  C1*_12
REMARK    2  A    between atoms: C3*_13  and  O3*_16
REMARK    3  A    between atoms: C4*_15  and  C5*_18
REMARK    4  A    between atoms: C5*_18  and  O5*_19
REMARK                            x       y       z     vdW  Elec       q    Type
REMARK                         _______ _______ _______ _____ _____    ______ ____
ROOT
ATOM      1 CL   UNL     1     -41.064  25.487   2.857  0.00  0.00    +0.024 Cl
ATOM      2  N   UNL     1     -36.412  23.760   3.626  0.00  0.00    -0.238 N 
ATOM      3  N   UNL     1     -36.710  21.788   2.624  0.00  0.00    -0.240 NA
ATOM      4  N   UNL     1     -38.625  24.716   3.323  0.00  0.00    -0.314 NA
ATOM      5  N   UNL     1     -40.100  23.182   2.128  0.00  0.00    -0.314 NA
ATOM      6  C   UNL     1     -37.707  23.747   3.187  0.00  0.00    +0.221 C 
ATOM      7  C   UNL     1     -35.856  22.560   3.262  0.00  0.00    +0.224 C 
ATOM      8  C   UNL     1     -37.871  22.517   2.570  0.00  0.00    +0.167 C 
ATOM      9  C   UNL     1     -39.124  22.248   2.028  0.00  0.00    +0.212 C 
ATOM     10  C   UNL     1     -39.795  24.340   2.759  0.00  0.00    +0.207 C 
ATOM     11  N   UNL     1     -39.380  21.025   1.384  0.00  0.00    -0.331 N 
ATOM     12  H   UNL     1     -40.271  20.846   1.004  0.00  0.00    +0.145 HD
ATOM     13  H   UNL     1     -38.669  20.348   1.312  0.00  0.00    +0.145 HD
ENDROOT
BRANCH   2  15
ATOM     14  O4* UNL     1     -35.517  25.952   3.459  0.00  0.00    -0.335 OA
ATOM     15  C1* UNL     1     -35.740  24.838   4.342  0.00  0.00    +0.198 C 
ATOM     16  C3* UNL     1     -33.692  25.800   4.984  0.00  0.00    +0.144 C 
ATOM     17  C2* UNL     1     -34.383  24.458   4.917  0.00  0.00    +0.083 C 
ATOM     18  C4* UNL     1     -34.229  26.530   3.756  0.00  0.00    +0.173 C 
BRANCH  16  19
ATOM     19  O3* UNL     1     -34.126  26.472   6.165  0.00  0.00    -0.382 OA
ATOM     20  H3* UNL     1     -34.089  27.431   6.024  0.00  0.00    +0.210 HD
ENDBRANCH  16  19
BRANCH  18  21
ATOM     21  C5* UNL     1     -33.339  26.353   2.533  0.00  0.00    +0.169 C 
BRANCH  21  22
ATOM     22  O5* UNL     1     -32.026  26.046   2.969  0.00  0.00    -0.379 OA
ATOM     23  H5* UNL     1     -31.937  26.274   3.907  0.00  0.00    +0.211 HD
ENDBRANCH  21  22
ENDBRANCH  18  21
ENDBRANCH   2  15
TORSDOF 4
ENDMDL
