MODEL 1
REMARK VINA RESULT:      -5.0      0.000      0.000
REMARK  Name = 5489007
REMARK  11 active torsions:
REMARK  status: ('A' for Active; 'I' for Inactive)
REMARK    1  A    between atoms: N_2  and  C_5
REMARK    2  A    between atoms: C_3  and  C_16
REMARK    3  A    between atoms: C_5  and  C_9
REMARK    4  A    between atoms: N_8  and  CA_11
REMARK    5  A    between atoms: CA_11  and  C_13
REMARK    6  A    between atoms: C_13  and  O_14
REMARK    7  A    between atoms: C_16  and  C_17
REMARK    8  A    between atoms: C_17  and  C_18
REMARK    9  A    between atoms: C_18  and  N_19
REMARK   10  A    between atoms: C_18  and  C_24
REMARK   11  A    between atoms: C_24  and  O_25
REMARK                            x       y       z     vdW  Elec       q    Type
REMARK                         _______ _______ _______ _____ _____    ______ ____
ROOT
ATOM      1  O   UNK A   1     -33.595  24.900   4.769  0.00  0.00    -0.275 OA
ATOM      2  N   UNK A   1     -35.662  23.839   4.778  0.00  0.00    -0.298 N 
ATOM      3  C   UNK A   1     -34.822  24.942   4.723  0.00  0.00    +0.223 C 
ATOM      4  H   UNK A   1     -36.635  23.986   4.733  0.00  0.00    +0.150 HD
ENDROOT
BRANCH   2   5
ATOM      5  C   UNK A   1     -35.171  22.486   4.896  0.00  0.00    +0.149 C 
ATOM      6  C   UNK A   1     -35.473  21.906   6.270  0.00  0.00    +0.031 C 
BRANCH   5   9
ATOM      7  O   UNK A   1     -35.313  20.627   3.348  0.00  0.00    -0.273 OA
ATOM      8  N   GLY A   2     -37.009  22.210   3.354  0.00  0.00    -0.294 N 
ATOM      9  C   UNK A   1     -35.819  21.652   3.799  0.00  0.00    +0.241 C 
ATOM     10  H   GLY A   2     -37.333  23.036   3.781  0.00  0.00    +0.150 HD
BRANCH   8  11
ATOM     11  CA  GLY A   2     -37.793  21.630   2.288  0.00  0.00    +0.200 C 
BRANCH  11  13
ATOM     12  OXT GLY A   2     -39.539  23.281   2.425  0.00  0.00    -0.248 OA
ATOM     13  C   GLY A   2     -39.223  22.106   2.285  0.00  0.00    +0.334 C 
BRANCH  13  14
ATOM     14  O   GLY A   2     -40.125  21.110   2.117  0.00  0.00    -0.479 OA
ATOM     15  H   GLY A   2     -39.943  20.253   2.446  0.00  0.00    +0.295 HD
ENDBRANCH  13  14
ENDBRANCH  11  13
ENDBRANCH   8  11
ENDBRANCH   5   9
ENDBRANCH   2   5
BRANCH   3  16
ATOM     16  C   UNK A   1     -35.607  26.238   4.609  0.00  0.00    +0.083 C 
BRANCH  16  17
ATOM     17  C   UNK A   1     -35.666  26.760   3.173  0.00  0.00    -0.001 C 
BRANCH  17  18
ATOM     18  C   UNK A   1     -36.983  26.415   2.467  0.00  0.00    +0.036 C 
BRANCH  18  19
ATOM     19  N   UNK A   1     -37.994  26.057   3.465  0.00  0.00    +0.389 N 
ATOM     20  H   UNK A   1     -38.491  26.896   3.763  0.00  0.00    -0.088 HD
ATOM     21  H   UNK A   1     -37.538  25.628   4.271  0.00  0.00    -0.088 HD
ATOM     22  H   UNK A   1     -38.655  25.396   3.056  0.00  0.00    -0.088 HD
ENDBRANCH  18  19
BRANCH  18  24
ATOM     23  O   UNK A   1     -35.861  24.451   1.559  0.00  0.00    -0.253 OA
ATOM     24  C   UNK A   1     -36.822  25.209   1.558  0.00  0.00    +0.293 C 
BRANCH  24  25
ATOM     25  O   UNK A   1     -37.868  25.069   0.702  0.00  0.00    -0.482 OA
ATOM     26  H   UNK A   1     -37.737  24.675  -0.138  0.00  0.00    +0.295 HD
ENDBRANCH  24  25
ENDBRANCH  18  24
ENDBRANCH  17  18
ENDBRANCH  16  17
ENDBRANCH   3  16
TORSDOF 11
ENDMDL
MODEL 2
REMARK VINA RESULT:      -5.0      2.743      4.918
REMARK  Name = 5489007
REMARK  11 active torsions:
REMARK  status: ('A' for Active; 'I' for Inactive)
REMARK    1  A    between atoms: N_2  and  C_5
REMARK    2  A    between atoms: C_3  and  C_16
REMARK    3  A    between atoms: C_5  and  C_9
REMARK    4  A    between atoms: N_8  and  CA_11
REMARK    5  A    between atoms: CA_11  and  C_13
REMARK    6  A    between atoms: C_13  and  O_14
REMARK    7  A    between atoms: C_16  and  C_17
REMARK    8  A    between atoms: C_17  and  C_18
REMARK    9  A    between atoms: C_18  and  N_19
REMARK   10  A    between atoms: C_18  and  C_24
REMARK   11  A    between atoms: C_24  and  O_25
REMARK                            x       y       z     vdW  Elec       q    Type
REMARK                         _______ _______ _______ _____ _____    ______ ____
ROOT
ATOM      1  O   UNK A   1     -34.992  20.713   5.017  0.00  0.00    -0.275 OA
ATOM      2  N   UNK A   1     -36.233  22.060   3.589  0.00  0.00    -0.298 N 
ATOM      3  C   UNK A   1     -35.510  21.791   4.743  0.00  0.00    +0.223 C 
ATOM      4  H   UNK A   1     -36.608  22.962   3.468  0.00  0.00    +0.150 HD
ENDROOT
BRANCH   2   5
ATOM      5  C   UNK A   1     -36.458  21.073   2.559  0.00  0.00    +0.149 C 
ATOM      6  C   UNK A   1     -37.690  21.407   1.731  0.00  0.00    +0.031 C 
BRANCH   5   9
ATOM      7  O   UNK A   1     -34.920  21.898   0.877  0.00  0.00    -0.273 OA
ATOM      8  N   GLY A   2     -34.493  19.847   1.873  0.00  0.00    -0.294 N 
ATOM      9  C   UNK A   1     -35.214  21.017   1.682  0.00  0.00    +0.241 C 
ATOM     10  H   GLY A   2     -34.811  19.200   2.544  0.00  0.00    +0.150 HD
BRANCH   8  11
ATOM     11  CA  GLY A   2     -33.294  19.537   1.128  0.00  0.00    +0.200 C 
BRANCH  11  13
ATOM     12  OXT GLY A   2     -31.847  17.684   1.642  0.00  0.00    -0.248 OA
ATOM     13  C   GLY A   2     -32.919  18.080   1.200  0.00  0.00    +0.334 C 
BRANCH  13  14
ATOM     14  O   GLY A   2     -33.878  17.250   0.726  0.00  0.00    -0.479 OA
ATOM     15  H   GLY A   2     -33.744  16.790  -0.079  0.00  0.00    +0.295 HD
ENDBRANCH  13  14
ENDBRANCH  11  13
ENDBRANCH   8  11
ENDBRANCH   5   9
ENDBRANCH   2   5
BRANCH   3  16
ATOM     16  C   UNK A   1     -35.441  23.005   5.653  0.00  0.00    +0.083 C 
BRANCH  16  17
ATOM     17  C   UNK A   1     -35.919  24.282   4.961  0.00  0.00    -0.001 C 
BRANCH  17  18
ATOM     18  C   UNK A   1     -35.511  25.555   5.712  0.00  0.00    +0.036 C 
BRANCH  18  19
ATOM     19  N   UNK A   1     -36.341  26.675   5.262  0.00  0.00    +0.389 N 
ATOM     20  H   UNK A   1     -37.264  26.609   5.690  0.00  0.00    -0.088 HD
ATOM     21  H   UNK A   1     -36.435  26.643   4.246  0.00  0.00    -0.088 HD
ATOM     22  H   UNK A   1     -35.902  27.555   5.535  0.00  0.00    -0.088 HD
ENDBRANCH  18  19
BRANCH  18  24
ATOM     23  O   UNK A   1     -33.412  25.508   4.473  0.00  0.00    -0.253 OA
ATOM     24  C   UNK A   1     -34.071  25.933   5.414  0.00  0.00    +0.293 C 
BRANCH  24  25
ATOM     25  O   UNK A   1     -33.565  26.794   6.335  0.00  0.00    -0.482 OA
ATOM     26  H   UNK A   1     -33.681  27.717   6.228  0.00  0.00    +0.295 HD
ENDBRANCH  24  25
ENDBRANCH  18  24
ENDBRANCH  17  18
ENDBRANCH  16  17
ENDBRANCH   3  16
TORSDOF 11
ENDMDL
MODEL 3
REMARK VINA RESULT:      -4.9      5.478      8.637
REMARK  Name = 5489007
REMARK  11 active torsions:
REMARK  status: ('A' for Active; 'I' for Inactive)
REMARK    1  A    between atoms: N_2  and  C_5
REMARK    2  A    between atoms: C_3  and  C_16
REMARK    3  A    between atoms: C_5  and  C_9
REMARK    4  A    between atoms: N_8  and  CA_11
REMARK    5  A    between atoms: CA_11  and  C_13
REMARK    6  A    between atoms: C_13  and  O_14
REMARK    7  A    between atoms: C_16  and  C_17
REMARK    8  A    between atoms: C_17  and  C_18
REMARK    9  A    between atoms: C_18  and  N_19
REMARK   10  A    between atoms: C_18  and  C_24
REMARK   11  A    between atoms: C_24  and  O_25
REMARK                            x       y       z     vdW  Elec       q    Type
REMARK                         _______ _______ _______ _____ _____    ______ ____
ROOT
ATOM      1  O   UNK A   1     -32.692  26.907   4.113  0.00  0.00    -0.275 OA
ATOM      2  N   UNK A   1     -32.504  28.112   6.089  0.00  0.00    -0.298 N 
ATOM      3  C   UNK A   1     -32.979  27.079   5.294  0.00  0.00    +0.223 C 
ATOM      4  H   UNK A   1     -32.798  28.157   7.028  0.00  0.00    +0.150 HD
ENDROOT
BRANCH   2   5
ATOM      5  C   UNK A   1     -31.594  29.122   5.600  0.00  0.00    +0.149 C 
ATOM      6  C   UNK A   1     -31.943  30.495   6.153  0.00  0.00    +0.031 C 
BRANCH   5   9
ATOM      7  O   UNK A   1     -29.869  27.561   6.282  0.00  0.00    -0.273 OA
ATOM      8  N   GLY A   2     -29.321  29.804   6.051  0.00  0.00    -0.294 N 
ATOM      9  C   UNK A   1     -30.182  28.717   6.001  0.00  0.00    +0.241 C 
ATOM     10  H   GLY A   2     -29.668  30.692   5.805  0.00  0.00    +0.150 HD
BRANCH   8  11
ATOM     11  CA  GLY A   2     -27.936  29.686   6.446  0.00  0.00    +0.200 C 
BRANCH  11  13
ATOM     12  OXT GLY A   2     -27.324  30.704   8.539  0.00  0.00    -0.248 OA
ATOM     13  C   GLY A   2     -27.749  29.724   7.941  0.00  0.00    +0.334 C 
BRANCH  13  14
ATOM     14  O   GLY A   2     -28.091  28.569   8.559  0.00  0.00    -0.479 OA
ATOM     15  H   GLY A   2     -28.197  28.549   9.489  0.00  0.00    +0.295 HD
ENDBRANCH  13  14
ENDBRANCH  11  13
ENDBRANCH   8  11
ENDBRANCH   5   9
ENDBRANCH   2   5
BRANCH   3  16
ATOM     16  C   UNK A   1     -33.924  26.172   6.063  0.00  0.00    +0.083 C 
BRANCH  16  17
ATOM     17  C   UNK A   1     -34.584  25.123   5.167  0.00  0.00    -0.001 C 
BRANCH  17  18
ATOM     18  C   UNK A   1     -35.802  25.666   4.410  0.00  0.00    +0.036 C 
BRANCH  18  19
ATOM     19  N   UNK A   1     -36.554  26.573   5.281  0.00  0.00    +0.389 N 
ATOM     20  H   UNK A   1     -36.962  27.322   4.722  0.00  0.00    -0.088 HD
ATOM     21  H   UNK A   1     -35.927  26.973   5.979  0.00  0.00    -0.088 HD
ATOM     22  H   UNK A   1     -37.298  26.054   5.750  0.00  0.00    -0.088 HD
ENDBRANCH  18  19
BRANCH  18  24
ATOM     23  O   UNK A   1     -36.425  23.506   3.467  0.00  0.00    -0.253 OA
ATOM     24  C   UNK A   1     -36.753  24.548   4.021  0.00  0.00    +0.293 C 
BRANCH  24  25
ATOM     25  O   UNK A   1     -38.043  24.839   4.333  0.00  0.00    -0.482 OA
ATOM     26  H   UNK A   1     -38.671  24.149   4.419  0.00  0.00    +0.295 HD
ENDBRANCH  24  25
ENDBRANCH  18  24
ENDBRANCH  17  18
ENDBRANCH  16  17
ENDBRANCH   3  16
TORSDOF 11
ENDMDL
MODEL 4
REMARK VINA RESULT:      -4.8      2.147      4.162
REMARK  Name = 5489007
REMARK  11 active torsions:
REMARK  status: ('A' for Active; 'I' for Inactive)
REMARK    1  A    between atoms: N_2  and  C_5
REMARK    2  A    between atoms: C_3  and  C_16
REMARK    3  A    between atoms: C_5  and  C_9
REMARK    4  A    between atoms: N_8  and  CA_11
REMARK    5  A    between atoms: CA_11  and  C_13
REMARK    6  A    between atoms: C_13  and  O_14
REMARK    7  A    between atoms: C_16  and  C_17
REMARK    8  A    between atoms: C_17  and  C_18
REMARK    9  A    between atoms: C_18  and  N_19
REMARK   10  A    between atoms: C_18  and  C_24
REMARK   11  A    between atoms: C_24  and  O_25
REMARK                            x       y       z     vdW  Elec       q    Type
REMARK                         _______ _______ _______ _____ _____    ______ ____
ROOT
ATOM      1  O   UNK A   1     -34.891  22.391   2.562  0.00  0.00    -0.275 OA
ATOM      2  N   UNK A   1     -37.086  21.965   3.190  0.00  0.00    -0.298 N 
ATOM      3  C   UNK A   1     -35.725  22.113   3.419  0.00  0.00    +0.223 C 
ATOM      4  H   UNK A   1     -37.669  21.739   3.951  0.00  0.00    +0.150 HD
ENDROOT
BRANCH   2   5
ATOM      5  C   UNK A   1     -37.683  22.128   1.885  0.00  0.00    +0.149 C 
ATOM      6  C   UNK A   1     -37.664  20.824   1.101  0.00  0.00    +0.031 C 
BRANCH   5   9
ATOM      7  O   UNK A   1     -40.071  21.869   2.208  0.00  0.00    -0.273 OA
ATOM      8  N   GLY A   2     -39.189  24.009   2.051  0.00  0.00    -0.294 N 
ATOM      9  C   UNK A   1     -39.110  22.624   2.080  0.00  0.00    +0.241 C 
ATOM     10  H   GLY A   2     -38.359  24.528   1.944  0.00  0.00    +0.150 HD
BRANCH   8  11
ATOM     11  CA  GLY A   2     -40.440  24.722   2.171  0.00  0.00    +0.200 C 
BRANCH  11  13
ATOM     12  OXT GLY A   2     -40.570  27.039   1.532  0.00  0.00    -0.248 OA
ATOM     13  C   GLY A   2     -40.254  26.204   2.370  0.00  0.00    +0.334 C 
BRANCH  13  14
ATOM     14  O   GLY A   2     -39.701  26.524   3.564  0.00  0.00    -0.479 OA
ATOM     15  H   GLY A   2     -39.549  27.421   3.784  0.00  0.00    +0.295 HD
ENDBRANCH  13  14
ENDBRANCH  11  13
ENDBRANCH   8  11
ENDBRANCH   5   9
ENDBRANCH   2   5
BRANCH   3  16
ATOM     16  C   UNK A   1     -35.374  21.875   4.878  0.00  0.00    +0.083 C 
BRANCH  16  17
ATOM     17  C   UNK A   1     -35.543  23.134   5.730  0.00  0.00    -0.001 C 
BRANCH  17  18
ATOM     18  C   UNK A   1     -35.309  24.426   4.938  0.00  0.00    +0.036 C 
BRANCH  18  19
ATOM     19  N   UNK A   1     -34.339  25.265   5.646  0.00  0.00    +0.389 N 
ATOM     20  H   UNK A   1     -33.764  24.682   6.254  0.00  0.00    -0.088 HD
ATOM     21  H   UNK A   1     -34.835  25.957   6.209  0.00  0.00    -0.088 HD
ATOM     22  H   UNK A   1     -33.744  25.742   4.968  0.00  0.00    -0.088 HD
ENDBRANCH  18  19
BRANCH  18  24
ATOM     23  O   UNK A   1     -37.624  24.850   4.301  0.00  0.00    -0.253 OA
ATOM     24  C   UNK A   1     -36.586  25.239   4.822  0.00  0.00    +0.293 C 
BRANCH  24  25
ATOM     25  O   UNK A   1     -36.450  26.486   5.344  0.00  0.00    -0.482 OA
ATOM     26  H   UNK A   1     -36.837  26.693   6.171  0.00  0.00    +0.295 HD
ENDBRANCH  24  25
ENDBRANCH  18  24
ENDBRANCH  17  18
ENDBRANCH  16  17
ENDBRANCH   3  16
TORSDOF 11
ENDMDL
MODEL 5
REMARK VINA RESULT:      -4.8      2.486      5.530
REMARK  Name = 5489007
REMARK  11 active torsions:
REMARK  status: ('A' for Active; 'I' for Inactive)
REMARK    1  A    between atoms: N_2  and  C_5
REMARK    2  A    between atoms: C_3  and  C_16
REMARK    3  A    between atoms: C_5  and  C_9
REMARK    4  A    between atoms: N_8  and  CA_11
REMARK    5  A    between atoms: CA_11  and  C_13
REMARK    6  A    between atoms: C_13  and  O_14
REMARK    7  A    between atoms: C_16  and  C_17
REMARK    8  A    between atoms: C_17  and  C_18
REMARK    9  A    between atoms: C_18  and  N_19
REMARK   10  A    between atoms: C_18  and  C_24
REMARK   11  A    between atoms: C_24  and  O_25
REMARK                            x       y       z     vdW  Elec       q    Type
REMARK                         _______ _______ _______ _____ _____    ______ ____
ROOT
ATOM      1  O   UNK A   1     -37.612  24.025  -0.576  0.00  0.00    -0.275 OA
ATOM      2  N   UNK A   1     -37.406  22.897   1.444  0.00  0.00    -0.298 N 
ATOM      3  C   UNK A   1     -37.274  23.037   0.070  0.00  0.00    +0.223 C 
ATOM      4  H   UNK A   1     -37.102  22.060   1.863  0.00  0.00    +0.150 HD
ENDROOT
BRANCH   2   5
ATOM      5  C   UNK A   1     -37.969  23.928   2.285  0.00  0.00    +0.149 C 
ATOM      6  C   UNK A   1     -39.431  23.648   2.600  0.00  0.00    +0.031 C 
BRANCH   5   9
ATOM      7  O   UNK A   1     -37.358  24.810   4.458  0.00  0.00    -0.273 OA
ATOM      8  N   GLY A   2     -36.106  23.074   3.564  0.00  0.00    -0.294 N 
ATOM      9  C   UNK A   1     -37.141  23.997   3.562  0.00  0.00    +0.241 C 
ATOM     10  H   GLY A   2     -36.016  22.463   2.796  0.00  0.00    +0.150 HD
BRANCH   8  11
ATOM     11  CA  GLY A   2     -35.154  22.970   4.646  0.00  0.00    +0.200 C 
BRANCH  11  13
ATOM     12  OXT GLY A   2     -36.051  22.034   6.674  0.00  0.00    -0.248 OA
ATOM     13  C   GLY A   2     -35.477  21.856   5.606  0.00  0.00    +0.334 C 
BRANCH  13  14
ATOM     14  O   GLY A   2     -35.070  20.637   5.179  0.00  0.00    -0.479 OA
ATOM     15  H   GLY A   2     -35.112  19.900   5.755  0.00  0.00    +0.295 HD
ENDBRANCH  13  14
ENDBRANCH  11  13
ENDBRANCH   8  11
ENDBRANCH   5   9
ENDBRANCH   2   5
BRANCH   3  16
ATOM     16  C   UNK A   1     -36.661  21.799  -0.562  0.00  0.00    +0.083 C 
BRANCH  16  17
ATOM     17  C   UNK A   1     -37.316  20.508  -0.068  0.00  0.00    -0.001 C 
BRANCH  17  18
ATOM     18  C   UNK A   1     -36.303  19.504   0.495  0.00  0.00    +0.036 C 
BRANCH  18  19
ATOM     19  N   UNK A   1     -36.950  18.201   0.668  0.00  0.00    +0.389 N 
ATOM     20  H   UNK A   1     -37.934  18.337   0.896  0.00  0.00    -0.088 HD
ATOM     21  H   UNK A   1     -36.493  17.693   1.426  0.00  0.00    -0.088 HD
ATOM     22  H   UNK A   1     -36.871  17.665  -0.196  0.00  0.00    -0.088 HD
ENDBRANCH  18  19
BRANCH  18  24
ATOM     23  O   UNK A   1     -34.630  20.017   2.192  0.00  0.00    -0.253 OA
ATOM     24  C   UNK A   1     -35.807  19.930   1.866  0.00  0.00    +0.293 C 
BRANCH  24  25
ATOM     25  O   UNK A   1     -36.828  20.185   2.724  0.00  0.00    -0.482 OA
ATOM     26  H   UNK A   1     -36.678  20.701   3.491  0.00  0.00    +0.295 HD
ENDBRANCH  24  25
ENDBRANCH  18  24
ENDBRANCH  17  18
ENDBRANCH  16  17
ENDBRANCH   3  16
TORSDOF 11
ENDMDL
MODEL 6
REMARK VINA RESULT:      -4.6      4.150      7.862
REMARK  Name = 5489007
REMARK  11 active torsions:
REMARK  status: ('A' for Active; 'I' for Inactive)
REMARK    1  A    between atoms: N_2  and  C_5
REMARK    2  A    between atoms: C_3  and  C_16
REMARK    3  A    between atoms: C_5  and  C_9
REMARK    4  A    between atoms: N_8  and  CA_11
REMARK    5  A    between atoms: CA_11  and  C_13
REMARK    6  A    between atoms: C_13  and  O_14
REMARK    7  A    between atoms: C_16  and  C_17
REMARK    8  A    between atoms: C_17  and  C_18
REMARK    9  A    between atoms: C_18  and  N_19
REMARK   10  A    between atoms: C_18  and  C_24
REMARK   11  A    between atoms: C_24  and  O_25
REMARK                            x       y       z     vdW  Elec       q    Type
REMARK                         _______ _______ _______ _____ _____    ______ ____
ROOT
ATOM      1  O   UNK A   1     -33.246  25.328   3.639  0.00  0.00    -0.275 OA
ATOM      2  N   UNK A   1     -33.969  27.400   4.402  0.00  0.00    -0.298 N 
ATOM      3  C   UNK A   1     -34.122  26.053   4.101  0.00  0.00    +0.223 C 
ATOM      4  H   UNK A   1     -34.739  27.890   4.770  0.00  0.00    +0.150 HD
ENDROOT
BRANCH   2   5
ATOM      5  C   UNK A   1     -32.728  28.110   4.200  0.00  0.00    +0.149 C 
ATOM      6  C   UNK A   1     -32.965  29.466   3.552  0.00  0.00    +0.031 C 
BRANCH   5   9
ATOM      7  O   UNK A   1     -32.565  27.902   6.609  0.00  0.00    -0.273 OA
ATOM      8  N   GLY A   2     -30.819  28.900   5.453  0.00  0.00    -0.294 N 
ATOM      9  C   UNK A   1     -32.050  28.267   5.555  0.00  0.00    +0.241 C 
ATOM     10  H   GLY A   2     -30.491  29.154   4.560  0.00  0.00    +0.150 HD
BRANCH   8  11
ATOM     11  CA  GLY A   2     -29.999  29.203   6.603  0.00  0.00    +0.200 C 
BRANCH  11  13
ATOM     12  OXT GLY A   2     -27.650  28.690   6.502  0.00  0.00    -0.248 OA
ATOM     13  C   GLY A   2     -28.794  28.307   6.716  0.00  0.00    +0.334 C 
BRANCH  13  14
ATOM     14  O   GLY A   2     -29.095  27.036   7.073  0.00  0.00    -0.479 OA
ATOM     15  H   GLY A   2     -28.566  26.589   7.703  0.00  0.00    +0.295 HD
ENDBRANCH  13  14
ENDBRANCH  11  13
ENDBRANCH   8  11
ENDBRANCH   5   9
ENDBRANCH   2   5
BRANCH   3  16
ATOM     16  C   UNK A   1     -35.531  25.571   4.404  0.00  0.00    +0.083 C 
BRANCH  16  17
ATOM     17  C   UNK A   1     -35.549  24.422   5.413  0.00  0.00    -0.001 C 
BRANCH  17  18
ATOM     18  C   UNK A   1     -35.534  23.042   4.746  0.00  0.00    +0.036 C 
BRANCH  18  19
ATOM     19  N   UNK A   1     -36.832  22.788   4.117  0.00  0.00    +0.389 N 
ATOM     20  H   UNK A   1     -36.824  23.148   3.163  0.00  0.00    -0.088 HD
ATOM     21  H   UNK A   1     -37.565  23.254   4.650  0.00  0.00    -0.088 HD
ATOM     22  H   UNK A   1     -37.010  21.783   4.099  0.00  0.00    -0.088 HD
ENDBRANCH  18  19
BRANCH  18  24
ATOM     23  O   UNK A   1     -35.285  22.100   6.981  0.00  0.00    -0.253 OA
ATOM     24  C   UNK A   1     -35.322  21.938   5.768  0.00  0.00    +0.293 C 
BRANCH  24  25
ATOM     25  O   UNK A   1     -35.146  20.725   5.184  0.00  0.00    -0.482 OA
ATOM     26  H   UNK A   1     -35.511  19.957   5.578  0.00  0.00    +0.295 HD
ENDBRANCH  24  25
ENDBRANCH  18  24
ENDBRANCH  17  18
ENDBRANCH  16  17
ENDBRANCH   3  16
TORSDOF 11
ENDMDL
MODEL 7
REMARK VINA RESULT:      -4.6      4.481      7.236
REMARK  Name = 5489007
REMARK  11 active torsions:
REMARK  status: ('A' for Active; 'I' for Inactive)
REMARK    1  A    between atoms: N_2  and  C_5
REMARK    2  A    between atoms: C_3  and  C_16
REMARK    3  A    between atoms: C_5  and  C_9
REMARK    4  A    between atoms: N_8  and  CA_11
REMARK    5  A    between atoms: CA_11  and  C_13
REMARK    6  A    between atoms: C_13  and  O_14
REMARK    7  A    between atoms: C_16  and  C_17
REMARK    8  A    between atoms: C_17  and  C_18
REMARK    9  A    between atoms: C_18  and  N_19
REMARK   10  A    between atoms: C_18  and  C_24
REMARK   11  A    between atoms: C_24  and  O_25
REMARK                            x       y       z     vdW  Elec       q    Type
REMARK                         _______ _______ _______ _____ _____    ______ ____
ROOT
ATOM      1  O   UNK A   1     -32.699  26.898   4.149  0.00  0.00    -0.275 OA
ATOM      2  N   UNK A   1     -32.609  27.928   6.229  0.00  0.00    -0.298 N 
ATOM      3  C   UNK A   1     -33.055  26.978   5.321  0.00  0.00    +0.223 C 
ATOM      4  H   UNK A   1     -32.960  27.902   7.149  0.00  0.00    +0.150 HD
ENDROOT
BRANCH   2   5
ATOM      5  C   UNK A   1     -31.651  28.951   5.883  0.00  0.00    +0.149 C 
ATOM      6  C   UNK A   1     -31.456  29.937   7.026  0.00  0.00    +0.031 C 
BRANCH   5   9
ATOM      7  O   UNK A   1     -29.635  27.691   6.356  0.00  0.00    -0.273 OA
ATOM      8  N   GLY A   2     -30.022  28.407   4.183  0.00  0.00    -0.294 N 
ATOM      9  C   UNK A   1     -30.338  28.266   5.527  0.00  0.00    +0.241 C 
ATOM     10  H   GLY A   2     -30.653  28.885   3.598  0.00  0.00    +0.150 HD
BRANCH   8  11
ATOM     11  CA  GLY A   2     -28.806  27.881   3.607  0.00  0.00    +0.200 C 
BRANCH  11  13
ATOM     12  OXT GLY A   2     -28.080  25.605   3.317  0.00  0.00    -0.248 OA
ATOM     13  C   GLY A   2     -28.946  26.454   3.146  0.00  0.00    +0.334 C 
BRANCH  13  14
ATOM     14  O   GLY A   2     -30.119  26.199   2.520  0.00  0.00    -0.479 OA
ATOM     15  H   GLY A   2     -30.860  25.907   3.014  0.00  0.00    +0.295 HD
ENDBRANCH  13  14
ENDBRANCH  11  13
ENDBRANCH   8  11
ENDBRANCH   5   9
ENDBRANCH   2   5
BRANCH   3  16
ATOM     16  C   UNK A   1     -34.065  26.033   5.952  0.00  0.00    +0.083 C 
BRANCH  16  17
ATOM     17  C   UNK A   1     -34.673  25.067   4.935  0.00  0.00    -0.001 C 
BRANCH  17  18
ATOM     18  C   UNK A   1     -36.006  25.564   4.364  0.00  0.00    +0.036 C 
BRANCH  18  19
ATOM     19  N   UNK A   1     -36.592  26.550   5.275  0.00  0.00    +0.389 N 
ATOM     20  H   UNK A   1     -35.960  26.705   6.061  0.00  0.00    -0.088 HD
ATOM     21  H   UNK A   1     -37.486  26.204   5.622  0.00  0.00    -0.088 HD
ATOM     22  H   UNK A   1     -36.737  27.429   4.777  0.00  0.00    -0.088 HD
ENDBRANCH  18  19
BRANCH  18  24
ATOM     23  O   UNK A   1     -36.729  23.240   4.218  0.00  0.00    -0.253 OA
ATOM     24  C   UNK A   1     -37.011  24.432   4.245  0.00  0.00    +0.293 C 
BRANCH  24  25
ATOM     25  O   UNK A   1     -38.287  24.887   4.140  0.00  0.00    -0.482 OA
ATOM     26  H   UNK A   1     -39.005  24.323   4.350  0.00  0.00    +0.295 HD
ENDBRANCH  24  25
ENDBRANCH  18  24
ENDBRANCH  17  18
ENDBRANCH  16  17
ENDBRANCH   3  16
TORSDOF 11
ENDMDL
MODEL 8
REMARK VINA RESULT:      -4.6      2.234      3.778
REMARK  Name = 5489007
REMARK  11 active torsions:
REMARK  status: ('A' for Active; 'I' for Inactive)
REMARK    1  A    between atoms: N_2  and  C_5
REMARK    2  A    between atoms: C_3  and  C_16
REMARK    3  A    between atoms: C_5  and  C_9
REMARK    4  A    between atoms: N_8  and  CA_11
REMARK    5  A    between atoms: CA_11  and  C_13
REMARK    6  A    between atoms: C_13  and  O_14
REMARK    7  A    between atoms: C_16  and  C_17
REMARK    8  A    between atoms: C_17  and  C_18
REMARK    9  A    between atoms: C_18  and  N_19
REMARK   10  A    between atoms: C_18  and  C_24
REMARK   11  A    between atoms: C_24  and  O_25
REMARK                            x       y       z     vdW  Elec       q    Type
REMARK                         _______ _______ _______ _____ _____    ______ ____
ROOT
ATOM      1  O   UNK A   1     -36.255  23.510   5.294  0.00  0.00    -0.275 OA
ATOM      2  N   UNK A   1     -37.395  25.204   4.186  0.00  0.00    -0.298 N 
ATOM      3  C   UNK A   1     -36.407  24.697   5.019  0.00  0.00    +0.223 C 
ATOM      4  H   UNK A   1     -37.428  26.176   4.032  0.00  0.00    +0.150 HD
ENDROOT
BRANCH   2   5
ATOM      5  C   UNK A   1     -38.375  24.367   3.534  0.00  0.00    +0.149 C 
ATOM      6  C   UNK A   1     -39.482  25.198   2.904  0.00  0.00    +0.031 C 
BRANCH   5   9
ATOM      7  O   UNK A   1     -37.262  23.995   1.414  0.00  0.00    -0.273 OA
ATOM      8  N   GLY A   2     -37.543  22.201   2.858  0.00  0.00    -0.294 N 
ATOM      9  C   UNK A   1     -37.655  23.532   2.482  0.00  0.00    +0.241 C 
ATOM     10  H   GLY A   2     -37.890  21.928   3.739  0.00  0.00    +0.150 HD
BRANCH   8  11
ATOM     11  CA  GLY A   2     -36.937  21.200   2.013  0.00  0.00    +0.200 C 
BRANCH  11  13
ATOM     12  OXT GLY A   2     -34.859  19.986   1.951  0.00  0.00    -0.248 OA
ATOM     13  C   GLY A   2     -35.685  20.609   2.607  0.00  0.00    +0.334 C 
BRANCH  13  14
ATOM     14  O   GLY A   2     -35.560  20.832   3.937  0.00  0.00    -0.479 OA
ATOM     15  H   GLY A   2     -36.256  20.598   4.518  0.00  0.00    +0.295 HD
ENDBRANCH  13  14
ENDBRANCH  11  13
ENDBRANCH   8  11
ENDBRANCH   5   9
ENDBRANCH   2   5
BRANCH   3  16
ATOM     16  C   UNK A   1     -35.523  25.801   5.573  0.00  0.00    +0.083 C 
BRANCH  16  17
ATOM     17  C   UNK A   1     -34.059  25.638   5.163  0.00  0.00    -0.001 C 
BRANCH  17  18
ATOM     18  C   UNK A   1     -33.562  26.777   4.265  0.00  0.00    +0.036 C 
BRANCH  18  19
ATOM     19  N   UNK A   1     -33.198  27.929   5.092  0.00  0.00    +0.389 N 
ATOM     20  H   UNK A   1     -32.663  27.613   5.901  0.00  0.00    -0.088 HD
ATOM     21  H   UNK A   1     -34.045  28.401   5.409  0.00  0.00    -0.088 HD
ATOM     22  H   UNK A   1     -32.633  28.577   4.543  0.00  0.00    -0.088 HD
ENDBRANCH  18  19
BRANCH  18  24
ATOM     23  O   UNK A   1     -35.109  26.591   2.391  0.00  0.00    -0.253 OA
ATOM     24  C   UNK A   1     -34.651  27.248   3.317  0.00  0.00    +0.293 C 
BRANCH  24  25
ATOM     25  O   UNK A   1     -35.058  28.514   3.592  0.00  0.00    -0.482 OA
ATOM     26  H   UNK A   1     -34.446  29.222   3.551  0.00  0.00    +0.295 HD
ENDBRANCH  24  25
ENDBRANCH  18  24
ENDBRANCH  17  18
ENDBRANCH  16  17
ENDBRANCH   3  16
TORSDOF 11
ENDMDL
MODEL 9
REMARK VINA RESULT:      -4.6      3.138      4.528
REMARK  Name = 5489007
REMARK  11 active torsions:
REMARK  status: ('A' for Active; 'I' for Inactive)
REMARK    1  A    between atoms: N_2  and  C_5
REMARK    2  A    between atoms: C_3  and  C_16
REMARK    3  A    between atoms: C_5  and  C_9
REMARK    4  A    between atoms: N_8  and  CA_11
REMARK    5  A    between atoms: CA_11  and  C_13
REMARK    6  A    between atoms: C_13  and  O_14
REMARK    7  A    between atoms: C_16  and  C_17
REMARK    8  A    between atoms: C_17  and  C_18
REMARK    9  A    between atoms: C_18  and  N_19
REMARK   10  A    between atoms: C_18  and  C_24
REMARK   11  A    between atoms: C_24  and  O_25
REMARK                            x       y       z     vdW  Elec       q    Type
REMARK                         _______ _______ _______ _____ _____    ______ ____
ROOT
ATOM      1  O   UNK A   1     -33.372  24.924   3.897  0.00  0.00    -0.275 OA
ATOM      2  N   UNK A   1     -34.849  24.289   5.574  0.00  0.00    -0.298 N 
ATOM      3  C   UNK A   1     -34.021  25.181   4.907  0.00  0.00    +0.223 C 
ATOM      4  H   UNK A   1     -35.325  24.600   6.378  0.00  0.00    +0.150 HD
ENDROOT
BRANCH   2   5
ATOM      5  C   UNK A   1     -35.042  22.926   5.139  0.00  0.00    +0.149 C 
ATOM      6  C   UNK A   1     -35.505  22.039   6.285  0.00  0.00    +0.031 C 
BRANCH   5   9
ATOM      7  O   UNK A   1     -37.170  23.465   4.110  0.00  0.00    -0.273 OA
ATOM      8  N   GLY A   2     -35.619  22.240   2.895  0.00  0.00    -0.294 N 
ATOM      9  C   UNK A   1     -36.066  22.933   4.011  0.00  0.00    +0.241 C 
ATOM     10  H   GLY A   2     -34.715  21.849   2.912  0.00  0.00    +0.150 HD
BRANCH   8  11
ATOM     11  CA  GLY A   2     -36.424  22.068   1.708  0.00  0.00    +0.200 C 
BRANCH  11  13
ATOM     12  OXT GLY A   2     -37.975  20.449   0.832  0.00  0.00    -0.248 OA
ATOM     13  C   GLY A   2     -37.112  20.729   1.655  0.00  0.00    +0.334 C 
BRANCH  13  14
ATOM     14  O   GLY A   2     -36.689  19.865   2.607  0.00  0.00    -0.479 OA
ATOM     15  H   GLY A   2     -37.251  19.174   2.897  0.00  0.00    +0.295 HD
ENDBRANCH  13  14
ENDBRANCH  11  13
ENDBRANCH   8  11
ENDBRANCH   5   9
ENDBRANCH   2   5
BRANCH   3  16
ATOM     16  C   UNK A   1     -33.998  26.539   5.589  0.00  0.00    +0.083 C 
BRANCH  16  17
ATOM     17  C   UNK A   1     -32.937  27.470   5.000  0.00  0.00    -0.001 C 
BRANCH  17  18
ATOM     18  C   UNK A   1     -31.977  28.025   6.059  0.00  0.00    +0.036 C 
BRANCH  18  19
ATOM     19  N   UNK A   1     -32.543  27.812   7.393  0.00  0.00    +0.389 N 
ATOM     20  H   UNK A   1     -31.823  27.445   8.014  0.00  0.00    -0.088 HD
ATOM     21  H   UNK A   1     -33.312  27.144   7.333  0.00  0.00    -0.088 HD
ATOM     22  H   UNK A   1     -32.891  28.698   7.760  0.00  0.00    -0.088 HD
ENDBRANCH  18  19
BRANCH  18  24
ATOM     23  O   UNK A   1     -32.654  30.305   5.526  0.00  0.00    -0.253 OA
ATOM     24  C   UNK A   1     -31.789  29.524   5.900  0.00  0.00    +0.293 C 
BRANCH  24  25
ATOM     25  O   UNK A   1     -30.523  29.916   6.198  0.00  0.00    -0.482 OA
ATOM     26  H   UNK A   1     -29.807  29.326   6.072  0.00  0.00    +0.295 HD
ENDBRANCH  24  25
ENDBRANCH  18  24
ENDBRANCH  17  18
ENDBRANCH  16  17
ENDBRANCH   3  16
TORSDOF 11
ENDMDL
