MODEL 1
REMARK VINA RESULT:      -6.5      0.000      0.000
REMARK  Name = 56965896
REMARK  5 active torsions:
REMARK  status: ('A' for Active; 'I' for Inactive)
REMARK    1  A    between atoms: N_1  and  S_3
REMARK    2  A    between atoms: N_1  and  N_16
REMARK    3  A    between atoms: S_3  and  C_6
REMARK    4  A    between atoms: C_10  and  N_15
REMARK    5  A    between atoms: N_16  and  C_17
REMARK                            x       y       z     vdW  Elec       q    Type
REMARK                         _______ _______ _______ _____ _____    ______ ____
ROOT
ATOM      1  N   UNL     1     -37.236  24.960   0.667  0.00  0.00    -0.063 NA
ATOM      2  C   UNL     1     -37.632  25.951  -0.365  0.00  0.00    +0.140 C 
ENDROOT
BRANCH   1   3
ATOM      3  S   UNL     1     -37.910  25.167   2.247  0.00  0.00    +0.079 S 
ATOM      4  O   UNL     1     -38.236  26.568   2.440  0.00  0.00    -0.151 OA
ATOM      5  O   UNL     1     -38.907  24.142   2.492  0.00  0.00    -0.151 OA
BRANCH   3   6
ATOM      6  C   UNL     1     -36.532  24.772   3.281  0.00  0.00    +0.121 C 
ATOM      7  C   UNL     1     -35.434  25.626   3.379  0.00  0.00    -0.003 C 
ATOM      8  C   UNL     1     -36.556  23.581   4.007  0.00  0.00    +0.044 C 
ATOM      9  C   UNL     1     -34.360  25.290   4.203  0.00  0.00    -0.001 C 
ATOM     10  C   UNL     1     -35.481  23.245   4.831  0.00  0.00    +0.144 C 
ATOM     11  C   UNL     1     -35.376  26.909   2.614  0.00  0.00    +0.032 C 
ATOM     12  C   UNL     1     -34.383  24.099   4.928  0.00  0.00    +0.024 C 
BRANCH  10  15
ATOM     13  O   UNL     1     -35.019  20.997   5.055  0.00  0.00    -0.126 OA
ATOM     14  O   UNL     1     -36.013  22.029   6.717  0.00  0.00    -0.126 OA
ATOM     15  N   UNL     1     -35.505  22.033   5.570  0.00  0.00    +0.058 N 
ENDBRANCH  10  15
ENDBRANCH   3   6
ENDBRANCH   1   3
BRANCH   1  16
ATOM     16  N   UNL     1     -37.345  23.574   0.187  0.00  0.00    -0.141 NA
BRANCH  16  17
ATOM     17  C   UNL     1     -36.181  22.969   0.071  0.00  0.00    +0.115 C 
ATOM     18 BR   UNL     1     -30.860  20.911  -0.925  0.00  0.00    -0.048 Br
ATOM     19  N   UNL     1     -34.653  21.082   0.660  0.00  0.00    -0.250 N 
ATOM     20  N   UNL     1     -35.952  19.896   2.041  0.00  0.00    -0.249 NA
ATOM     21  C   UNL     1     -35.847  21.753   0.742  0.00  0.00    +0.077 C 
ATOM     22  C   UNL     1     -34.767  19.957   1.470  0.00  0.00    +0.135 C 
ATOM     23  C   UNL     1     -36.624  21.005   1.594  0.00  0.00    +0.170 C 
ATOM     24  C   UNL     1     -33.508  21.398  -0.067  0.00  0.00    +0.077 C 
ATOM     25  C   UNL     1     -33.633  19.096   1.543  0.00  0.00    +0.035 C 
ATOM     26  C   UNL     1     -32.441  20.584   0.004  0.00  0.00    +0.050 C 
ATOM     27  C   UNL     1     -32.520  19.394   0.844  0.00  0.00    +0.011 C 
ENDBRANCH  16  17
ENDBRANCH   1  16
TORSDOF 5
ENDMDL
MODEL 2
REMARK VINA RESULT:      -6.3      3.683      6.411
REMARK  Name = 56965896
REMARK  5 active torsions:
REMARK  status: ('A' for Active; 'I' for Inactive)
REMARK    1  A    between atoms: N_1  and  S_3
REMARK    2  A    between atoms: N_1  and  N_16
REMARK    3  A    between atoms: S_3  and  C_6
REMARK    4  A    between atoms: C_10  and  N_15
REMARK    5  A    between atoms: N_16  and  C_17
REMARK                            x       y       z     vdW  Elec       q    Type
REMARK                         _______ _______ _______ _____ _____    ______ ____
ROOT
ATOM      1  N   UNL     1     -33.558  23.477  -1.134  0.00  0.00    -0.063 NA
ATOM      2  C   UNL     1     -34.206  23.923  -2.393  0.00  0.00    +0.140 C 
ENDROOT
BRANCH   1   3
ATOM      3  S   UNL     1     -32.143  22.494  -1.291  0.00  0.00    +0.079 S 
ATOM      4  O   UNL     1     -32.044  22.025  -2.660  0.00  0.00    -0.151 OA
ATOM      5  O   UNL     1     -31.016  23.156  -0.660  0.00  0.00    -0.151 OA
BRANCH   3   6
ATOM      6  C   UNL     1     -32.545  21.116  -0.260  0.00  0.00    +0.121 C 
ATOM      7  C   UNL     1     -31.633  20.083  -0.048  0.00  0.00    -0.003 C 
ATOM      8  C   UNL     1     -33.801  21.072   0.344  0.00  0.00    +0.044 C 
ATOM      9  C   UNL     1     -31.976  19.006   0.770  0.00  0.00    -0.001 C 
ATOM     10  C   UNL     1     -34.144  19.995   1.162  0.00  0.00    +0.144 C 
ATOM     11  C   UNL     1     -30.280  20.098  -0.682  0.00  0.00    +0.032 C 
ATOM     12  C   UNL     1     -33.232  18.962   1.375  0.00  0.00    +0.024 C 
BRANCH  10  15
ATOM     13  O   UNL     1     -36.404  19.537   1.114  0.00  0.00    -0.126 OA
ATOM     14  O   UNL     1     -35.538  20.328   2.970  0.00  0.00    -0.126 OA
ATOM     15  N   UNL     1     -35.423  19.951   1.779  0.00  0.00    +0.058 N 
ENDBRANCH  10  15
ENDBRANCH   3   6
ENDBRANCH   1   3
BRANCH   1  16
ATOM     16  N   UNL     1     -33.376  24.577  -0.175  0.00  0.00    -0.141 NA
BRANCH  16  17
ATOM     17  C   UNL     1     -33.788  24.282   1.041  0.00  0.00    +0.115 C 
ATOM     18 BR   UNL     1     -35.358  22.240   6.228  0.00  0.00    -0.048 Br
ATOM     19  N   UNL     1     -34.792  24.986   3.217  0.00  0.00    -0.250 N 
ATOM     20  N   UNL     1     -35.131  27.166   2.846  0.00  0.00    -0.249 NA
ATOM     21  C   UNL     1     -34.350  25.236   1.943  0.00  0.00    +0.077 C 
ATOM     22  C   UNL     1     -35.258  26.195   3.727  0.00  0.00    +0.135 C 
ATOM     23  C   UNL     1     -34.570  26.578   1.741  0.00  0.00    +0.170 C 
ATOM     24  C   UNL     1     -34.806  23.791   3.931  0.00  0.00    +0.077 C 
ATOM     25  C   UNL     1     -35.773  26.180   5.056  0.00  0.00    +0.035 C 
ATOM     26  C   UNL     1     -35.293  23.781   5.184  0.00  0.00    +0.050 C 
ATOM     27  C   UNL     1     -35.790  25.028   5.754  0.00  0.00    +0.011 C 
ENDBRANCH  16  17
ENDBRANCH   1  16
TORSDOF 5
ENDMDL
MODEL 3
REMARK VINA RESULT:      -6.3      5.809      7.475
REMARK  Name = 56965896
REMARK  5 active torsions:
REMARK  status: ('A' for Active; 'I' for Inactive)
REMARK    1  A    between atoms: N_1  and  S_3
REMARK    2  A    between atoms: N_1  and  N_16
REMARK    3  A    between atoms: S_3  and  C_6
REMARK    4  A    between atoms: C_10  and  N_15
REMARK    5  A    between atoms: N_16  and  C_17
REMARK                            x       y       z     vdW  Elec       q    Type
REMARK                         _______ _______ _______ _____ _____    ______ ____
ROOT
ATOM      1  N   UNL     1     -42.054  25.404   0.797  0.00  0.00    -0.063 NA
ATOM      2  C   UNL     1     -41.401  25.982  -0.404  0.00  0.00    +0.140 C 
ENDROOT
BRANCH   1   3
ATOM      3  S   UNL     1     -43.780  25.286   0.766  0.00  0.00    +0.079 S 
ATOM      4  O   UNL     1     -44.291  26.128  -0.299  0.00  0.00    -0.151 OA
ATOM      5  O   UNL     1     -44.177  23.892   0.853  0.00  0.00    -0.151 OA
BRANCH   3   6
ATOM      6  C   UNL     1     -44.220  26.020   2.312  0.00  0.00    +0.121 C 
ATOM      7  C   UNL     1     -45.329  25.577   3.033  0.00  0.00    -0.003 C 
ATOM      8  C   UNL     1     -43.437  27.063   2.809  0.00  0.00    +0.044 C 
ATOM      9  C   UNL     1     -45.654  26.175   4.251  0.00  0.00    -0.001 C 
ATOM     10  C   UNL     1     -43.762  27.660   4.026  0.00  0.00    +0.144 C 
ATOM     11  C   UNL     1     -46.190  24.465   2.529  0.00  0.00    +0.032 C 
ATOM     12  C   UNL     1     -44.871  27.218   4.747  0.00  0.00    +0.024 C 
BRANCH  10  15
ATOM     13  O   UNL     1     -43.524  29.787   4.885  0.00  0.00    -0.126 OA
ATOM     14  O   UNL     1     -41.722  28.564   4.611  0.00  0.00    -0.126 OA
ATOM     15  N   UNL     1     -42.965  28.721   4.532  0.00  0.00    +0.058 N 
ENDBRANCH  10  15
ENDBRANCH   3   6
ENDBRANCH   1   3
BRANCH   1  16
ATOM     16  N   UNL     1     -41.413  24.157   1.242  0.00  0.00    -0.141 NA
BRANCH  16  17
ATOM     17  C   UNL     1     -40.331  24.355   1.966  0.00  0.00    +0.115 C 
ATOM     18 BR   UNL     1     -35.895  25.938   5.335  0.00  0.00    -0.048 Br
ATOM     19  N   UNL     1     -38.134  23.552   2.841  0.00  0.00    -0.250 N 
ATOM     20  N   UNL     1     -38.013  21.527   1.899  0.00  0.00    -0.249 NA
ATOM     21  C   UNL     1     -39.278  23.400   2.101  0.00  0.00    +0.077 C 
ATOM     22  C   UNL     1     -37.395  22.382   2.687  0.00  0.00    +0.135 C 
ATOM     23  C   UNL     1     -39.178  22.151   1.533  0.00  0.00    +0.170 C 
ATOM     24  C   UNL     1     -37.721  24.629   3.620  0.00  0.00    +0.077 C 
ATOM     25  C   UNL     1     -36.149  22.310   3.375  0.00  0.00    +0.035 C 
ATOM     26  C   UNL     1     -36.544  24.557   4.268  0.00  0.00    +0.050 C 
ATOM     27  C   UNL     1     -35.741  23.347   4.131  0.00  0.00    +0.011 C 
ENDBRANCH  16  17
ENDBRANCH   1  16
TORSDOF 5
ENDMDL
MODEL 4
REMARK VINA RESULT:      -6.3      4.656      6.156
REMARK  Name = 56965896
REMARK  5 active torsions:
REMARK  status: ('A' for Active; 'I' for Inactive)
REMARK    1  A    between atoms: N_1  and  S_3
REMARK    2  A    between atoms: N_1  and  N_16
REMARK    3  A    between atoms: S_3  and  C_6
REMARK    4  A    between atoms: C_10  and  N_15
REMARK    5  A    between atoms: N_16  and  C_17
REMARK                            x       y       z     vdW  Elec       q    Type
REMARK                         _______ _______ _______ _____ _____    ______ ____
ROOT
ATOM      1  N   UNL     1     -34.100  28.155   2.001  0.00  0.00    -0.063 NA
ATOM      2  C   UNL     1     -33.545  27.508   0.786  0.00  0.00    +0.140 C 
ENDROOT
BRANCH   1   3
ATOM      3  S   UNL     1     -34.003  29.880   2.080  0.00  0.00    +0.079 S 
ATOM      4  O   UNL     1     -33.406  30.375   0.854  0.00  0.00    -0.151 OA
ATOM      5  O   UNL     1     -35.265  30.420   2.551  0.00  0.00    -0.151 OA
BRANCH   3   6
ATOM      6  C   UNL     1     -32.846  30.117   3.394  0.00  0.00    +0.121 C 
ATOM      7  C   UNL     1     -32.272  31.365   3.636  0.00  0.00    -0.003 C 
ATOM      8  C   UNL     1     -32.506  29.027   4.196  0.00  0.00    +0.044 C 
ATOM      9  C   UNL     1     -31.361  31.525   4.680  0.00  0.00    -0.001 C 
ATOM     10  C   UNL     1     -31.595  29.187   5.240  0.00  0.00    +0.144 C 
ATOM     11  C   UNL     1     -32.612  32.553   2.795  0.00  0.00    +0.032 C 
ATOM     12  C   UNL     1     -31.022  30.435   5.482  0.00  0.00    +0.024 C 
BRANCH  10  15
ATOM     13  O   UNL     1     -32.167  27.394   6.573  0.00  0.00    -0.126 OA
ATOM     14  O   UNL     1     -30.038  27.812   6.243  0.00  0.00    -0.126 OA
ATOM     15  N   UNL     1     -31.250  28.077   6.057  0.00  0.00    +0.058 N 
ENDBRANCH  10  15
ENDBRANCH   3   6
ENDBRANCH   1   3
BRANCH   1  16
ATOM     16  N   UNL     1     -35.438  27.650   2.346  0.00  0.00    -0.141 NA
BRANCH  16  17
ATOM     17  C   UNL     1     -35.478  26.344   2.508  0.00  0.00    +0.115 C 
ATOM     18 BR   UNL     1     -35.742  20.559   2.427  0.00  0.00    -0.048 Br
ATOM     19  N   UNL     1     -35.384  24.344   4.002  0.00  0.00    -0.250 N 
ATOM     20  N   UNL     1     -35.098  25.313   5.997  0.00  0.00    -0.249 NA
ATOM     21  C   UNL     1     -35.352  25.696   3.775  0.00  0.00    +0.077 C 
ATOM     22  C   UNL     1     -35.224  24.161   5.372  0.00  0.00    +0.135 C 
ATOM     23  C   UNL     1     -35.177  26.266   5.014  0.00  0.00    +0.170 C 
ATOM     24  C   UNL     1     -35.540  23.298   3.096  0.00  0.00    +0.077 C 
ATOM     25  C   UNL     1     -35.225  22.817   5.849  0.00  0.00    +0.035 C 
ATOM     26  C   UNL     1     -35.541  22.032   3.550  0.00  0.00    +0.050 C 
ATOM     27  C   UNL     1     -35.376  21.799   4.980  0.00  0.00    +0.011 C 
ENDBRANCH  16  17
ENDBRANCH   1  16
TORSDOF 5
ENDMDL
MODEL 5
REMARK VINA RESULT:      -6.1      4.921      6.114
REMARK  Name = 56965896
REMARK  5 active torsions:
REMARK  status: ('A' for Active; 'I' for Inactive)
REMARK    1  A    between atoms: N_1  and  S_3
REMARK    2  A    between atoms: N_1  and  N_16
REMARK    3  A    between atoms: S_3  and  C_6
REMARK    4  A    between atoms: C_10  and  N_15
REMARK    5  A    between atoms: N_16  and  C_17
REMARK                            x       y       z     vdW  Elec       q    Type
REMARK                         _______ _______ _______ _____ _____    ______ ____
ROOT
ATOM      1  N   UNL     1     -32.711  26.527   3.468  0.00  0.00    -0.063 NA
ATOM      2  C   UNL     1     -32.258  25.823   2.242  0.00  0.00    +0.140 C 
ENDROOT
BRANCH   1   3
ATOM      3  S   UNL     1     -33.378  28.110   3.258  0.00  0.00    +0.079 S 
ATOM      4  O   UNL     1     -33.225  28.505   1.870  0.00  0.00    -0.151 OA
ATOM      5  O   UNL     1     -34.677  28.182   3.901  0.00  0.00    -0.151 OA
BRANCH   3   6
ATOM      6  C   UNL     1     -32.286  29.095   4.238  0.00  0.00    +0.121 C 
ATOM      7  C   UNL     1     -32.384  30.486   4.250  0.00  0.00    -0.003 C 
ATOM      8  C   UNL     1     -31.313  28.457   5.007  0.00  0.00    +0.044 C 
ATOM      9  C   UNL     1     -31.509  31.240   5.033  0.00  0.00    -0.001 C 
ATOM     10  C   UNL     1     -30.438  29.211   5.789  0.00  0.00    +0.144 C 
ATOM     11  C   UNL     1     -33.413  31.200   3.437  0.00  0.00    +0.032 C 
ATOM     12  C   UNL     1     -30.535  30.602   5.802  0.00  0.00    +0.024 C 
BRANCH  10  15
ATOM     13  O   UNL     1     -28.821  29.227   7.433  0.00  0.00    -0.126 OA
ATOM     14  O   UNL     1     -29.225  27.342   6.384  0.00  0.00    -0.126 OA
ATOM     15  N   UNL     1     -29.448  28.562   6.573  0.00  0.00    +0.058 N 
ENDBRANCH  10  15
ENDBRANCH   3   6
ENDBRANCH   1   3
BRANCH   1  16
ATOM     16  N   UNL     1     -33.544  25.676   4.330  0.00  0.00    -0.141 NA
BRANCH  16  17
ATOM     17  C   UNL     1     -34.036  24.624   3.708  0.00  0.00    +0.115 C 
ATOM     18 BR   UNL     1     -35.433  19.795   0.833  0.00  0.00    -0.048 Br
ATOM     19  N   UNL     1     -35.998  23.273   2.957  0.00  0.00    -0.250 N 
ATOM     20  N   UNL     1     -37.690  24.498   3.755  0.00  0.00    -0.249 NA
ATOM     21  C   UNL     1     -35.433  24.351   3.590  0.00  0.00    +0.077 C 
ATOM     22  C   UNL     1     -37.377  23.408   3.086  0.00  0.00    +0.135 C 
ATOM     23  C   UNL     1     -36.491  25.085   4.069  0.00  0.00    +0.170 C 
ATOM     24  C   UNL     1     -35.384  22.213   2.295  0.00  0.00    +0.077 C 
ATOM     25  C   UNL     1     -38.184  22.391   2.497  0.00  0.00    +0.035 C 
ATOM     26  C   UNL     1     -36.149  21.255   1.741  0.00  0.00    +0.050 C 
ATOM     27  C   UNL     1     -37.599  21.361   1.855  0.00  0.00    +0.011 C 
ENDBRANCH  16  17
ENDBRANCH   1  16
TORSDOF 5
ENDMDL
MODEL 6
REMARK VINA RESULT:      -6.1      3.460      5.294
REMARK  Name = 56965896
REMARK  5 active torsions:
REMARK  status: ('A' for Active; 'I' for Inactive)
REMARK    1  A    between atoms: N_1  and  S_3
REMARK    2  A    between atoms: N_1  and  N_16
REMARK    3  A    between atoms: S_3  and  C_6
REMARK    4  A    between atoms: C_10  and  N_15
REMARK    5  A    between atoms: N_16  and  C_17
REMARK                            x       y       z     vdW  Elec       q    Type
REMARK                         _______ _______ _______ _____ _____    ______ ____
ROOT
ATOM      1  N   UNL     1     -33.908  25.610   1.269  0.00  0.00    -0.063 NA
ATOM      2  C   UNL     1     -32.685  25.462   0.440  0.00  0.00    +0.140 C 
ENDROOT
BRANCH   1   3
ATOM      3  S   UNL     1     -33.683  26.105   2.911  0.00  0.00    +0.079 S 
ATOM      4  O   UNL     1     -32.264  26.097   3.216  0.00  0.00    -0.151 OA
ATOM      5  O   UNL     1     -34.484  27.285   3.181  0.00  0.00    -0.151 OA
BRANCH   3   6
ATOM      6  C   UNL     1     -34.446  24.779   3.796  0.00  0.00    +0.121 C 
ATOM      7  C   UNL     1     -34.607  24.833   5.180  0.00  0.00    -0.003 C 
ATOM      8  C   UNL     1     -34.889  23.664   3.085  0.00  0.00    +0.044 C 
ATOM      9  C   UNL     1     -35.213  23.772   5.854  0.00  0.00    -0.001 C 
ATOM     10  C   UNL     1     -35.495  22.603   3.759  0.00  0.00    +0.144 C 
ATOM     11  C   UNL     1     -34.143  26.011   5.972  0.00  0.00    +0.032 C 
ATOM     12  C   UNL     1     -35.656  22.656   5.142  0.00  0.00    +0.024 C 
BRANCH  10  15
ATOM     13  O   UNL     1     -36.956  21.579   2.298  0.00  0.00    -0.126 OA
ATOM     14  O   UNL     1     -35.325  20.384   3.153  0.00  0.00    -0.126 OA
ATOM     15  N   UNL     1     -35.947  21.468   3.035  0.00  0.00    +0.058 N 
ENDBRANCH  10  15
ENDBRANCH   3   6
ENDBRANCH   1   3
BRANCH   1  16
ATOM     16  N   UNL     1     -34.959  26.382   0.588  0.00  0.00    -0.141 NA
BRANCH  16  17
ATOM     17  C   UNL     1     -36.029  25.669   0.302  0.00  0.00    +0.115 C 
ATOM     18 BR   UNL     1     -40.292  22.210  -1.540  0.00  0.00    -0.048 Br
ATOM     19  N   UNL     1     -38.399  25.037   0.773  0.00  0.00    -0.250 N 
ATOM     20  N   UNL     1     -38.852  26.352   2.525  0.00  0.00    -0.249 NA
ATOM     21  C   UNL     1     -37.257  25.755   1.025  0.00  0.00    +0.077 C 
ATOM     22  C   UNL     1     -39.342  25.436   1.716  0.00  0.00    +0.135 C 
ATOM     23  C   UNL     1     -37.562  26.553   2.103  0.00  0.00    +0.170 C 
ATOM     24  C   UNL     1     -38.645  24.081  -0.209  0.00  0.00    +0.077 C 
ATOM     25  C   UNL     1     -40.624  24.817   1.649  0.00  0.00    +0.035 C 
ATOM     26  C   UNL     1     -39.856  23.499  -0.269  0.00  0.00    +0.050 C 
ATOM     27  C   UNL     1     -40.872  23.890   0.702  0.00  0.00    +0.011 C 
ENDBRANCH  16  17
ENDBRANCH   1  16
TORSDOF 5
ENDMDL
MODEL 7
REMARK VINA RESULT:      -6.1      2.684      4.131
REMARK  Name = 56965896
REMARK  5 active torsions:
REMARK  status: ('A' for Active; 'I' for Inactive)
REMARK    1  A    between atoms: N_1  and  S_3
REMARK    2  A    between atoms: N_1  and  N_16
REMARK    3  A    between atoms: S_3  and  C_6
REMARK    4  A    between atoms: C_10  and  N_15
REMARK    5  A    between atoms: N_16  and  C_17
REMARK                            x       y       z     vdW  Elec       q    Type
REMARK                         _______ _______ _______ _____ _____    ______ ____
ROOT
ATOM      1  N   UNL     1     -35.353  21.936   1.297  0.00  0.00    -0.063 NA
ATOM      2  C   UNL     1     -36.211  22.656   0.322  0.00  0.00    +0.140 C 
ENDROOT
BRANCH   1   3
ATOM      3  S   UNL     1     -35.916  21.867   2.931  0.00  0.00    +0.079 S 
ATOM      4  O   UNL     1     -37.351  22.077   2.944  0.00  0.00    -0.151 OA
ATOM      5  O   UNL     1     -35.337  20.716   3.599  0.00  0.00    -0.151 OA
BRANCH   3   6
ATOM      6  C   UNL     1     -35.141  23.288   3.640  0.00  0.00    +0.121 C 
ATOM      7  C   UNL     1     -35.070  23.458   5.022  0.00  0.00    -0.003 C 
ATOM      8  C   UNL     1     -34.597  24.252   2.791  0.00  0.00    +0.044 C 
ATOM      9  C   UNL     1     -34.453  24.590   5.556  0.00  0.00    -0.001 C 
ATOM     10  C   UNL     1     -33.980  25.384   3.324  0.00  0.00    +0.144 C 
ATOM     11  C   UNL     1     -35.644  22.447   5.960  0.00  0.00    +0.032 C 
ATOM     12  C   UNL     1     -33.909  25.553   4.706  0.00  0.00    +0.024 C 
BRANCH  10  15
ATOM     13  O   UNL     1     -34.184  26.979   1.671  0.00  0.00    -0.126 OA
ATOM     14  O   UNL     1     -32.191  26.588   2.505  0.00  0.00    -0.126 OA
ATOM     15  N   UNL     1     -33.425  26.364   2.459  0.00  0.00    +0.058 N 
ENDBRANCH  10  15
ENDBRANCH   3   6
ENDBRANCH   1   3
BRANCH   1  16
ATOM     16  N   UNL     1     -34.913  20.625   0.797  0.00  0.00    -0.141 NA
BRANCH  16  17
ATOM     17  C   UNL     1     -33.661  20.614   0.388  0.00  0.00    +0.115 C 
ATOM     18 BR   UNL     1     -28.323  21.274  -1.758  0.00  0.00    -0.048 Br
ATOM     19  N   UNL     1     -31.422  19.510   0.294  0.00  0.00    -0.250 N 
ATOM     20  N   UNL     1     -31.805  17.665   1.497  0.00  0.00    -0.249 NA
ATOM     21  C   UNL     1     -32.734  19.571   0.691  0.00  0.00    +0.077 C 
ATOM     22  C   UNL     1     -30.899  18.329   0.811  0.00  0.00    +0.135 C 
ATOM     23  C   UNL     1     -32.943  18.428   1.426  0.00  0.00    +0.170 C 
ATOM     24  C   UNL     1     -30.687  20.410  -0.474  0.00  0.00    +0.077 C 
ATOM     25  C   UNL     1     -29.532  18.048   0.524  0.00  0.00    +0.035 C 
ATOM     26  C   UNL     1     -29.397  20.141  -0.743  0.00  0.00    +0.050 C 
ATOM     27  C   UNL     1     -28.812  18.913  -0.218  0.00  0.00    +0.011 C 
ENDBRANCH  16  17
ENDBRANCH   1  16
TORSDOF 5
ENDMDL
MODEL 8
REMARK VINA RESULT:      -6.0      5.393      8.464
REMARK  Name = 56965896
REMARK  5 active torsions:
REMARK  status: ('A' for Active; 'I' for Inactive)
REMARK    1  A    between atoms: N_1  and  S_3
REMARK    2  A    between atoms: N_1  and  N_16
REMARK    3  A    between atoms: S_3  and  C_6
REMARK    4  A    between atoms: C_10  and  N_15
REMARK    5  A    between atoms: N_16  and  C_17
REMARK                            x       y       z     vdW  Elec       q    Type
REMARK                         _______ _______ _______ _____ _____    ______ ____
ROOT
ATOM      1  N   UNL     1     -34.935  27.270   3.117  0.00  0.00    -0.063 NA
ATOM      2  C   UNL     1     -35.998  27.472   2.099  0.00  0.00    +0.140 C 
ENDROOT
BRANCH   1   3
ATOM      3  S   UNL     1     -33.791  26.009   2.811  0.00  0.00    +0.079 S 
ATOM      4  O   UNL     1     -33.813  25.685   1.396  0.00  0.00    -0.151 OA
ATOM      5  O   UNL     1     -32.536  26.316   3.472  0.00  0.00    -0.151 OA
BRANCH   3   6
ATOM      6  C   UNL     1     -34.498  24.656   3.700  0.00  0.00    +0.121 C 
ATOM      7  C   UNL     1     -34.625  24.690   5.088  0.00  0.00    -0.003 C 
ATOM      8  C   UNL     1     -34.932  23.537   2.988  0.00  0.00    +0.044 C 
ATOM      9  C   UNL     1     -35.187  23.608   5.765  0.00  0.00    -0.001 C 
ATOM     10  C   UNL     1     -35.494  22.455   3.665  0.00  0.00    +0.144 C 
ATOM     11  C   UNL     1     -34.169  25.872   5.881  0.00  0.00    +0.032 C 
ATOM     12  C   UNL     1     -35.621  22.489   5.053  0.00  0.00    +0.024 C 
BRANCH  10  15
ATOM     13  O   UNL     1     -35.271  20.255   3.010  0.00  0.00    -0.126 OA
ATOM     14  O   UNL     1     -36.981  21.402   2.250  0.00  0.00    -0.126 OA
ATOM     15  N   UNL     1     -35.937  21.316   2.940  0.00  0.00    +0.058 N 
ENDBRANCH  10  15
ENDBRANCH   3   6
ENDBRANCH   1   3
BRANCH   1  16
ATOM     16  N   UNL     1     -34.291  28.531   3.514  0.00  0.00    -0.141 NA
BRANCH  16  17
ATOM     17  C   UNL     1     -34.812  29.591   2.932  0.00  0.00    +0.115 C 
ATOM     18 BR   UNL     1     -37.765  33.804   0.273  0.00  0.00    -0.048 Br
ATOM     19  N   UNL     1     -34.618  31.965   2.181  0.00  0.00    -0.250 N 
ATOM     20  N   UNL     1     -32.539  32.454   2.846  0.00  0.00    -0.249 NA
ATOM     21  C   UNL     1     -34.124  30.832   2.776  0.00  0.00    +0.077 C 
ATOM     22  C   UNL     1     -33.614  32.927   2.250  0.00  0.00    +0.135 C 
ATOM     23  C   UNL     1     -32.849  31.159   3.173  0.00  0.00    +0.170 C 
ATOM     24  C   UNL     1     -35.864  32.189   1.602  0.00  0.00    +0.077 C 
ATOM     25  C   UNL     1     -33.903  34.204   1.688  0.00  0.00    +0.035 C 
ATOM     26  C   UNL     1     -36.133  33.396   1.072  0.00  0.00    +0.050 C 
ATOM     27  C   UNL     1     -35.106  34.431   1.125  0.00  0.00    +0.011 C 
ENDBRANCH  16  17
ENDBRANCH   1  16
TORSDOF 5
ENDMDL
MODEL 9
REMARK VINA RESULT:      -5.8      4.714      7.212
REMARK  Name = 56965896
REMARK  5 active torsions:
REMARK  status: ('A' for Active; 'I' for Inactive)
REMARK    1  A    between atoms: N_1  and  S_3
REMARK    2  A    between atoms: N_1  and  N_16
REMARK    3  A    between atoms: S_3  and  C_6
REMARK    4  A    between atoms: C_10  and  N_15
REMARK    5  A    between atoms: N_16  and  C_17
REMARK                            x       y       z     vdW  Elec       q    Type
REMARK                         _______ _______ _______ _____ _____    ______ ____
ROOT
ATOM      1  N   UNL     1     -39.970  25.965   0.932  0.00  0.00    -0.063 NA
ATOM      2  C   UNL     1     -40.024  27.354   0.410  0.00  0.00    +0.140 C 
ENDROOT
BRANCH   1   3
ATOM      3  S   UNL     1     -41.364  24.975   0.663  0.00  0.00    +0.079 S 
ATOM      4  O   UNL     1     -41.757  25.083  -0.730  0.00  0.00    -0.151 OA
ATOM      5  O   UNL     1     -41.162  23.672   1.269  0.00  0.00    -0.151 OA
BRANCH   3   6
ATOM      6  C   UNL     1     -42.583  25.793   1.647  0.00  0.00    +0.121 C 
ATOM      7  C   UNL     1     -43.925  25.418   1.593  0.00  0.00    -0.003 C 
ATOM      8  C   UNL     1     -42.182  26.832   2.487  0.00  0.00    +0.044 C 
ATOM      9  C   UNL     1     -44.867  26.080   2.381  0.00  0.00    -0.001 C 
ATOM     10  C   UNL     1     -43.124  27.495   3.275  0.00  0.00    +0.144 C 
ATOM     11  C   UNL     1     -44.387  24.311   0.703  0.00  0.00    +0.032 C 
ATOM     12  C   UNL     1     -44.466  27.120   3.221  0.00  0.00    +0.024 C 
BRANCH  10  15
ATOM     13  O   UNL     1     -41.590  28.490   4.679  0.00  0.00    -0.126 OA
ATOM     14  O   UNL     1     -43.495  29.519   4.317  0.00  0.00    -0.126 OA
ATOM     15  N   UNL     1     -42.717  28.552   4.131  0.00  0.00    +0.058 N 
ENDBRANCH  10  15
ENDBRANCH   3   6
ENDBRANCH   1   3
BRANCH   1  16
ATOM     16  N   UNL     1     -38.717  25.280   0.579  0.00  0.00    -0.141 NA
BRANCH  16  17
ATOM     17  C   UNL     1     -38.039  24.861   1.627  0.00  0.00    +0.115 C 
ATOM     18 BR   UNL     1     -35.471  22.334   6.162  0.00  0.00    -0.048 Br
ATOM     19  N   UNL     1     -36.308  25.252   3.385  0.00  0.00    -0.250 N 
ATOM     20  N   UNL     1     -35.639  27.324   2.872  0.00  0.00    -0.249 NA
ATOM     21  C   UNL     1     -37.044  25.639   2.294  0.00  0.00    +0.077 C 
ATOM     22  C   UNL     1     -35.465  26.314   3.699  0.00  0.00    +0.135 C 
ATOM     23  C   UNL     1     -36.615  26.912   2.001  0.00  0.00    +0.170 C 
ATOM     24  C   UNL     1     -36.337  24.054   4.094  0.00  0.00    +0.077 C 
ATOM     25  C   UNL     1     -34.594  26.140   4.813  0.00  0.00    +0.035 C 
ATOM     26  C   UNL     1     -35.514  23.894   5.145  0.00  0.00    +0.050 C 
ATOM     27  C   UNL     1     -34.615  24.984   5.505  0.00  0.00    +0.011 C 
ENDBRANCH  16  17
ENDBRANCH   1  16
TORSDOF 5
ENDMDL
