MODEL 1
REMARK VINA RESULT:      -6.6      0.000      0.000
REMARK  Name = 54467117
REMARK  8 active torsions:
REMARK  status: ('A' for Active; 'I' for Inactive)
REMARK    1  A    between atoms: C_2  and  O_20
REMARK    2  A    between atoms: C_3  and  O_18
REMARK    3  A    between atoms: C_4  and  N_6
REMARK    4  A    between atoms: C_5  and  C_32
REMARK    5  A    between atoms: O_20  and  C_22
REMARK    6  A    between atoms: C_22  and  C_23
REMARK    7  A    between atoms: C_24  and  N_29
REMARK    8  A    between atoms: C_32  and  O_33
REMARK                            x       y       z     vdW  Elec       q    Type
REMARK                         _______ _______ _______ _____ _____    ______ ____
ROOT
ATOM      1  O   UNL     1     -39.918  23.995   0.576  0.00  0.00    -0.332 OA
ATOM      2  C   UNL     1     -38.516  23.302   2.364  0.00  0.00    +0.229 C 
ATOM      3  C   UNL     1     -39.632  24.166   2.919  0.00  0.00    +0.200 C 
ATOM      4  C   UNL     1     -40.102  24.912   1.674  0.00  0.00    +0.226 C 
ATOM      5  C   UNL     1     -39.062  22.910   0.998  0.00  0.00    +0.189 C 
ENDROOT
BRANCH   4   6
ATOM      6  N   UNL     1     -41.535  25.378   1.772  0.00  0.00    -0.247 N 
ATOM      7  N   UNL     1     -43.720  25.501   1.349  0.00  0.00    -0.242 NA
ATOM      8  N   UNL     1     -41.344  27.092   3.483  0.00  0.00    -0.228 NA
ATOM      9  N   UNL     1     -43.506  28.122   3.948  0.00  0.00    -0.229 NA
ATOM     10  C   UNL     1     -42.025  26.351   2.595  0.00  0.00    +0.152 C 
ATOM     11  C   UNL     1     -42.590  24.898   1.043  0.00  0.00    +0.223 C 
ATOM     12  C   UNL     1     -43.381  26.412   2.318  0.00  0.00    +0.140 C 
ATOM     13  C   UNL     1     -44.129  27.341   3.035  0.00  0.00    +0.143 C 
ATOM     14  C   UNL     1     -42.173  27.952   4.114  0.00  0.00    +0.253 C 
ATOM     15  N   UNL     1     -45.512  27.470   2.818  0.00  0.00    -0.342 N 
ATOM     16  H   UNL     1     -46.031  28.130   3.332  0.00  0.00    +0.144 HD
ATOM     17  H   UNL     1     -45.962  26.899   2.153  0.00  0.00    +0.144 HD
ENDBRANCH   4   6
BRANCH   3  18
ATOM     18  O   UNL     1     -39.200  25.030   3.951  0.00  0.00    -0.377 OA
ATOM     19  H   UNL     1     -39.875  25.064   4.647  0.00  0.00    +0.211 HD
ENDBRANCH   3  18
BRANCH   2  20
ATOM     20  O   UNL     1     -37.338  24.081   2.161  0.00  0.00    -0.444 OA
BRANCH  20  22
ATOM     21  O   UNL     1     -35.462  23.095   1.263  0.00  0.00    -0.245 OA
ATOM     22  C   UNL     1     -36.163  23.401   2.215  0.00  0.00    +0.342 C 
BRANCH  22  23
ATOM     23  C   UNL     1     -35.821  23.064   3.619  0.00  0.00    +0.088 C 
ATOM     24  C   UNL     1     -35.805  24.038   4.617  0.00  0.00    +0.048 C 
ATOM     25  C   UNL     1     -35.510  21.740   3.933  0.00  0.00    +0.008 C 
ATOM     26  C   UNL     1     -35.479  23.689   5.928  0.00  0.00    +0.014 C 
ATOM     27  C   UNL     1     -35.184  21.391   5.243  0.00  0.00    +0.000 C 
ATOM     28  C   UNL     1     -35.168  22.366   6.241  0.00  0.00    +0.001 C 
BRANCH  24  29
ATOM     29  N   UNL     1     -36.116  25.384   4.322  0.00  0.00    -0.357 N 
ATOM     30  H   UNL     1     -36.699  25.598   3.557  0.00  0.00    +0.142 HD
ATOM     31  H   UNL     1     -35.751  26.108   4.880  0.00  0.00    +0.142 HD
ENDBRANCH  24  29
ENDBRANCH  22  23
ENDBRANCH  20  22
ENDBRANCH   2  20
BRANCH   5  32
ATOM     32  C   UNL     1     -39.891  21.634   1.029  0.00  0.00    +0.171 C 
BRANCH  32  33
ATOM     33  O   UNL     1     -39.489  20.858   2.144  0.00  0.00    -0.379 OA
ATOM     34  H   UNL     1     -38.712  21.266   2.559  0.00  0.00    +0.211 HD
ENDBRANCH  32  33
ENDBRANCH   5  32
TORSDOF 8
ENDMDL
MODEL 2
REMARK VINA RESULT:      -6.3      3.783      5.529
REMARK  Name = 54467117
REMARK  8 active torsions:
REMARK  status: ('A' for Active; 'I' for Inactive)
REMARK    1  A    between atoms: C_2  and  O_20
REMARK    2  A    between atoms: C_3  and  O_18
REMARK    3  A    between atoms: C_4  and  N_6
REMARK    4  A    between atoms: C_5  and  C_32
REMARK    5  A    between atoms: O_20  and  C_22
REMARK    6  A    between atoms: C_22  and  C_23
REMARK    7  A    between atoms: C_24  and  N_29
REMARK    8  A    between atoms: C_32  and  O_33
REMARK                            x       y       z     vdW  Elec       q    Type
REMARK                         _______ _______ _______ _____ _____    ______ ____
ROOT
ATOM      1  O   UNL     1     -35.444  23.004   3.783  0.00  0.00    -0.332 OA
ATOM      2  C   UNL     1     -35.121  24.700   5.415  0.00  0.00    +0.229 C 
ATOM      3  C   UNL     1     -36.428  24.956   4.690  0.00  0.00    +0.200 C 
ATOM      4  C   UNL     1     -36.243  24.145   3.411  0.00  0.00    +0.226 C 
ATOM      5  C   UNL     1     -34.847  23.241   5.078  0.00  0.00    +0.189 C 
ENDROOT
BRANCH   4   6
ATOM      6  N   UNL     1     -37.552  23.725   2.785  0.00  0.00    -0.247 N 
ATOM      7  N   UNL     1     -39.193  22.389   2.086  0.00  0.00    -0.242 NA
ATOM      8  N   UNL     1     -38.444  25.877   2.097  0.00  0.00    -0.228 NA
ATOM      9  N   UNL     1     -40.614  25.629   1.011  0.00  0.00    -0.229 NA
ATOM     10  C   UNL     1     -38.488  24.541   2.218  0.00  0.00    +0.152 C 
ATOM     11  C   UNL     1     -38.020  22.443   2.682  0.00  0.00    +0.223 C 
ATOM     12  C   UNL     1     -39.497  23.694   1.791  0.00  0.00    +0.140 C 
ATOM     13  C   UNL     1     -40.592  24.284   1.166  0.00  0.00    +0.143 C 
ATOM     14  C   UNL     1     -39.556  26.332   1.479  0.00  0.00    +0.253 C 
ATOM     15  N   UNL     1     -41.662  23.500   0.702  0.00  0.00    -0.342 N 
ATOM     16  H   UNL     1     -42.431  23.929   0.263  0.00  0.00    +0.144 HD
ATOM     17  H   UNL     1     -41.642  22.522   0.818  0.00  0.00    +0.144 HD
ENDBRANCH   4   6
BRANCH   3  18
ATOM     18  O   UNL     1     -36.664  26.328   4.446  0.00  0.00    -0.377 OA
ATOM     19  H   UNL     1     -36.586  26.505   3.495  0.00  0.00    +0.211 HD
ENDBRANCH   3  18
BRANCH   2  20
ATOM     20  O   UNL     1     -34.075  25.487   4.848  0.00  0.00    -0.444 OA
BRANCH  20  22
ATOM     21  O   UNL     1     -33.707  26.587   6.837  0.00  0.00    -0.245 OA
ATOM     22  C   UNL     1     -33.613  26.504   5.622  0.00  0.00    +0.342 C 
BRANCH  22  23
ATOM     23  C   UNL     1     -32.959  27.541   4.784  0.00  0.00    +0.088 C 
ATOM     24  C   UNL     1     -31.892  28.298   5.268  0.00  0.00    +0.048 C 
ATOM     25  C   UNL     1     -33.432  27.751   3.489  0.00  0.00    +0.008 C 
ATOM     26  C   UNL     1     -31.299  29.265   4.457  0.00  0.00    +0.014 C 
ATOM     27  C   UNL     1     -32.838  28.718   2.678  0.00  0.00    +0.000 C 
ATOM     28  C   UNL     1     -31.772  29.476   3.162  0.00  0.00    +0.001 C 
BRANCH  24  29
ATOM     29  N   UNL     1     -31.398  28.102   6.577  0.00  0.00    -0.357 N 
ATOM     30  H   UNL     1     -32.018  28.098   7.342  0.00  0.00    +0.142 HD
ATOM     31  H   UNL     1     -30.434  27.968   6.724  0.00  0.00    +0.142 HD
ENDBRANCH  24  29
ENDBRANCH  22  23
ENDBRANCH  20  22
ENDBRANCH   2  20
BRANCH   5  32
ATOM     32  C   UNL     1     -35.467  22.271   6.073  0.00  0.00    +0.171 C 
BRANCH  32  33
ATOM     33  O   UNL     1     -35.284  20.950   5.594  0.00  0.00    -0.379 OA
ATOM     34  H   UNL     1     -35.816  20.337   6.126  0.00  0.00    +0.211 HD
ENDBRANCH  32  33
ENDBRANCH   5  32
TORSDOF 8
ENDMDL
MODEL 3
REMARK VINA RESULT:      -6.3      5.370      7.770
REMARK  Name = 54467117
REMARK  8 active torsions:
REMARK  status: ('A' for Active; 'I' for Inactive)
REMARK    1  A    between atoms: C_2  and  O_20
REMARK    2  A    between atoms: C_3  and  O_18
REMARK    3  A    between atoms: C_4  and  N_6
REMARK    4  A    between atoms: C_5  and  C_32
REMARK    5  A    between atoms: O_20  and  C_22
REMARK    6  A    between atoms: C_22  and  C_23
REMARK    7  A    between atoms: C_24  and  N_29
REMARK    8  A    between atoms: C_32  and  O_33
REMARK                            x       y       z     vdW  Elec       q    Type
REMARK                         _______ _______ _______ _____ _____    ______ ____
ROOT
ATOM      1  O   UNL     1     -35.727  24.740   5.135  0.00  0.00    -0.332 OA
ATOM      2  C   UNL     1     -35.195  23.354   3.280  0.00  0.00    +0.229 C 
ATOM      3  C   UNL     1     -34.143  24.439   3.403  0.00  0.00    +0.200 C 
ATOM      4  C   UNL     1     -34.863  25.483   4.251  0.00  0.00    +0.226 C 
ATOM      5  C   UNL     1     -35.847  23.382   4.655  0.00  0.00    +0.189 C 
ENDROOT
BRANCH   4   6
ATOM      6  N   UNL     1     -33.916  26.372   5.020  0.00  0.00    -0.247 N 
ATOM      7  N   UNL     1     -32.786  27.212   6.748  0.00  0.00    -0.242 NA
ATOM      8  N   UNL     1     -33.098  27.816   3.246  0.00  0.00    -0.228 NA
ATOM      9  N   UNL     1     -31.496  29.447   4.100  0.00  0.00    -0.229 NA
ATOM     10  C   UNL     1     -33.160  27.393   4.518  0.00  0.00    +0.152 C 
ATOM     11  C   UNL     1     -33.658  26.303   6.363  0.00  0.00    +0.223 C 
ATOM     12  C   UNL     1     -32.467  27.900   5.605  0.00  0.00    +0.140 C 
ATOM     13  C   UNL     1     -31.609  28.968   5.361  0.00  0.00    +0.143 C 
ATOM     14  C   UNL     1     -32.236  28.850   3.135  0.00  0.00    +0.253 C 
ATOM     15  N   UNL     1     -30.865  29.543   6.406  0.00  0.00    -0.342 N 
ATOM     16  H   UNL     1     -30.261  30.298   6.221  0.00  0.00    +0.144 HD
ATOM     17  H   UNL     1     -30.949  29.192   7.322  0.00  0.00    +0.144 HD
ENDBRANCH   4   6
BRANCH   3  18
ATOM     18  O   UNL     1     -33.718  24.940   2.152  0.00  0.00    -0.377 OA
ATOM     19  H   UNL     1     -32.776  25.170   2.198  0.00  0.00    +0.211 HD
ENDBRANCH   3  18
BRANCH   2  20
ATOM     20  O   UNL     1     -36.181  23.724   2.317  0.00  0.00    -0.444 OA
BRANCH  20  22
ATOM     21  O   UNL     1     -37.746  22.609   1.050  0.00  0.00    -0.245 OA
ATOM     22  C   UNL     1     -36.619  22.727   1.505  0.00  0.00    +0.342 C 
BRANCH  22  23
ATOM     23  C   UNL     1     -35.525  21.763   1.228  0.00  0.00    +0.088 C 
ATOM     24  C   UNL     1     -35.534  20.478   1.772  0.00  0.00    +0.048 C 
ATOM     25  C   UNL     1     -34.471  22.164   0.406  0.00  0.00    +0.008 C 
ATOM     26  C   UNL     1     -34.491  19.595   1.493  0.00  0.00    +0.014 C 
ATOM     27  C   UNL     1     -33.428  21.281   0.127  0.00  0.00    +0.000 C 
ATOM     28  C   UNL     1     -33.438  19.996   0.671  0.00  0.00    +0.001 C 
BRANCH  24  29
ATOM     29  N   UNL     1     -36.591  20.052   2.607  0.00  0.00    -0.357 N 
ATOM     30  H   UNL     1     -37.439  19.746   2.210  0.00  0.00    +0.142 HD
ATOM     31  H   UNL     1     -36.480  20.060   3.585  0.00  0.00    +0.142 HD
ENDBRANCH  24  29
ENDBRANCH  22  23
ENDBRANCH  20  22
ENDBRANCH   2  20
BRANCH   5  32
ATOM     32  C   UNL     1     -35.167  22.461   5.658  0.00  0.00    +0.171 C 
BRANCH  32  33
ATOM     33  O   UNL     1     -35.418  21.117   5.283  0.00  0.00    -0.379 OA
ATOM     34  H   UNL     1     -36.372  20.945   5.314  0.00  0.00    +0.211 HD
ENDBRANCH  32  33
ENDBRANCH   5  32
TORSDOF 8
ENDMDL
MODEL 4
REMARK VINA RESULT:      -6.3      4.487      7.975
REMARK  Name = 54467117
REMARK  8 active torsions:
REMARK  status: ('A' for Active; 'I' for Inactive)
REMARK    1  A    between atoms: C_2  and  O_20
REMARK    2  A    between atoms: C_3  and  O_18
REMARK    3  A    between atoms: C_4  and  N_6
REMARK    4  A    between atoms: C_5  and  C_32
REMARK    5  A    between atoms: O_20  and  C_22
REMARK    6  A    between atoms: C_22  and  C_23
REMARK    7  A    between atoms: C_24  and  N_29
REMARK    8  A    between atoms: C_32  and  O_33
REMARK                            x       y       z     vdW  Elec       q    Type
REMARK                         _______ _______ _______ _____ _____    ______ ____
ROOT
ATOM      1  O   UNL     1     -34.596  26.483   2.393  0.00  0.00    -0.332 OA
ATOM      2  C   UNL     1     -35.747  25.302   4.105  0.00  0.00    +0.229 C 
ATOM      3  C   UNL     1     -34.869  26.361   4.741  0.00  0.00    +0.200 C 
ATOM      4  C   UNL     1     -33.869  26.654   3.627  0.00  0.00    +0.226 C 
ATOM      5  C   UNL     1     -35.830  25.779   2.661  0.00  0.00    +0.189 C 
ENDROOT
BRANCH   4   6
ATOM      6  N   UNL     1     -33.263  28.034   3.725  0.00  0.00    -0.247 N 
ATOM      7  N   UNL     1     -32.891  30.184   3.269  0.00  0.00    -0.242 NA
ATOM      8  N   UNL     1     -31.681  27.713   5.540  0.00  0.00    -0.228 NA
ATOM      9  N   UNL     1     -30.460  29.769   6.025  0.00  0.00    -0.229 NA
ATOM     10  C   UNL     1     -32.294  28.443   4.596  0.00  0.00    +0.152 C 
ATOM     11  C   UNL     1     -33.589  29.113   2.949  0.00  0.00    +0.223 C 
ATOM     12  C   UNL     1     -32.078  29.778   4.297  0.00  0.00    +0.140 C 
ATOM     13  C   UNL     1     -31.119  30.445   5.054  0.00  0.00    +0.143 C 
ATOM     14  C   UNL     1     -30.777  28.465   6.205  0.00  0.00    +0.253 C 
ATOM     15  N   UNL     1     -30.836  31.802   4.819  0.00  0.00    -0.342 N 
ATOM     16  H   UNL     1     -30.156  32.263   5.362  0.00  0.00    +0.144 HD
ATOM     17  H   UNL     1     -31.318  32.290   4.113  0.00  0.00    +0.144 HD
ENDBRANCH   4   6
BRANCH   3  18
ATOM     18  O   UNL     1     -34.252  25.923   5.935  0.00  0.00    -0.377 OA
ATOM     19  H   UNL     1     -34.260  26.642   6.586  0.00  0.00    +0.211 HD
ENDBRANCH   3  18
BRANCH   2  20
ATOM     20  O   UNL     1     -35.087  24.037   4.113  0.00  0.00    -0.444 OA
BRANCH  20  22
ATOM     21  O   UNL     1     -36.177  22.770   5.696  0.00  0.00    -0.245 OA
ATOM     22  C   UNL     1     -35.830  22.985   4.545  0.00  0.00    +0.342 C 
BRANCH  22  23
ATOM     23  C   UNL     1     -36.181  22.095   3.410  0.00  0.00    +0.088 C 
ATOM     24  C   UNL     1     -37.368  22.263   2.696  0.00  0.00    +0.048 C 
ATOM     25  C   UNL     1     -35.297  21.073   3.062  0.00  0.00    +0.008 C 
ATOM     26  C   UNL     1     -37.670  21.410   1.635  0.00  0.00    +0.014 C 
ATOM     27  C   UNL     1     -35.600  20.220   2.001  0.00  0.00    +0.000 C 
ATOM     28  C   UNL     1     -36.787  20.388   1.287  0.00  0.00    +0.001 C 
BRANCH  24  29
ATOM     29  N   UNL     1     -38.277  23.290   3.032  0.00  0.00    -0.357 N 
ATOM     30  H   UNL     1     -38.786  23.242   3.874  0.00  0.00    +0.142 HD
ATOM     31  H   UNL     1     -38.402  24.055   2.424  0.00  0.00    +0.142 HD
ENDBRANCH  24  29
ENDBRANCH  22  23
ENDBRANCH  20  22
ENDBRANCH   2  20
BRANCH   5  32
ATOM     32  C   UNL     1     -36.987  26.736   2.414  0.00  0.00    +0.171 C 
BRANCH  32  33
ATOM     33  O   UNL     1     -38.038  26.420   3.310  0.00  0.00    -0.379 OA
ATOM     34  H   UNL     1     -38.649  27.171   3.370  0.00  0.00    +0.211 HD
ENDBRANCH  32  33
ENDBRANCH   5  32
TORSDOF 8
ENDMDL
MODEL 5
REMARK VINA RESULT:      -6.3      3.378      7.798
REMARK  Name = 54467117
REMARK  8 active torsions:
REMARK  status: ('A' for Active; 'I' for Inactive)
REMARK    1  A    between atoms: C_2  and  O_20
REMARK    2  A    between atoms: C_3  and  O_18
REMARK    3  A    between atoms: C_4  and  N_6
REMARK    4  A    between atoms: C_5  and  C_32
REMARK    5  A    between atoms: O_20  and  C_22
REMARK    6  A    between atoms: C_22  and  C_23
REMARK    7  A    between atoms: C_24  and  N_29
REMARK    8  A    between atoms: C_32  and  O_33
REMARK                            x       y       z     vdW  Elec       q    Type
REMARK                         _______ _______ _______ _____ _____    ______ ____
ROOT
ATOM      1  O   UNL     1     -35.809  24.680   5.259  0.00  0.00    -0.332 OA
ATOM      2  C   UNL     1     -35.472  23.326   3.336  0.00  0.00    +0.229 C 
ATOM      3  C   UNL     1     -34.421  24.418   3.361  0.00  0.00    +0.200 C 
ATOM      4  C   UNL     1     -35.052  25.443   4.298  0.00  0.00    +0.226 C 
ATOM      5  C   UNL     1     -35.970  23.328   4.775  0.00  0.00    +0.189 C 
ENDROOT
BRANCH   4   6
ATOM      6  N   UNL     1     -34.033  26.330   4.973  0.00  0.00    -0.247 N 
ATOM      7  N   UNL     1     -32.762  27.185   6.592  0.00  0.00    -0.242 NA
ATOM      8  N   UNL     1     -33.322  27.715   3.108  0.00  0.00    -0.228 NA
ATOM      9  N   UNL     1     -31.630  29.331   3.800  0.00  0.00    -0.229 NA
ATOM     10  C   UNL     1     -33.297  27.322   4.391  0.00  0.00    +0.152 C 
ATOM     11  C   UNL     1     -33.677  26.286   6.294  0.00  0.00    +0.223 C 
ATOM     12  C   UNL     1     -32.516  27.840   5.411  0.00  0.00    +0.140 C 
ATOM     13  C   UNL     1     -31.657  28.884   5.078  0.00  0.00    +0.143 C 
ATOM     14  C   UNL     1     -32.452  28.728   2.908  0.00  0.00    +0.253 C 
ATOM     15  N   UNL     1     -30.827  29.468   6.050  0.00  0.00    -0.342 N 
ATOM     16  H   UNL     1     -30.224  30.205   5.803  0.00  0.00    +0.144 HD
ATOM     17  H   UNL     1     -30.849  29.139   6.979  0.00  0.00    +0.144 HD
ENDBRANCH   4   6
BRANCH   3  18
ATOM     18  O   UNL     1     -34.139  24.942   2.078  0.00  0.00    -0.377 OA
ATOM     19  H   UNL     1     -34.016  25.902   2.141  0.00  0.00    +0.211 HD
ENDBRANCH   3  18
BRANCH   2  20
ATOM     20  O   UNL     1     -36.560  23.701   2.493  0.00  0.00    -0.444 OA
BRANCH  20  22
ATOM     21  O   UNL     1     -37.550  21.629   2.661  0.00  0.00    -0.245 OA
ATOM     22  C   UNL     1     -37.603  22.832   2.451  0.00  0.00    +0.342 C 
BRANCH  22  23
ATOM     23  C   UNL     1     -38.860  23.543   2.108  0.00  0.00    +0.088 C 
ATOM     24  C   UNL     1     -39.326  24.607   2.880  0.00  0.00    +0.048 C 
ATOM     25  C   UNL     1     -39.580  23.127   0.987  0.00  0.00    +0.008 C 
ATOM     26  C   UNL     1     -40.512  25.255   2.532  0.00  0.00    +0.014 C 
ATOM     27  C   UNL     1     -40.765  23.774   0.639  0.00  0.00    +0.000 C 
ATOM     28  C   UNL     1     -41.231  24.839   1.411  0.00  0.00    +0.001 C 
BRANCH  24  29
ATOM     29  N   UNL     1     -38.614  25.044   4.018  0.00  0.00    -0.357 N 
ATOM     30  H   UNL     1     -37.631  24.977   4.039  0.00  0.00    +0.142 HD
ATOM     31  H   UNL     1     -39.098  25.415   4.790  0.00  0.00    +0.142 HD
ENDBRANCH  24  29
ENDBRANCH  22  23
ENDBRANCH  20  22
ENDBRANCH   2  20
BRANCH   5  32
ATOM     32  C   UNL     1     -35.178  22.398   5.683  0.00  0.00    +0.171 C 
BRANCH  32  33
ATOM     33  O   UNL     1     -35.528  21.059   5.381  0.00  0.00    -0.379 OA
ATOM     34  H   UNL     1     -34.792  20.472   5.614  0.00  0.00    +0.211 HD
ENDBRANCH  32  33
ENDBRANCH   5  32
TORSDOF 8
ENDMDL
MODEL 6
REMARK VINA RESULT:      -6.2      3.990      6.281
REMARK  Name = 54467117
REMARK  8 active torsions:
REMARK  status: ('A' for Active; 'I' for Inactive)
REMARK    1  A    between atoms: C_2  and  O_20
REMARK    2  A    between atoms: C_3  and  O_18
REMARK    3  A    between atoms: C_4  and  N_6
REMARK    4  A    between atoms: C_5  and  C_32
REMARK    5  A    between atoms: O_20  and  C_22
REMARK    6  A    between atoms: C_22  and  C_23
REMARK    7  A    between atoms: C_24  and  N_29
REMARK    8  A    between atoms: C_32  and  O_33
REMARK                            x       y       z     vdW  Elec       q    Type
REMARK                         _______ _______ _______ _____ _____    ______ ____
ROOT
ATOM      1  O   UNL     1     -35.473  22.863   3.947  0.00  0.00    -0.332 OA
ATOM      2  C   UNL     1     -35.170  24.649   5.485  0.00  0.00    +0.229 C 
ATOM      3  C   UNL     1     -36.466  24.864   4.728  0.00  0.00    +0.200 C 
ATOM      4  C   UNL     1     -36.265  23.982   3.500  0.00  0.00    +0.226 C 
ATOM      5  C   UNL     1     -34.893  23.173   5.234  0.00  0.00    +0.189 C 
ENDROOT
BRANCH   4   6
ATOM      6  N   UNL     1     -37.565  23.528   2.881  0.00  0.00    -0.247 N 
ATOM      7  N   UNL     1     -39.742  23.481   2.404  0.00  0.00    -0.242 NA
ATOM      8  N   UNL     1     -36.808  21.636   1.558  0.00  0.00    -0.228 NA
ATOM      9  N   UNL     1     -38.663  20.590   0.367  0.00  0.00    -0.229 NA
ATOM     10  C   UNL     1     -37.743  22.478   2.026  0.00  0.00    +0.152 C 
ATOM     11  C   UNL     1     -38.794  24.099   3.078  0.00  0.00    +0.223 C 
ATOM     12  C   UNL     1     -39.099  22.466   1.742  0.00  0.00    +0.140 C 
ATOM     13  C   UNL     1     -39.552  21.475   0.877  0.00  0.00    +0.143 C 
ATOM     14  C   UNL     1     -37.366  20.723   0.733  0.00  0.00    +0.253 C 
ATOM     15  N   UNL     1     -40.912  21.389   0.534  0.00  0.00    -0.342 N 
ATOM     16  H   UNL     1     -41.221  20.684  -0.080  0.00  0.00    +0.144 HD
ATOM     17  H   UNL     1     -41.556  22.035   0.906  0.00  0.00    +0.144 HD
ENDBRANCH   4   6
BRANCH   3  18
ATOM     18  O   UNL     1     -36.698  26.220   4.404  0.00  0.00    -0.377 OA
ATOM     19  H   UNL     1     -36.884  26.719   5.214  0.00  0.00    +0.211 HD
ENDBRANCH   3  18
BRANCH   2  20
ATOM     20  O   UNL     1     -34.115  25.402   4.888  0.00  0.00    -0.444 OA
BRANCH  20  22
ATOM     21  O   UNL     1     -33.715  26.570   6.831  0.00  0.00    -0.245 OA
ATOM     22  C   UNL     1     -33.651  26.451   5.617  0.00  0.00    +0.342 C 
BRANCH  22  23
ATOM     23  C   UNL     1     -33.037  27.471   4.731  0.00  0.00    +0.088 C 
ATOM     24  C   UNL     1     -31.970  28.260   5.162  0.00  0.00    +0.048 C 
ATOM     25  C   UNL     1     -33.548  27.633   3.443  0.00  0.00    +0.008 C 
ATOM     26  C   UNL     1     -31.415  29.210   4.306  0.00  0.00    +0.014 C 
ATOM     27  C   UNL     1     -32.992  28.584   2.586  0.00  0.00    +0.000 C 
ATOM     28  C   UNL     1     -31.926  29.373   3.018  0.00  0.00    +0.001 C 
BRANCH  24  29
ATOM     29  N   UNL     1     -31.438  28.112   6.462  0.00  0.00    -0.357 N 
ATOM     30  H   UNL     1     -30.725  27.453   6.630  0.00  0.00    +0.142 HD
ATOM     31  H   UNL     1     -31.779  28.667   7.200  0.00  0.00    +0.142 HD
ENDBRANCH  24  29
ENDBRANCH  22  23
ENDBRANCH  20  22
ENDBRANCH   2  20
BRANCH   5  32
ATOM     32  C   UNL     1     -35.527  22.261   6.274  0.00  0.00    +0.171 C 
BRANCH  32  33
ATOM     33  O   UNL     1     -35.365  20.916   5.858  0.00  0.00    -0.379 OA
ATOM     34  H   UNL     1     -35.203  20.355   6.634  0.00  0.00    +0.211 HD
ENDBRANCH  32  33
ENDBRANCH   5  32
TORSDOF 8
ENDMDL
MODEL 7
REMARK VINA RESULT:      -6.1      3.964      7.031
REMARK  Name = 54467117
REMARK  8 active torsions:
REMARK  status: ('A' for Active; 'I' for Inactive)
REMARK    1  A    between atoms: C_2  and  O_20
REMARK    2  A    between atoms: C_3  and  O_18
REMARK    3  A    between atoms: C_4  and  N_6
REMARK    4  A    between atoms: C_5  and  C_32
REMARK    5  A    between atoms: O_20  and  C_22
REMARK    6  A    between atoms: C_22  and  C_23
REMARK    7  A    between atoms: C_24  and  N_29
REMARK    8  A    between atoms: C_32  and  O_33
REMARK                            x       y       z     vdW  Elec       q    Type
REMARK                         _______ _______ _______ _____ _____    ______ ____
ROOT
ATOM      1  O   UNL     1     -37.598  25.301   2.106  0.00  0.00    -0.332 OA
ATOM      2  C   UNL     1     -38.638  23.197   2.477  0.00  0.00    +0.229 C 
ATOM      3  C   UNL     1     -37.514  23.375   3.479  0.00  0.00    +0.200 C 
ATOM      4  C   UNL     1     -36.668  24.457   2.815  0.00  0.00    +0.226 C 
ATOM      5  C   UNL     1     -38.870  24.624   1.998  0.00  0.00    +0.189 C 
ENDROOT
BRANCH   4   6
ATOM      6  N   UNL     1     -35.844  25.249   3.803  0.00  0.00    -0.247 N 
ATOM      7  N   UNL     1     -35.270  26.245   5.712  0.00  0.00    -0.242 NA
ATOM      8  N   UNL     1     -33.897  25.784   2.452  0.00  0.00    -0.228 NA
ATOM      9  N   UNL     1     -32.276  27.097   3.717  0.00  0.00    -0.229 NA
ATOM     10  C   UNL     1     -34.620  25.813   3.582  0.00  0.00    +0.152 C 
ATOM     11  C   UNL     1     -36.192  25.535   5.095  0.00  0.00    +0.223 C 
ATOM     12  C   UNL     1     -34.282  26.426   4.777  0.00  0.00    +0.140 C 
ATOM     13  C   UNL     1     -33.058  27.086   4.822  0.00  0.00    +0.143 C 
ATOM     14  C   UNL     1     -32.736  26.454   2.617  0.00  0.00    +0.253 C 
ATOM     15  N   UNL     1     -32.634  27.734   5.995  0.00  0.00    -0.342 N 
ATOM     16  H   UNL     1     -31.766  28.198   6.014  0.00  0.00    +0.144 HD
ATOM     17  H   UNL     1     -33.206  27.724   6.797  0.00  0.00    +0.144 HD
ENDBRANCH   4   6
BRANCH   3  18
ATOM     18  O   UNL     1     -36.796  22.182   3.720  0.00  0.00    -0.377 OA
ATOM     19  H   UNL     1     -36.434  22.199   4.620  0.00  0.00    +0.211 HD
ENDBRANCH   3  18
BRANCH   2  20
ATOM     20  O   UNL     1     -38.193  22.425   1.362  0.00  0.00    -0.444 OA
BRANCH  20  22
ATOM     21  O   UNL     1     -40.113  21.156   1.386  0.00  0.00    -0.245 OA
ATOM     22  C   UNL     1     -38.955  21.345   1.049  0.00  0.00    +0.342 C 
BRANCH  22  23
ATOM     23  C   UNL     1     -38.183  20.386   0.219  0.00  0.00    +0.088 C 
ATOM     24  C   UNL     1     -37.144  19.629   0.761  0.00  0.00    +0.048 C 
ATOM     25  C   UNL     1     -38.513  20.252  -1.130  0.00  0.00    +0.008 C 
ATOM     26  C   UNL     1     -36.437  18.737  -0.046  0.00  0.00    +0.014 C 
ATOM     27  C   UNL     1     -37.806  19.360  -1.936  0.00  0.00    +0.000 C 
ATOM     28  C   UNL     1     -36.767  18.603  -1.394  0.00  0.00    +0.001 C 
BRANCH  24  29
ATOM     29  N   UNL     1     -36.793  19.750   2.123  0.00  0.00    -0.357 N 
ATOM     30  H   UNL     1     -36.357  18.998   2.588  0.00  0.00    +0.142 HD
ATOM     31  H   UNL     1     -36.983  20.585   2.609  0.00  0.00    +0.142 HD
ENDBRANCH  24  29
ENDBRANCH  22  23
ENDBRANCH  20  22
ENDBRANCH   2  20
BRANCH   5  32
ATOM     32  C   UNL     1     -39.885  25.380   2.842  0.00  0.00    +0.171 C 
BRANCH  32  33
ATOM     33  O   UNL     1     -39.272  26.553   3.347  0.00  0.00    -0.379 OA
ATOM     34  H   UNL     1     -38.308  26.472   3.275  0.00  0.00    +0.211 HD
ENDBRANCH  32  33
ENDBRANCH   5  32
TORSDOF 8
ENDMDL
MODEL 8
REMARK VINA RESULT:      -6.1      6.670      9.205
REMARK  Name = 54467117
REMARK  8 active torsions:
REMARK  status: ('A' for Active; 'I' for Inactive)
REMARK    1  A    between atoms: C_2  and  O_20
REMARK    2  A    between atoms: C_3  and  O_18
REMARK    3  A    between atoms: C_4  and  N_6
REMARK    4  A    between atoms: C_5  and  C_32
REMARK    5  A    between atoms: O_20  and  C_22
REMARK    6  A    between atoms: C_22  and  C_23
REMARK    7  A    between atoms: C_24  and  N_29
REMARK    8  A    between atoms: C_32  and  O_33
REMARK                            x       y       z     vdW  Elec       q    Type
REMARK                         _______ _______ _______ _____ _____    ______ ____
ROOT
ATOM      1  O   UNL     1     -32.969  28.508   5.076  0.00  0.00    -0.332 OA
ATOM      2  C   UNL     1     -30.998  28.515   3.750  0.00  0.00    +0.229 C 
ATOM      3  C   UNL     1     -31.961  27.484   3.196  0.00  0.00    +0.200 C 
ATOM      4  C   UNL     1     -32.886  27.245   4.385  0.00  0.00    +0.226 C 
ATOM      5  C   UNL     1     -31.910  29.376   4.613  0.00  0.00    +0.189 C 
ENDROOT
BRANCH   4   6
ATOM      6  N   UNL     1     -34.252  26.746   3.978  0.00  0.00    -0.247 N 
ATOM      7  N   UNL     1     -36.223  26.682   2.939  0.00  0.00    -0.242 NA
ATOM      8  N   UNL     1     -34.409  24.711   5.295  0.00  0.00    -0.228 NA
ATOM      9  N   UNL     1     -36.532  23.571   4.914  0.00  0.00    -0.229 NA
ATOM     10  C   UNL     1     -34.875  25.612   4.418  0.00  0.00    +0.152 C 
ATOM     11  C   UNL     1     -35.101  27.354   3.093  0.00  0.00    +0.223 C 
ATOM     12  C   UNL     1     -36.095  25.591   3.762  0.00  0.00    +0.140 C 
ATOM     13  C   UNL     1     -36.938  24.519   4.037  0.00  0.00    +0.143 C 
ATOM     14  C   UNL     1     -35.311  23.723   5.480  0.00  0.00    +0.253 C 
ATOM     15  N   UNL     1     -38.195  24.417   3.416  0.00  0.00    -0.342 N 
ATOM     16  H   UNL     1     -38.783  23.654   3.618  0.00  0.00    +0.144 HD
ATOM     17  H   UNL     1     -38.487  25.108   2.778  0.00  0.00    +0.144 HD
ENDBRANCH   4   6
BRANCH   3  18
ATOM     18  O   UNL     1     -31.315  26.307   2.753  0.00  0.00    -0.377 OA
ATOM     19  H   UNL     1     -30.661  26.029   3.413  0.00  0.00    +0.211 HD
ENDBRANCH   3  18
BRANCH   2  20
ATOM     20  O   UNL     1     -30.040  27.893   4.606  0.00  0.00    -0.444 OA
BRANCH  20  22
ATOM     21  O   UNL     1     -28.051  27.992   3.453  0.00  0.00    -0.245 OA
ATOM     22  C   UNL     1     -28.748  28.266   4.418  0.00  0.00    +0.342 C 
BRANCH  22  23
ATOM     23  C   UNL     1     -28.266  29.074   5.566  0.00  0.00    +0.088 C 
ATOM     24  C   UNL     1     -28.283  28.569   6.866  0.00  0.00    +0.048 C 
ATOM     25  C   UNL     1     -27.791  30.363   5.324  0.00  0.00    +0.008 C 
ATOM     26  C   UNL     1     -27.824  29.354   7.925  0.00  0.00    +0.014 C 
ATOM     27  C   UNL     1     -27.333  31.148   6.383  0.00  0.00    +0.000 C 
ATOM     28  C   UNL     1     -27.349  30.643   7.683  0.00  0.00    +0.001 C 
BRANCH  24  29
ATOM     29  N   UNL     1     -28.760  27.267   7.133  0.00  0.00    -0.357 N 
ATOM     30  H   UNL     1     -28.420  26.768   7.912  0.00  0.00    +0.142 HD
ATOM     31  H   UNL     1     -29.431  26.857   6.541  0.00  0.00    +0.142 HD
ENDBRANCH  24  29
ENDBRANCH  22  23
ENDBRANCH  20  22
ENDBRANCH   2  20
BRANCH   5  32
ATOM     32  C   UNL     1     -32.541  30.531   3.848  0.00  0.00    +0.171 C 
BRANCH  32  33
ATOM     33  O   UNL     1     -33.920  30.589   4.168  0.00  0.00    -0.379 OA
ATOM     34  H   UNL     1     -34.336  31.314   3.676  0.00  0.00    +0.211 HD
ENDBRANCH  32  33
ENDBRANCH   5  32
TORSDOF 8
ENDMDL
MODEL 9
REMARK VINA RESULT:      -6.1      5.257      7.724
REMARK  Name = 54467117
REMARK  8 active torsions:
REMARK  status: ('A' for Active; 'I' for Inactive)
REMARK    1  A    between atoms: C_2  and  O_20
REMARK    2  A    between atoms: C_3  and  O_18
REMARK    3  A    between atoms: C_4  and  N_6
REMARK    4  A    between atoms: C_5  and  C_32
REMARK    5  A    between atoms: O_20  and  C_22
REMARK    6  A    between atoms: C_22  and  C_23
REMARK    7  A    between atoms: C_24  and  N_29
REMARK    8  A    between atoms: C_32  and  O_33
REMARK                            x       y       z     vdW  Elec       q    Type
REMARK                         _______ _______ _______ _____ _____    ______ ____
ROOT
ATOM      1  O   UNL     1     -34.858  26.693   2.641  0.00  0.00    -0.332 OA
ATOM      2  C   UNL     1     -33.162  26.578   4.301  0.00  0.00    +0.229 C 
ATOM      3  C   UNL     1     -34.259  25.591   4.648  0.00  0.00    +0.200 C 
ATOM      4  C   UNL     1     -35.434  26.127   3.835  0.00  0.00    +0.226 C 
ATOM      5  C   UNL     1     -33.434  26.856   2.829  0.00  0.00    +0.189 C 
ENDROOT
BRANCH   4   6
ATOM      6  N   UNL     1     -36.457  25.065   3.507  0.00  0.00    -0.247 N 
ATOM      7  N   UNL     1     -38.444  24.073   3.316  0.00  0.00    -0.242 NA
ATOM      8  N   UNL     1     -35.029  23.311   2.619  0.00  0.00    -0.228 NA
ATOM      9  N   UNL     1     -36.333  21.360   1.953  0.00  0.00    -0.229 NA
ATOM     10  C   UNL     1     -36.215  23.833   2.968  0.00  0.00    +0.152 C 
ATOM     11  C   UNL     1     -37.808  25.162   3.698  0.00  0.00    +0.223 C 
ATOM     12  C   UNL     1     -37.459  23.235   2.858  0.00  0.00    +0.140 C 
ATOM     13  C   UNL     1     -37.494  21.949   2.327  0.00  0.00    +0.143 C 
ATOM     14  C   UNL     1     -35.190  22.067   2.119  0.00  0.00    +0.253 C 
ATOM     15  N   UNL     1     -38.714  21.267   2.179  0.00  0.00    -0.342 N 
ATOM     16  H   UNL     1     -38.726  20.358   1.801  0.00  0.00    +0.144 HD
ATOM     17  H   UNL     1     -39.556  21.699   2.451  0.00  0.00    +0.144 HD
ENDBRANCH   4   6
BRANCH   3  18
ATOM     18  O   UNL     1     -34.529  25.529   6.034  0.00  0.00    -0.377 OA
ATOM     19  H   UNL     1     -34.920  26.368   6.325  0.00  0.00    +0.211 HD
ENDBRANCH   3  18
BRANCH   2  20
ATOM     20  O   UNL     1     -33.343  27.797   5.021  0.00  0.00    -0.444 OA
BRANCH  20  22
ATOM     21  O   UNL     1     -32.424  27.389   7.092  0.00  0.00    -0.245 OA
ATOM     22  C   UNL     1     -32.475  28.014   6.043  0.00  0.00    +0.342 C 
BRANCH  22  23
ATOM     23  C   UNL     1     -31.566  29.143   5.723  0.00  0.00    +0.088 C 
ATOM     24  C   UNL     1     -30.212  29.101   6.056  0.00  0.00    +0.048 C 
ATOM     25  C   UNL     1     -32.091  30.263   5.078  0.00  0.00    +0.008 C 
ATOM     26  C   UNL     1     -29.383  30.178   5.742  0.00  0.00    +0.014 C 
ATOM     27  C   UNL     1     -31.262  31.340   4.764  0.00  0.00    +0.000 C 
ATOM     28  C   UNL     1     -29.908  31.298   5.097  0.00  0.00    +0.001 C 
BRANCH  24  29
ATOM     29  N   UNL     1     -29.660  27.977   6.709  0.00  0.00    -0.357 N 
ATOM     30  H   UNL     1     -29.749  27.883   7.686  0.00  0.00    +0.142 HD
ATOM     31  H   UNL     1     -29.187  27.288   6.190  0.00  0.00    +0.142 HD
ENDBRANCH  24  29
ENDBRANCH  22  23
ENDBRANCH  20  22
ENDBRANCH   2  20
BRANCH   5  32
ATOM     32  C   UNL     1     -32.716  25.892   1.896  0.00  0.00    +0.171 C 
BRANCH  32  33
ATOM     33  O   UNL     1     -31.360  25.798   2.295  0.00  0.00    -0.379 OA
ATOM     34  H   UNL     1     -30.919  25.103   1.781  0.00  0.00    +0.211 HD
ENDBRANCH  32  33
ENDBRANCH   5  32
TORSDOF 8
ENDMDL
