MODEL 1
REMARK VINA RESULT:      -6.7      0.000      0.000
REMARK  Name = 5704775
REMARK  6 active torsions:
REMARK  status: ('A' for Active; 'I' for Inactive)
REMARK    1  A    between atoms: C_1  and  C_3
REMARK    2  A    between atoms: C_2  and  C_18
REMARK    3  A    between atoms: C_4  and  S_14
REMARK    4  A    between atoms: C_6  and  N_10
REMARK    5  A    between atoms: C_19  and  S_29
REMARK    6  A    between atoms: C_21  and  N_25
REMARK                            x       y       z     vdW  Elec       q    Type
REMARK                         _______ _______ _______ _____ _____    ______ ____
ROOT
ATOM      1  C   UNL     1     -35.255  21.526   1.382  0.00  0.00    +0.001 C 
ATOM      2  C   UNL     1     -35.589  21.995   2.604  0.00  0.00    +0.001 C 
ENDROOT
BRANCH   1   3
ATOM      3  C   UNL     1     -34.092  20.667   1.093  0.00  0.00    +0.018 C 
ATOM      4  C   UNL     1     -33.110  21.064   0.199  0.00  0.00    +0.114 C 
ATOM      5  C   UNL     1     -32.026  20.220  -0.045  0.00  0.00    +0.034 C 
ATOM      6  C   UNL     1     -31.938  18.990   0.606  0.00  0.00    +0.052 C 
ATOM      7  C   UNL     1     -34.017  19.447   1.749  0.00  0.00    +0.003 C 
ATOM      8  C   UNL     1     -32.933  18.603   1.503  0.00  0.00    +0.015 C 
BRANCH   6  10
ATOM      9  O   UNL     1     -31.811  15.992   0.366  0.00  0.00    -0.275 OA
ATOM     10  N   UNL     1     -30.854  18.146   0.361  0.00  0.00    -0.284 N 
ATOM     11  C   UNL     1     -30.851  16.749   0.259  0.00  0.00    +0.227 C 
ATOM     12  C   UNL     1     -29.470  16.210  -0.015  0.00  0.00    +0.095 C 
ATOM     13  H   UNL     1     -29.982  18.588   0.243  0.00  0.00    +0.155 HD
ENDBRANCH   6  10
BRANCH   4  14
ATOM     14  S   UNL     1     -33.173  22.597  -0.645  0.00  0.00    +0.042 S 
ATOM     15  O   UNL     1     -31.780  22.670  -1.495  0.00  0.00    -0.065 OA
ATOM     16  O   UNL     1     -34.260  22.529  -1.609  0.00  0.00    -0.065 OA
ATOM     17  O   UNL     1     -33.141  23.635   0.371  0.00  0.00    -0.065 OA
ENDBRANCH   4  14
ENDBRANCH   1   3
BRANCH   2  18
ATOM     18  C   UNL     1     -36.729  22.859   2.888  0.00  0.00    +0.018 C 
ATOM     19  C   UNL     1     -36.630  23.950   3.750  0.00  0.00    +0.114 C 
ATOM     20  C   UNL     1     -37.746  24.751   3.995  0.00  0.00    +0.034 C 
ATOM     21  C   UNL     1     -38.962  24.460   3.375  0.00  0.00    +0.052 C 
ATOM     22  C   UNL     1     -37.945  22.569   2.268  0.00  0.00    +0.003 C 
ATOM     23  C   UNL     1     -39.060  23.369   2.512  0.00  0.00    +0.015 C 
BRANCH  21  25
ATOM     24  O   UNL     1     -40.101  26.757   1.798  0.00  0.00    -0.275 OA
ATOM     25  N   UNL     1     -40.078  25.260   3.620  0.00  0.00    -0.284 N 
ATOM     26  C   UNL     1     -40.565  26.324   2.848  0.00  0.00    +0.227 C 
ATOM     27  C   UNL     1     -41.802  26.935   3.457  0.00  0.00    +0.095 C 
ATOM     28  H   UNL     1     -40.586  25.052   4.437  0.00  0.00    +0.155 HD
ENDBRANCH  21  25
BRANCH  19  29
ATOM     29  S   UNL     1     -35.126  24.358   4.554  0.00  0.00    +0.042 S 
ATOM     30  O   UNL     1     -35.472  25.674   5.456  0.00  0.00    -0.065 OA
ATOM     31  O   UNL     1     -34.810  23.279   5.475  0.00  0.00    -0.065 OA
ATOM     32  O   UNL     1     -34.191  24.751   3.515  0.00  0.00    -0.065 OA
ENDBRANCH  19  29
ENDBRANCH   2  18
TORSDOF 6
ENDMDL
MODEL 2
REMARK VINA RESULT:      -6.6      0.067      9.185
REMARK  Name = 5704775
REMARK  6 active torsions:
REMARK  status: ('A' for Active; 'I' for Inactive)
REMARK    1  A    between atoms: C_1  and  C_3
REMARK    2  A    between atoms: C_2  and  C_18
REMARK    3  A    between atoms: C_4  and  S_14
REMARK    4  A    between atoms: C_6  and  N_10
REMARK    5  A    between atoms: C_19  and  S_29
REMARK    6  A    between atoms: C_21  and  N_25
REMARK                            x       y       z     vdW  Elec       q    Type
REMARK                         _______ _______ _______ _____ _____    ______ ____
ROOT
ATOM      1  C   UNL     1     -35.598  22.031   2.567  0.00  0.00    +0.001 C 
ATOM      2  C   UNL     1     -35.270  21.547   1.348  0.00  0.00    +0.001 C 
ENDROOT
BRANCH   1   3
ATOM      3  C   UNL     1     -36.758  22.895   2.851  0.00  0.00    +0.018 C 
ATOM      4  C   UNL     1     -36.651  23.987   3.698  0.00  0.00    +0.114 C 
ATOM      5  C   UNL     1     -37.775  24.778   3.940  0.00  0.00    +0.034 C 
ATOM      6  C   UNL     1     -38.991  24.467   3.332  0.00  0.00    +0.052 C 
ATOM      7  C   UNL     1     -37.961  22.574   2.240  0.00  0.00    +0.003 C 
ATOM      8  C   UNL     1     -39.085  23.365   2.483  0.00  0.00    +0.015 C 
BRANCH   6  10
ATOM      9  O   UNL     1     -40.114  26.793   1.786  0.00  0.00    -0.275 OA
ATOM     10  N   UNL     1     -40.114  25.258   3.576  0.00  0.00    -0.284 N 
ATOM     11  C   UNL     1     -40.593  26.336   2.819  0.00  0.00    +0.227 C 
ATOM     12  C   UNL     1     -41.842  26.931   3.420  0.00  0.00    +0.095 C 
ATOM     13  H   UNL     1     -40.636  25.031   4.379  0.00  0.00    +0.155 HD
ENDBRANCH   6  10
BRANCH   4  14
ATOM     14  S   UNL     1     -35.147  24.420   4.486  0.00  0.00    +0.042 S 
ATOM     15  O   UNL     1     -35.494  25.763   5.349  0.00  0.00    -0.065 OA
ATOM     16  O   UNL     1     -34.827  23.370   5.438  0.00  0.00    -0.065 OA
ATOM     17  O   UNL     1     -34.214  24.784   3.433  0.00  0.00    -0.065 OA
ENDBRANCH   4  14
ENDBRANCH   1   3
BRANCH   2  18
ATOM     18  C   UNL     1     -34.112  20.708   1.064  0.00  0.00    +0.018 C 
ATOM     19  C   UNL     1     -33.111  21.108   0.179  0.00  0.00    +0.114 C 
ATOM     20  C   UNL     1     -32.021  20.273  -0.066  0.00  0.00    +0.034 C 
ATOM     21  C   UNL     1     -31.932  19.037   0.575  0.00  0.00    +0.052 C 
ATOM     22  C   UNL     1     -34.022  19.471   1.705  0.00  0.00    +0.003 C 
ATOM     23  C   UNL     1     -32.932  18.637   1.461  0.00  0.00    +0.015 C 
BRANCH  21  25
ATOM     24  O   UNL     1     -31.790  16.043   0.289  0.00  0.00    -0.275 OA
ATOM     25  N   UNL     1     -30.841  18.202   0.330  0.00  0.00    -0.284 N 
ATOM     26  C   UNL     1     -30.832  16.806   0.207  0.00  0.00    +0.227 C 
ATOM     27  C   UNL     1     -29.445  16.278  -0.058  0.00  0.00    +0.095 C 
ATOM     28  H   UNL     1     -29.970  18.649   0.232  0.00  0.00    +0.155 HD
ENDBRANCH  21  25
BRANCH  19  29
ATOM     29  S   UNL     1     -33.177  22.650  -0.652  0.00  0.00    +0.042 S 
ATOM     30  O   UNL     1     -31.793  22.724  -1.515  0.00  0.00    -0.065 OA
ATOM     31  O   UNL     1     -34.274  22.592  -1.605  0.00  0.00    -0.065 OA
ATOM     32  O   UNL     1     -33.131  23.678   0.373  0.00  0.00    -0.065 OA
ENDBRANCH  19  29
ENDBRANCH   2  18
TORSDOF 6
ENDMDL
MODEL 3
REMARK VINA RESULT:      -6.6      2.850      5.371
REMARK  Name = 5704775
REMARK  6 active torsions:
REMARK  status: ('A' for Active; 'I' for Inactive)
REMARK    1  A    between atoms: C_1  and  C_3
REMARK    2  A    between atoms: C_2  and  C_18
REMARK    3  A    between atoms: C_4  and  S_14
REMARK    4  A    between atoms: C_6  and  N_10
REMARK    5  A    between atoms: C_19  and  S_29
REMARK    6  A    between atoms: C_21  and  N_25
REMARK                            x       y       z     vdW  Elec       q    Type
REMARK                         _______ _______ _______ _____ _____    ______ ____
ROOT
ATOM      1  C   UNL     1     -38.280  23.373   2.690  0.00  0.00    +0.001 C 
ATOM      2  C   UNL     1     -39.336  23.563   1.869  0.00  0.00    +0.001 C 
ENDROOT
BRANCH   1   3
ATOM      3  C   UNL     1     -37.250  22.332   2.519  0.00  0.00    +0.018 C 
ATOM      4  C   UNL     1     -36.180  22.228   3.393  0.00  0.00    +0.114 C 
ATOM      5  C   UNL     1     -35.227  21.228   3.194  0.00  0.00    +0.034 C 
ATOM      6  C   UNL     1     -35.357  20.344   2.123  0.00  0.00    +0.052 C 
ATOM      7  C   UNL     1     -37.392  21.459   1.449  0.00  0.00    +0.003 C 
ATOM      8  C   UNL     1     -36.439  20.460   1.251  0.00  0.00    +0.015 C 
BRANCH   6  10
ATOM      9  O   UNL     1     -32.805  20.369   0.525  0.00  0.00    -0.275 OA
ATOM     10  N   UNL     1     -34.404  19.345   1.924  0.00  0.00    -0.284 N 
ATOM     11  C   UNL     1     -33.228  19.411   1.165  0.00  0.00    +0.227 C 
ATOM     12  C   UNL     1     -32.464  18.111   1.203  0.00  0.00    +0.095 C 
ATOM     13  H   UNL     1     -34.579  18.487   2.373  0.00  0.00    +0.155 HD
ENDBRANCH   6  10
BRANCH   4  14
ATOM     14  S   UNL     1     -35.970  23.313   4.753  0.00  0.00    +0.042 S 
ATOM     15  O   UNL     1     -34.449  23.890   4.603  0.00  0.00    -0.065 OA
ATOM     16  O   UNL     1     -36.874  24.436   4.568  0.00  0.00    -0.065 OA
ATOM     17  O   UNL     1     -36.031  22.496   5.952  0.00  0.00    -0.065 OA
ENDBRANCH   4  14
ENDBRANCH   1   3
BRANCH   2  18
ATOM     18  C   UNL     1     -40.364  24.581   2.048  0.00  0.00    +0.018 C 
ATOM     19  C   UNL     1     -41.388  24.766   1.119  0.00  0.00    +0.114 C 
ATOM     20  C   UNL     1     -42.351  25.753   1.329  0.00  0.00    +0.034 C 
ATOM     21  C   UNL     1     -42.291  26.555   2.469  0.00  0.00    +0.052 C 
ATOM     22  C   UNL     1     -40.305  25.383   3.188  0.00  0.00    +0.003 C 
ATOM     23  C   UNL     1     -41.268  26.369   3.398  0.00  0.00    +0.015 C 
BRANCH  21  25
ATOM     24  O   UNL     1     -42.182  29.525   1.986  0.00  0.00    -0.275 OA
ATOM     25  N   UNL     1     -43.254  27.542   2.679  0.00  0.00    -0.284 N 
ATOM     26  C   UNL     1     -43.149  28.918   2.436  0.00  0.00    +0.227 C 
ATOM     27  C   UNL     1     -44.418  29.647   2.797  0.00  0.00    +0.095 C 
ATOM     28  H   UNL     1     -44.115  27.233   3.043  0.00  0.00    +0.155 HD
ENDBRANCH  21  25
BRANCH  19  29
ATOM     29  S   UNL     1     -41.507  23.786  -0.330  0.00  0.00    +0.042 S 
ATOM     30  O   UNL     1     -42.892  24.265  -1.051  0.00  0.00    -0.065 OA
ATOM     31  O   UNL     1     -40.413  24.162  -1.210  0.00  0.00    -0.065 OA
ATOM     32  O   UNL     1     -41.675  22.412   0.109  0.00  0.00    -0.065 OA
ENDBRANCH  19  29
ENDBRANCH   2  18
TORSDOF 6
ENDMDL
MODEL 4
REMARK VINA RESULT:      -6.6      2.847      9.657
REMARK  Name = 5704775
REMARK  6 active torsions:
REMARK  status: ('A' for Active; 'I' for Inactive)
REMARK    1  A    between atoms: C_1  and  C_3
REMARK    2  A    between atoms: C_2  and  C_18
REMARK    3  A    between atoms: C_4  and  S_14
REMARK    4  A    between atoms: C_6  and  N_10
REMARK    5  A    between atoms: C_19  and  S_29
REMARK    6  A    between atoms: C_21  and  N_25
REMARK                            x       y       z     vdW  Elec       q    Type
REMARK                         _______ _______ _______ _____ _____    ______ ____
ROOT
ATOM      1  C   UNL     1     -39.340  23.597   1.861  0.00  0.00    +0.001 C 
ATOM      2  C   UNL     1     -38.298  23.389   2.695  0.00  0.00    +0.001 C 
ENDROOT
BRANCH   1   3
ATOM      3  C   UNL     1     -40.376  24.631   2.040  0.00  0.00    +0.018 C 
ATOM      4  C   UNL     1     -41.371  24.823   1.095  0.00  0.00    +0.114 C 
ATOM      5  C   UNL     1     -42.332  25.813   1.304  0.00  0.00    +0.034 C 
ATOM      6  C   UNL     1     -42.285  26.598   2.456  0.00  0.00    +0.052 C 
ATOM      7  C   UNL     1     -40.318  25.404   3.191  0.00  0.00    +0.003 C 
ATOM      8  C   UNL     1     -41.279  26.394   3.399  0.00  0.00    +0.015 C 
BRANCH   6  10
ATOM      9  O   UNL     1     -42.197  29.555   1.894  0.00  0.00    -0.275 OA
ATOM     10  N   UNL     1     -43.246  27.588   2.664  0.00  0.00    -0.284 N 
ATOM     11  C   UNL     1     -43.151  28.958   2.383  0.00  0.00    +0.227 C 
ATOM     12  C   UNL     1     -44.413  29.694   2.757  0.00  0.00    +0.095 C 
ATOM     13  H   UNL     1     -44.097  27.288   3.057  0.00  0.00    +0.155 HD
ENDBRANCH   6  10
BRANCH   4  14
ATOM     14  S   UNL     1     -41.474  23.865  -0.368  0.00  0.00    +0.042 S 
ATOM     15  O   UNL     1     -42.748  24.478  -1.187  0.00  0.00    -0.065 OA
ATOM     16  O   UNL     1     -40.285  24.136  -1.161  0.00  0.00    -0.065 OA
ATOM     17  O   UNL     1     -41.805  22.511   0.042  0.00  0.00    -0.065 OA
ENDBRANCH   4  14
ENDBRANCH   1   3
BRANCH   2  18
ATOM     18  C   UNL     1     -37.283  22.356   2.528  0.00  0.00    +0.018 C 
ATOM     19  C   UNL     1     -36.195  22.244   3.393  0.00  0.00    +0.114 C 
ATOM     20  C   UNL     1     -35.246  21.241   3.195  0.00  0.00    +0.034 C 
ATOM     21  C   UNL     1     -35.386  20.348   2.133  0.00  0.00    +0.052 C 
ATOM     22  C   UNL     1     -37.423  21.463   1.465  0.00  0.00    +0.003 C 
ATOM     23  C   UNL     1     -36.475  20.459   1.268  0.00  0.00    +0.015 C 
BRANCH  21  25
ATOM     24  O   UNL     1     -32.833  20.361   0.536  0.00  0.00    -0.275 OA
ATOM     25  N   UNL     1     -34.437  19.345   1.935  0.00  0.00    -0.284 N 
ATOM     26  C   UNL     1     -33.261  19.405   1.176  0.00  0.00    +0.227 C 
ATOM     27  C   UNL     1     -32.503  18.102   1.216  0.00  0.00    +0.095 C 
ATOM     28  H   UNL     1     -34.617  18.488   2.385  0.00  0.00    +0.155 HD
ENDBRANCH  21  25
BRANCH  19  29
ATOM     29  S   UNL     1     -35.973  23.341   4.742  0.00  0.00    +0.042 S 
ATOM     30  O   UNL     1     -34.450  23.907   4.580  0.00  0.00    -0.065 OA
ATOM     31  O   UNL     1     -36.872  24.467   4.550  0.00  0.00    -0.065 OA
ATOM     32  O   UNL     1     -36.033  22.535   5.949  0.00  0.00    -0.065 OA
ENDBRANCH  19  29
ENDBRANCH   2  18
TORSDOF 6
ENDMDL
MODEL 5
REMARK VINA RESULT:      -6.5      4.851      7.673
REMARK  Name = 5704775
REMARK  6 active torsions:
REMARK  status: ('A' for Active; 'I' for Inactive)
REMARK    1  A    between atoms: C_1  and  C_3
REMARK    2  A    between atoms: C_2  and  C_18
REMARK    3  A    between atoms: C_4  and  S_14
REMARK    4  A    between atoms: C_6  and  N_10
REMARK    5  A    between atoms: C_19  and  S_29
REMARK    6  A    between atoms: C_21  and  N_25
REMARK                            x       y       z     vdW  Elec       q    Type
REMARK                         _______ _______ _______ _____ _____    ______ ____
ROOT
ATOM      1  C   UNL     1     -36.392  24.691   4.062  0.00  0.00    +0.001 C 
ATOM      2  C   UNL     1     -35.513  25.559   3.515  0.00  0.00    +0.001 C 
ENDROOT
BRANCH   1   3
ATOM      3  C   UNL     1     -37.427  23.952   3.318  0.00  0.00    +0.018 C 
ATOM      4  C   UNL     1     -37.202  22.663   2.860  0.00  0.00    +0.114 C 
ATOM      5  C   UNL     1     -38.209  21.999   2.159  0.00  0.00    +0.034 C 
ATOM      6  C   UNL     1     -39.429  22.633   1.924  0.00  0.00    +0.052 C 
ATOM      7  C   UNL     1     -38.637  24.593   3.092  0.00  0.00    +0.003 C 
ATOM      8  C   UNL     1     -39.643  23.929   2.390  0.00  0.00    +0.015 C 
BRANCH   6  10
ATOM      9  O   UNL     1     -39.770  22.168  -1.031  0.00  0.00    -0.275 OA
ATOM     10  N   UNL     1     -40.436  21.969   1.223  0.00  0.00    -0.284 N 
ATOM     11  C   UNL     1     -40.547  21.782  -0.162  0.00  0.00    +0.227 C 
ATOM     12  C   UNL     1     -41.788  21.007  -0.525  0.00  0.00    +0.095 C 
ATOM     13  H   UNL     1     -41.159  21.582   1.768  0.00  0.00    +0.155 HD
ENDBRANCH   6  10
BRANCH   4  14
ATOM     14  S   UNL     1     -35.687  21.824   3.127  0.00  0.00    +0.042 S 
ATOM     15  O   UNL     1     -35.987  20.270   2.719  0.00  0.00    -0.065 OA
ATOM     16  O   UNL     1     -34.720  22.338   2.172  0.00  0.00    -0.065 OA
ATOM     17  O   UNL     1     -35.427  21.877   4.556  0.00  0.00    -0.065 OA
ENDBRANCH   4  14
ENDBRANCH   1   3
BRANCH   2  18
ATOM     18  C   UNL     1     -34.501  26.304   4.253  0.00  0.00    +0.018 C 
ATOM     19  C   UNL     1     -33.778  27.344   3.669  0.00  0.00    +0.114 C 
ATOM     20  C   UNL     1     -32.816  28.030   4.411  0.00  0.00    +0.034 C 
ATOM     21  C   UNL     1     -32.579  27.677   5.740  0.00  0.00    +0.052 C 
ATOM     22  C   UNL     1     -34.263  25.952   5.582  0.00  0.00    +0.003 C 
ATOM     23  C   UNL     1     -33.303  26.638   6.325  0.00  0.00    +0.015 C 
BRANCH  21  25
ATOM     24  O   UNL     1     -29.589  27.816   5.410  0.00  0.00    -0.275 OA
ATOM     25  N   UNL     1     -31.618  28.363   6.483  0.00  0.00    -0.284 N 
ATOM     26  C   UNL     1     -30.230  28.391   6.285  0.00  0.00    +0.227 C 
ATOM     27  C   UNL     1     -29.538  29.256   7.308  0.00  0.00    +0.095 C 
ATOM     28  H   UNL     1     -31.956  28.892   7.240  0.00  0.00    +0.155 HD
ENDBRANCH  21  25
BRANCH  19  29
ATOM     29  S   UNL     1     -34.038  27.825   2.003  0.00  0.00    +0.042 S 
ATOM     30  O   UNL     1     -33.061  29.115   1.779  0.00  0.00    -0.065 OA
ATOM     31  O   UNL     1     -33.540  26.758   1.151  0.00  0.00    -0.065 OA
ATOM     32  O   UNL     1     -35.415  28.275   1.909  0.00  0.00    -0.065 OA
ENDBRANCH  19  29
ENDBRANCH   2  18
TORSDOF 6
ENDMDL
MODEL 6
REMARK VINA RESULT:      -6.4      1.564      1.776
REMARK  Name = 5704775
REMARK  6 active torsions:
REMARK  status: ('A' for Active; 'I' for Inactive)
REMARK    1  A    between atoms: C_1  and  C_3
REMARK    2  A    between atoms: C_2  and  C_18
REMARK    3  A    between atoms: C_4  and  S_14
REMARK    4  A    between atoms: C_6  and  N_10
REMARK    5  A    between atoms: C_19  and  S_29
REMARK    6  A    between atoms: C_21  and  N_25
REMARK                            x       y       z     vdW  Elec       q    Type
REMARK                         _______ _______ _______ _____ _____    ______ ____
ROOT
ATOM      1  C   UNL     1     -34.666  20.673   0.726  0.00  0.00    +0.001 C 
ATOM      2  C   UNL     1     -35.617  20.558   1.679  0.00  0.00    +0.001 C 
ENDROOT
BRANCH   1   3
ATOM      3  C   UNL     1     -33.391  19.935   0.708  0.00  0.00    +0.018 C 
ATOM      4  C   UNL     1     -32.296  20.407   0.001  0.00  0.00    +0.114 C 
ATOM      5  C   UNL     1     -31.107  19.676   0.011  0.00  0.00    +0.034 C 
ATOM      6  C   UNL     1     -31.029  18.482   0.727  0.00  0.00    +0.052 C 
ATOM      7  C   UNL     1     -33.326  18.749   1.426  0.00  0.00    +0.003 C 
ATOM      8  C   UNL     1     -32.137  18.018   1.434  0.00  0.00    +0.015 C 
BRANCH   6  10
ATOM      9  O   UNL     1     -30.516  15.578   0.118  0.00  0.00    -0.275 OA
ATOM     10  N   UNL     1     -29.840  17.751   0.736  0.00  0.00    -0.284 N 
ATOM     11  C   UNL     1     -29.658  16.393   0.443  0.00  0.00    +0.227 C 
ATOM     12  C   UNL     1     -28.212  15.983   0.567  0.00  0.00    +0.095 C 
ATOM     13  H   UNL     1     -29.028  18.252   0.977  0.00  0.00    +0.155 HD
ENDBRANCH   6  10
BRANCH   4  14
ATOM     14  S   UNL     1     -32.344  21.899  -0.915  0.00  0.00    +0.042 S 
ATOM     15  O   UNL     1     -30.790  22.191  -1.330  0.00  0.00    -0.065 OA
ATOM     16  O   UNL     1     -33.074  21.642  -2.146  0.00  0.00    -0.065 OA
ATOM     17  O   UNL     1     -32.772  22.940   0.004  0.00  0.00    -0.065 OA
ENDBRANCH   4  14
ENDBRANCH   1   3
BRANCH   2  18
ATOM     18  C   UNL     1     -36.871  21.302   1.707  0.00  0.00    +0.018 C 
ATOM     19  C   UNL     1     -37.080  22.361   2.590  0.00  0.00    +0.114 C 
ATOM     20  C   UNL     1     -38.296  23.045   2.583  0.00  0.00    +0.034 C 
ATOM     21  C   UNL     1     -39.303  22.670   1.693  0.00  0.00    +0.052 C 
ATOM     22  C   UNL     1     -37.878  20.927   0.816  0.00  0.00    +0.003 C 
ATOM     23  C   UNL     1     -39.093  21.611   0.810  0.00  0.00    +0.015 C 
BRANCH  21  25
ATOM     24  O   UNL     1     -40.075  25.270   0.386  0.00  0.00    -0.275 OA
ATOM     25  N   UNL     1     -40.519  23.354   1.687  0.00  0.00    -0.284 N 
ATOM     26  C   UNL     1     -40.824  24.569   1.060  0.00  0.00    +0.227 C 
ATOM     27  C   UNL     1     -42.257  24.974   1.293  0.00  0.00    +0.095 C 
ATOM     28  H   UNL     1     -41.254  22.930   2.186  0.00  0.00    +0.155 HD
ENDBRANCH  21  25
BRANCH  19  29
ATOM     29  S   UNL     1     -35.848  22.870   3.728  0.00  0.00    +0.042 S 
ATOM     30  O   UNL     1     -36.601  23.928   4.719  0.00  0.00    -0.065 OA
ATOM     31  O   UNL     1     -35.484  21.715   4.531  0.00  0.00    -0.065 OA
ATOM     32  O   UNL     1     -34.848  23.595   2.964  0.00  0.00    -0.065 OA
ENDBRANCH  19  29
ENDBRANCH   2  18
TORSDOF 6
ENDMDL
MODEL 7
REMARK VINA RESULT:      -6.4      2.374      2.891
REMARK  Name = 5704775
REMARK  6 active torsions:
REMARK  status: ('A' for Active; 'I' for Inactive)
REMARK    1  A    between atoms: C_1  and  C_3
REMARK    2  A    between atoms: C_2  and  C_18
REMARK    3  A    between atoms: C_4  and  S_14
REMARK    4  A    between atoms: C_6  and  N_10
REMARK    5  A    between atoms: C_19  and  S_29
REMARK    6  A    between atoms: C_21  and  N_25
REMARK                            x       y       z     vdW  Elec       q    Type
REMARK                         _______ _______ _______ _____ _____    ______ ____
ROOT
ATOM      1  C   UNL     1     -35.894  20.109   0.853  0.00  0.00    +0.001 C 
ATOM      2  C   UNL     1     -36.258  20.711   2.007  0.00  0.00    +0.001 C 
ENDROOT
BRANCH   1   3
ATOM      3  C   UNL     1     -34.835  19.092   0.726  0.00  0.00    +0.018 C 
ATOM      4  C   UNL     1     -34.982  18.002  -0.118  0.00  0.00    +0.114 C 
ATOM      5  C   UNL     1     -33.955  17.063  -0.209  0.00  0.00    +0.034 C 
ATOM      6  C   UNL     1     -32.793  17.224   0.547  0.00  0.00    +0.052 C 
ATOM      7  C   UNL     1     -33.685  19.266   1.482  0.00  0.00    +0.003 C 
ATOM      8  C   UNL     1     -32.658  18.325   1.391  0.00  0.00    +0.015 C 
BRANCH   6  10
ATOM      9  O   UNL     1     -30.135  17.362  -0.861  0.00  0.00    -0.275 OA
ATOM     10  N   UNL     1     -31.767  16.284   0.456  0.00  0.00    -0.284 N 
ATOM     11  C   UNL     1     -30.543  16.400  -0.217  0.00  0.00    +0.227 C 
ATOM     12  C   UNL     1     -29.704  15.156  -0.074  0.00  0.00    +0.095 C 
ATOM     13  H   UNL     1     -31.920  15.431   0.925  0.00  0.00    +0.155 HD
ENDBRANCH   6  10
BRANCH   4  14
ATOM     14  S   UNL     1     -36.421  17.753  -1.086  0.00  0.00    +0.042 S 
ATOM     15  O   UNL     1     -36.167  16.339  -1.864  0.00  0.00    -0.065 OA
ATOM     16  O   UNL     1     -37.537  17.547  -0.178  0.00  0.00    -0.065 OA
ATOM     17  O   UNL     1     -36.448  18.817  -2.075  0.00  0.00    -0.065 OA
ENDBRANCH   4  14
ENDBRANCH   1   3
BRANCH   2  18
ATOM     18  C   UNL     1     -37.293  21.730   2.131  0.00  0.00    +0.018 C 
ATOM     19  C   UNL     1     -37.169  22.804   3.011  0.00  0.00    +0.114 C 
ATOM     20  C   UNL     1     -38.185  23.756   3.099  0.00  0.00    +0.034 C 
ATOM     21  C   UNL     1     -39.325  23.635   2.305  0.00  0.00    +0.052 C 
ATOM     22  C   UNL     1     -38.435  21.609   1.336  0.00  0.00    +0.003 C 
ATOM     23  C   UNL     1     -39.449  22.561   1.424  0.00  0.00    +0.015 C 
BRANCH  21  25
ATOM     24  O   UNL     1     -39.255  26.612   1.862  0.00  0.00    -0.275 OA
ATOM     25  N   UNL     1     -40.341  24.587   2.393  0.00  0.00    -0.284 N 
ATOM     26  C   UNL     1     -40.251  25.969   2.176  0.00  0.00    +0.227 C 
ATOM     27  C   UNL     1     -41.581  26.652   2.371  0.00  0.00    +0.095 C 
ATOM     28  H   UNL     1     -41.231  24.246   2.638  0.00  0.00    +0.155 HD
ENDBRANCH  21  25
BRANCH  19  29
ATOM     29  S   UNL     1     -35.757  23.002   4.031  0.00  0.00    +0.042 S 
ATOM     30  O   UNL     1     -36.217  24.058   5.189  0.00  0.00    -0.065 OA
ATOM     31  O   UNL     1     -35.504  21.730   4.687  0.00  0.00    -0.065 OA
ATOM     32  O   UNL     1     -34.738  23.637   3.214  0.00  0.00    -0.065 OA
ENDBRANCH  19  29
ENDBRANCH   2  18
TORSDOF 6
ENDMDL
MODEL 8
REMARK VINA RESULT:      -6.4      4.396      7.440
REMARK  Name = 5704775
REMARK  6 active torsions:
REMARK  status: ('A' for Active; 'I' for Inactive)
REMARK    1  A    between atoms: C_1  and  C_3
REMARK    2  A    between atoms: C_2  and  C_18
REMARK    3  A    between atoms: C_4  and  S_14
REMARK    4  A    between atoms: C_6  and  N_10
REMARK    5  A    between atoms: C_19  and  S_29
REMARK    6  A    between atoms: C_21  and  N_25
REMARK                            x       y       z     vdW  Elec       q    Type
REMARK                         _______ _______ _______ _____ _____    ______ ____
ROOT
ATOM      1  C   UNL     1     -34.618  24.120   2.764  0.00  0.00    +0.001 C 
ATOM      2  C   UNL     1     -35.454  23.188   3.273  0.00  0.00    +0.001 C 
ENDROOT
BRANCH   1   3
ATOM      3  C   UNL     1     -34.049  25.250   3.520  0.00  0.00    +0.018 C 
ATOM      4  C   UNL     1     -33.299  26.232   2.890  0.00  0.00    +0.114 C 
ATOM      5  C   UNL     1     -32.778  27.285   3.643  0.00  0.00    +0.034 C 
ATOM      6  C   UNL     1     -33.012  27.342   5.017  0.00  0.00    +0.052 C 
ATOM      7  C   UNL     1     -34.290  25.296   4.885  0.00  0.00    +0.003 C 
ATOM      8  C   UNL     1     -33.768  26.349   5.638  0.00  0.00    +0.015 C 
BRANCH   6  10
ATOM      9  O   UNL     1     -30.297  27.690   6.269  0.00  0.00    -0.275 OA
ATOM     10  N   UNL     1     -32.490  28.395   5.769  0.00  0.00    -0.284 N 
ATOM     11  C   UNL     1     -31.212  28.505   6.333  0.00  0.00    +0.227 C 
ATOM     12  C   UNL     1     -31.038  29.805   7.076  0.00  0.00    +0.095 C 
ATOM     13  H   UNL     1     -33.095  29.156   5.924  0.00  0.00    +0.155 HD
ENDBRANCH   6  10
BRANCH   4  14
ATOM     14  S   UNL     1     -32.975  26.205   1.168  0.00  0.00    +0.042 S 
ATOM     15  O   UNL     1     -32.124  27.569   0.877  0.00  0.00    -0.065 OA
ATOM     16  O   UNL     1     -32.090  25.083   0.901  0.00  0.00    -0.065 OA
ATOM     17  O   UNL     1     -34.260  26.318   0.500  0.00  0.00    -0.065 OA
ENDBRANCH   4  14
ENDBRANCH   1   3
BRANCH   2  18
ATOM     18  C   UNL     1     -36.032  22.081   2.522  0.00  0.00    +0.018 C 
ATOM     19  C   UNL     1     -37.347  22.111   2.059  0.00  0.00    +0.114 C 
ATOM     20  C   UNL     1     -37.861  21.028   1.345  0.00  0.00    +0.034 C 
ATOM     21  C   UNL     1     -37.058  19.915   1.093  0.00  0.00    +0.052 C 
ATOM     22  C   UNL     1     -35.230  20.967   2.270  0.00  0.00    +0.003 C 
ATOM     23  C   UNL     1     -35.743  19.885   1.556  0.00  0.00    +0.015 C 
BRANCH  21  25
ATOM     24  O   UNL     1     -37.659  19.619  -1.842  0.00  0.00    -0.275 OA
ATOM     25  N   UNL     1     -37.572  18.832   0.379  0.00  0.00    -0.284 N 
ATOM     26  C   UNL     1     -37.835  18.749  -0.995  0.00  0.00    +0.227 C 
ATOM     27  C   UNL     1     -38.389  17.400  -1.377  0.00  0.00    +0.095 C 
ATOM     28  H   UNL     1     -37.776  18.026   0.907  0.00  0.00    +0.155 HD
ENDBRANCH  21  25
BRANCH  19  29
ATOM     29  S   UNL     1     -38.396  23.485   2.350  0.00  0.00    +0.042 S 
ATOM     30  O   UNL     1     -39.913  22.885   2.259  0.00  0.00    -0.065 OA
ATOM     31  O   UNL     1     -38.188  23.918   3.722  0.00  0.00    -0.065 OA
ATOM     32  O   UNL     1     -38.201  24.401   1.240  0.00  0.00    -0.065 OA
ENDBRANCH  19  29
ENDBRANCH   2  18
TORSDOF 6
ENDMDL
MODEL 9
REMARK VINA RESULT:      -6.4      4.370      6.380
REMARK  Name = 5704775
REMARK  6 active torsions:
REMARK  status: ('A' for Active; 'I' for Inactive)
REMARK    1  A    between atoms: C_1  and  C_3
REMARK    2  A    between atoms: C_2  and  C_18
REMARK    3  A    between atoms: C_4  and  S_14
REMARK    4  A    between atoms: C_6  and  N_10
REMARK    5  A    between atoms: C_19  and  S_29
REMARK    6  A    between atoms: C_21  and  N_25
REMARK                            x       y       z     vdW  Elec       q    Type
REMARK                         _______ _______ _______ _____ _____    ______ ____
ROOT
ATOM      1  C   UNL     1     -35.446  23.173   3.259  0.00  0.00    +0.001 C 
ATOM      2  C   UNL     1     -34.614  24.110   2.752  0.00  0.00    +0.001 C 
ENDROOT
BRANCH   1   3
ATOM      3  C   UNL     1     -36.023  22.051   2.497  0.00  0.00    +0.018 C 
ATOM      4  C   UNL     1     -37.332  22.089   2.040  0.00  0.00    +0.114 C 
ATOM      5  C   UNL     1     -37.838  21.005   1.322  0.00  0.00    +0.034 C 
ATOM      6  C   UNL     1     -37.030  19.896   1.071  0.00  0.00    +0.052 C 
ATOM      7  C   UNL     1     -35.209  20.955   2.253  0.00  0.00    +0.003 C 
ATOM      8  C   UNL     1     -35.716  19.871   1.536  0.00  0.00    +0.015 C 
BRANCH   6  10
ATOM      9  O   UNL     1     -36.623  19.090  -1.801  0.00  0.00    -0.275 OA
ATOM     10  N   UNL     1     -37.538  18.812   0.354  0.00  0.00    -0.284 N 
ATOM     11  C   UNL     1     -37.316  18.484  -0.990  0.00  0.00    +0.227 C 
ATOM     12  C   UNL     1     -38.049  17.227  -1.387  0.00  0.00    +0.095 C 
ATOM     13  H   UNL     1     -38.126  18.201   0.855  0.00  0.00    +0.155 HD
ENDBRANCH   6  10
BRANCH   4  14
ATOM     14  S   UNL     1     -38.387  23.458   2.330  0.00  0.00    +0.042 S 
ATOM     15  O   UNL     1     -39.901  22.851   2.233  0.00  0.00    -0.065 OA
ATOM     16  O   UNL     1     -38.186  23.890   3.703  0.00  0.00    -0.065 OA
ATOM     17  O   UNL     1     -38.193  24.376   1.221  0.00  0.00    -0.065 OA
ENDBRANCH   4  14
ENDBRANCH   1   3
BRANCH   2  18
ATOM     18  C   UNL     1     -34.058  25.230   3.500  0.00  0.00    +0.018 C 
ATOM     19  C   UNL     1     -33.304  26.228   2.883  0.00  0.00    +0.114 C 
ATOM     20  C   UNL     1     -32.788  27.282   3.638  0.00  0.00    +0.034 C 
ATOM     21  C   UNL     1     -33.028  27.339   5.011  0.00  0.00    +0.052 C 
ATOM     22  C   UNL     1     -34.298  25.288   4.874  0.00  0.00    +0.003 C 
ATOM     23  C   UNL     1     -33.784  26.342   5.628  0.00  0.00    +0.015 C 
BRANCH  21  25
ATOM     24  O   UNL     1     -30.308  27.709   6.247  0.00  0.00    -0.275 OA
ATOM     25  N   UNL     1     -32.513  28.393   5.765  0.00  0.00    -0.284 N 
ATOM     26  C   UNL     1     -31.232  28.513   6.321  0.00  0.00    +0.227 C 
ATOM     27  C   UNL     1     -31.068  29.812   7.069  0.00  0.00    +0.095 C 
ATOM     28  H   UNL     1     -33.126  29.146   5.928  0.00  0.00    +0.155 HD
ENDBRANCH  21  25
BRANCH  19  29
ATOM     29  S   UNL     1     -32.973  26.201   1.162  0.00  0.00    +0.042 S 
ATOM     30  O   UNL     1     -32.190  27.603   0.860  0.00  0.00    -0.065 OA
ATOM     31  O   UNL     1     -32.032  25.122   0.908  0.00  0.00    -0.065 OA
ATOM     32  O   UNL     1     -34.259  26.245   0.489  0.00  0.00    -0.065 OA
ENDBRANCH  19  29
ENDBRANCH   2  18
TORSDOF 6
ENDMDL
