MODEL 1
REMARK VINA RESULT:      -5.6      0.000      0.000
REMARK  Name = 56842556
REMARK  9 active torsions:
REMARK  status: ('A' for Active; 'I' for Inactive)
REMARK    1  A    between atoms: C_4  and  O_20
REMARK    2  A    between atoms: C_5  and  C_12
REMARK    3  A    between atoms: N_11  and  C_12
REMARK    4  A    between atoms: N_11  and  N_13
REMARK    5  A    between atoms: N_13  and  C_16
REMARK    6  A    between atoms: C_16  and  N_17
REMARK    7  A    between atoms: O_20  and  C_22
REMARK    8  A    between atoms: C_22  and  O_23
REMARK    9  A    between atoms: O_23  and  C_24
REMARK                            x       y       z     vdW  Elec       q    Type
REMARK                         _______ _______ _______ _____ _____    ______ ____
ROOT
ATOM      1  N   UNL     1     -34.349  27.348   4.501  0.00  0.00    -0.247 NA
ATOM      2  C   UNL     1     -35.522  24.883   3.813  0.00  0.00    +0.038 C 
ATOM      3  C   UNL     1     -34.758  25.002   4.993  0.00  0.00    +0.018 C 
ATOM      4  C   UNL     1     -36.096  23.641   3.493  0.00  0.00    +0.152 C 
ATOM      5  C   UNL     1     -34.203  26.251   5.277  0.00  0.00    +0.079 C 
ATOM      6  C   UNL     1     -34.581  23.885   5.826  0.00  0.00    +0.001 C 
ATOM      7  C   UNL     1     -35.686  26.007   2.996  0.00  0.00    +0.024 C 
ATOM      8  C   UNL     1     -35.914  22.539   4.329  0.00  0.00    +0.038 C 
ATOM      9  C   UNL     1     -35.158  22.659   5.493  0.00  0.00    +0.003 C 
ATOM     10  C   UNL     1     -35.087  27.197   3.380  0.00  0.00    +0.099 C 
ENDROOT
BRANCH   5  11
ATOM     11  C   UNL     1     -33.396  26.492   6.469  0.00  0.00    +0.157 C 
BRANCH  11  12
ATOM     12  N   UNL     1     -32.230  27.068   6.418  0.00  0.00    -0.126 NA
BRANCH  12  13
ATOM     13  N   UNL     1     -32.224  28.359   6.828  0.00  0.00    -0.244 N 
ATOM     14  H   UNL     1     -32.580  28.588   7.717  0.00  0.00    +0.170 HD
BRANCH  13  16
ATOM     15  S   UNL     1     -30.105  29.756   6.029  0.00  0.00    -0.018 S 
ATOM     16  C   UNL     1     -31.728  29.352   6.022  0.00  0.00    +0.143 C 
BRANCH  16  17
ATOM     17  N   UNL     1     -32.622  29.998   5.212  0.00  0.00    -0.340 N 
ATOM     18  H   UNL     1     -33.082  30.807   5.532  0.00  0.00    +0.144 HD
ATOM     19  H   UNL     1     -32.805  29.653   4.307  0.00  0.00    +0.144 HD
ENDBRANCH  16  17
ENDBRANCH  13  16
ENDBRANCH  12  13
ENDBRANCH  11  12
ENDBRANCH   5  11
BRANCH   4  20
ATOM     20  O   UNL     1     -36.844  23.477   2.363  0.00  0.00    -0.394 OA
BRANCH  20  22
ATOM     21  O   UNL     1     -38.704  22.079   2.186  0.00  0.00    -0.202 OA
ATOM     22  C   UNL     1     -38.172  23.100   2.603  0.00  0.00    +0.516 C 
BRANCH  22  23
ATOM     23  O   UNL     1     -38.770  24.054   3.372  0.00  0.00    -0.418 OA
BRANCH  23  24
ATOM     24  C   UNL     1     -39.859  24.750   2.757  0.00  0.00    +0.212 C 
ATOM     25  C   UNL     1     -39.329  26.001   2.090  0.00  0.00    +0.051 C 
ENDBRANCH  23  24
ENDBRANCH  22  23
ENDBRANCH  20  22
ENDBRANCH   4  20
TORSDOF 9
ENDMDL
MODEL 2
REMARK VINA RESULT:      -5.5      4.751      7.440
REMARK  Name = 56842556
REMARK  9 active torsions:
REMARK  status: ('A' for Active; 'I' for Inactive)
REMARK    1  A    between atoms: C_4  and  O_20
REMARK    2  A    between atoms: C_5  and  C_12
REMARK    3  A    between atoms: N_11  and  C_12
REMARK    4  A    between atoms: N_11  and  N_13
REMARK    5  A    between atoms: N_13  and  C_16
REMARK    6  A    between atoms: C_16  and  N_17
REMARK    7  A    between atoms: O_20  and  C_22
REMARK    8  A    between atoms: C_22  and  O_23
REMARK    9  A    between atoms: O_23  and  C_24
REMARK                            x       y       z     vdW  Elec       q    Type
REMARK                         _______ _______ _______ _____ _____    ______ ____
ROOT
ATOM      1  N   UNL     1     -36.383  22.691   4.603  0.00  0.00    -0.247 NA
ATOM      2  C   UNL     1     -35.278  25.273   4.393  0.00  0.00    +0.038 C 
ATOM      3  C   UNL     1     -36.251  24.839   3.469  0.00  0.00    +0.018 C 
ATOM      4  C   UNL     1     -34.742  26.565   4.266  0.00  0.00    +0.152 C 
ATOM      5  C   UNL     1     -36.759  23.548   3.627  0.00  0.00    +0.079 C 
ATOM      6  C   UNL     1     -36.668  25.698   2.439  0.00  0.00    +0.001 C 
ATOM      7  C   UNL     1     -34.875  24.401   5.412  0.00  0.00    +0.024 C 
ATOM      8  C   UNL     1     -35.166  27.410   3.239  0.00  0.00    +0.038 C 
ATOM      9  C   UNL     1     -36.126  26.978   2.327  0.00  0.00    +0.003 C 
ATOM     10  C   UNL     1     -35.450  23.142   5.470  0.00  0.00    +0.099 C 
ENDROOT
BRANCH   5  11
ATOM     11  C   UNL     1     -37.769  22.993   2.732  0.00  0.00    +0.157 C 
BRANCH  11  12
ATOM     12  N   UNL     1     -37.480  22.130   1.802  0.00  0.00    -0.126 NA
BRANCH  12  13
ATOM     13  N   UNL     1     -37.397  20.848   2.233  0.00  0.00    -0.244 N 
ATOM     14  H   UNL     1     -38.012  20.530   2.933  0.00  0.00    +0.170 HD
BRANCH  13  16
ATOM     15  S   UNL     1     -34.827  20.237   1.912  0.00  0.00    -0.018 S 
ATOM     16  C   UNL     1     -36.468  19.987   1.707  0.00  0.00    +0.143 C 
BRANCH  16  17
ATOM     17  N   UNL     1     -36.944  18.912   1.006  0.00  0.00    -0.340 N 
ATOM     18  H   UNL     1     -37.526  18.254   1.449  0.00  0.00    +0.144 HD
ATOM     19  H   UNL     1     -36.705  18.797   0.057  0.00  0.00    +0.144 HD
ENDBRANCH  16  17
ENDBRANCH  13  16
ENDBRANCH  12  13
ENDBRANCH  11  12
ENDBRANCH   5  11
BRANCH   4  20
ATOM     20  O   UNL     1     -33.800  27.031   5.136  0.00  0.00    -0.394 OA
BRANCH  20  22
ATOM     21  O   UNL     1     -31.868  27.158   3.834  0.00  0.00    -0.202 OA
ATOM     22  C   UNL     1     -32.728  27.692   4.523  0.00  0.00    +0.516 C 
BRANCH  22  23
ATOM     23  O   UNL     1     -32.802  29.021   4.819  0.00  0.00    -0.418 OA
BRANCH  23  24
ATOM     24  C   UNL     1     -31.602  29.606   5.337  0.00  0.00    +0.212 C 
ATOM     25  C   UNL     1     -31.629  29.527   6.848  0.00  0.00    +0.051 C 
ENDBRANCH  23  24
ENDBRANCH  22  23
ENDBRANCH  20  22
ENDBRANCH   4  20
TORSDOF 9
ENDMDL
MODEL 3
REMARK VINA RESULT:      -5.5      1.505      3.426
REMARK  Name = 56842556
REMARK  9 active torsions:
REMARK  status: ('A' for Active; 'I' for Inactive)
REMARK    1  A    between atoms: C_4  and  O_20
REMARK    2  A    between atoms: C_5  and  C_12
REMARK    3  A    between atoms: N_11  and  C_12
REMARK    4  A    between atoms: N_11  and  N_13
REMARK    5  A    between atoms: N_13  and  C_16
REMARK    6  A    between atoms: C_16  and  N_17
REMARK    7  A    between atoms: O_20  and  C_22
REMARK    8  A    between atoms: C_22  and  O_23
REMARK    9  A    between atoms: O_23  and  C_24
REMARK                            x       y       z     vdW  Elec       q    Type
REMARK                         _______ _______ _______ _____ _____    ______ ____
ROOT
ATOM      1  N   UNL     1     -32.972  27.299   5.638  0.00  0.00    -0.247 NA
ATOM      2  C   UNL     1     -35.229  26.110   4.446  0.00  0.00    +0.038 C 
ATOM      3  C   UNL     1     -34.561  27.172   3.802  0.00  0.00    +0.018 C 
ATOM      4  C   UNL     1     -36.352  25.534   3.831  0.00  0.00    +0.152 C 
ATOM      5  C   UNL     1     -33.449  27.719   4.444  0.00  0.00    +0.079 C 
ATOM      6  C   UNL     1     -35.027  27.638   2.561  0.00  0.00    +0.001 C 
ATOM      7  C   UNL     1     -34.750  25.660   5.683  0.00  0.00    +0.024 C 
ATOM      8  C   UNL     1     -36.805  26.005   2.597  0.00  0.00    +0.038 C 
ATOM      9  C   UNL     1     -36.144  27.054   1.964  0.00  0.00    +0.003 C 
ATOM     10  C   UNL     1     -33.636  26.280   6.225  0.00  0.00    +0.099 C 
ENDROOT
BRANCH   5  11
ATOM     11  C   UNL     1     -32.681  28.819   3.871  0.00  0.00    +0.157 C 
BRANCH  11  12
ATOM     12  N   UNL     1     -32.824  30.050   4.267  0.00  0.00    -0.126 NA
BRANCH  12  13
ATOM     13  N   UNL     1     -32.428  30.279   5.542  0.00  0.00    -0.244 N 
ATOM     14  H   UNL     1     -33.097  30.522   6.223  0.00  0.00    +0.170 HD
BRANCH  13  16
ATOM     15  S   UNL     1     -29.912  31.009   5.077  0.00  0.00    -0.018 S 
ATOM     16  C   UNL     1     -31.107  30.178   5.900  0.00  0.00    +0.143 C 
BRANCH  16  17
ATOM     17  N   UNL     1     -30.812  29.366   6.961  0.00  0.00    -0.340 N 
ATOM     18  H   UNL     1     -31.134  29.597   7.862  0.00  0.00    +0.144 HD
ATOM     19  H   UNL     1     -30.276  28.550   6.823  0.00  0.00    +0.144 HD
ENDBRANCH  16  17
ENDBRANCH  13  16
ENDBRANCH  12  13
ENDBRANCH  11  12
ENDBRANCH   5  11
BRANCH   4  20
ATOM     20  O   UNL     1     -37.031  24.503   4.415  0.00  0.00    -0.394 OA
BRANCH  20  22
ATOM     21  O   UNL     1     -37.754  22.697   3.129  0.00  0.00    -0.202 OA
ATOM     22  C   UNL     1     -36.880  23.273   3.763  0.00  0.00    +0.516 C 
BRANCH  22  23
ATOM     23  O   UNL     1     -35.605  22.827   3.952  0.00  0.00    -0.418 OA
BRANCH  23  24
ATOM     24  C   UNL     1     -35.477  21.639   4.742  0.00  0.00    +0.212 C 
ATOM     25  C   UNL     1     -35.197  22.031   6.177  0.00  0.00    +0.051 C 
ENDBRANCH  23  24
ENDBRANCH  22  23
ENDBRANCH  20  22
ENDBRANCH   4  20
TORSDOF 9
ENDMDL
MODEL 4
REMARK VINA RESULT:      -5.5      0.977      1.863
REMARK  Name = 56842556
REMARK  9 active torsions:
REMARK  status: ('A' for Active; 'I' for Inactive)
REMARK    1  A    between atoms: C_4  and  O_20
REMARK    2  A    between atoms: C_5  and  C_12
REMARK    3  A    between atoms: N_11  and  C_12
REMARK    4  A    between atoms: N_11  and  N_13
REMARK    5  A    between atoms: N_13  and  C_16
REMARK    6  A    between atoms: C_16  and  N_17
REMARK    7  A    between atoms: O_20  and  C_22
REMARK    8  A    between atoms: C_22  and  O_23
REMARK    9  A    between atoms: O_23  and  C_24
REMARK                            x       y       z     vdW  Elec       q    Type
REMARK                         _______ _______ _______ _____ _____    ______ ____
ROOT
ATOM      1  N   UNL     1     -34.403  27.265   4.437  0.00  0.00    -0.247 NA
ATOM      2  C   UNL     1     -35.481  24.748   3.781  0.00  0.00    +0.038 C 
ATOM      3  C   UNL     1     -34.762  24.922   4.982  0.00  0.00    +0.018 C 
ATOM      4  C   UNL     1     -36.009  23.482   3.477  0.00  0.00    +0.152 C 
ATOM      5  C   UNL     1     -34.253  26.194   5.249  0.00  0.00    +0.079 C 
ATOM      6  C   UNL     1     -34.582  23.834   5.852  0.00  0.00    +0.001 C 
ATOM      7  C   UNL     1     -35.650  25.845   2.927  0.00  0.00    +0.024 C 
ATOM      8  C   UNL     1     -35.825  22.409   4.350  0.00  0.00    +0.038 C 
ATOM      9  C   UNL     1     -35.113  22.584   5.534  0.00  0.00    +0.003 C 
ATOM     10  C   UNL     1     -35.098  27.061   3.297  0.00  0.00    +0.099 C 
ENDROOT
BRANCH   5  11
ATOM     11  C   UNL     1     -33.494  26.491   6.460  0.00  0.00    +0.157 C 
BRANCH  11  12
ATOM     12  N   UNL     1     -32.301  27.009   6.426  0.00  0.00    -0.126 NA
BRANCH  12  13
ATOM     13  N   UNL     1     -32.240  28.304   6.818  0.00  0.00    -0.244 N 
ATOM     14  H   UNL     1     -32.548  28.554   7.719  0.00  0.00    +0.170 HD
BRANCH  13  16
ATOM     15  S   UNL     1     -30.147  29.737   6.012  0.00  0.00    -0.018 S 
ATOM     16  C   UNL     1     -31.753  29.273   5.977  0.00  0.00    +0.143 C 
BRANCH  16  17
ATOM     17  N   UNL     1     -32.644  29.843   5.107  0.00  0.00    -0.340 N 
ATOM     18  H   UNL     1     -32.317  30.307   4.303  0.00  0.00    +0.144 HD
ATOM     19  H   UNL     1     -33.611  29.789   5.286  0.00  0.00    +0.144 HD
ENDBRANCH  16  17
ENDBRANCH  13  16
ENDBRANCH  12  13
ENDBRANCH  11  12
ENDBRANCH   5  11
BRANCH   4  20
ATOM     20  O   UNL     1     -36.713  23.265   2.329  0.00  0.00    -0.394 OA
BRANCH  20  22
ATOM     21  O   UNL     1     -38.904  23.630   3.043  0.00  0.00    -0.202 OA
ATOM     22  C   UNL     1     -38.053  22.911   2.534  0.00  0.00    +0.516 C 
BRANCH  22  23
ATOM     23  O   UNL     1     -38.250  21.642   2.076  0.00  0.00    -0.418 OA
BRANCH  23  24
ATOM     24  C   UNL     1     -37.401  21.237   0.997  0.00  0.00    +0.212 C 
ATOM     25  C   UNL     1     -36.597  20.030   1.430  0.00  0.00    +0.051 C 
ENDBRANCH  23  24
ENDBRANCH  22  23
ENDBRANCH  20  22
ENDBRANCH   4  20
TORSDOF 9
ENDMDL
MODEL 5
REMARK VINA RESULT:      -5.5      5.078      6.941
REMARK  Name = 56842556
REMARK  9 active torsions:
REMARK  status: ('A' for Active; 'I' for Inactive)
REMARK    1  A    between atoms: C_4  and  O_20
REMARK    2  A    between atoms: C_5  and  C_12
REMARK    3  A    between atoms: N_11  and  C_12
REMARK    4  A    between atoms: N_11  and  N_13
REMARK    5  A    between atoms: N_13  and  C_16
REMARK    6  A    between atoms: C_16  and  N_17
REMARK    7  A    between atoms: O_20  and  C_22
REMARK    8  A    between atoms: C_22  and  O_23
REMARK    9  A    between atoms: O_23  and  C_24
REMARK                            x       y       z     vdW  Elec       q    Type
REMARK                         _______ _______ _______ _____ _____    ______ ____
ROOT
ATOM      1  N   UNL     1     -36.341  22.451   1.186  0.00  0.00    -0.247 NA
ATOM      2  C   UNL     1     -35.693  23.538   3.701  0.00  0.00    +0.038 C 
ATOM      3  C   UNL     1     -35.670  22.142   3.503  0.00  0.00    +0.018 C 
ATOM      4  C   UNL     1     -35.366  24.055   4.965  0.00  0.00    +0.152 C 
ATOM      5  C   UNL     1     -36.002  21.666   2.233  0.00  0.00    +0.079 C 
ATOM      6  C   UNL     1     -35.324  21.292   4.566  0.00  0.00    +0.001 C 
ATOM      7  C   UNL     1     -36.041  24.369   2.629  0.00  0.00    +0.024 C 
ATOM      8  C   UNL     1     -35.022  23.200   6.014  0.00  0.00    +0.038 C 
ATOM      9  C   UNL     1     -35.001  21.822   5.815  0.00  0.00    +0.003 C 
ATOM     10  C   UNL     1     -36.352  23.782   1.413  0.00  0.00    +0.099 C 
ENDROOT
BRANCH   5  11
ATOM     11  C   UNL     1     -36.011  20.242   1.913  0.00  0.00    +0.157 C 
BRANCH  11  12
ATOM     12  N   UNL     1     -35.124  19.697   1.132  0.00  0.00    -0.126 NA
BRANCH  12  13
ATOM     13  N   UNL     1     -34.116  19.067   1.782  0.00  0.00    -0.244 N 
ATOM     14  H   UNL     1     -34.272  18.701   2.683  0.00  0.00    +0.170 HD
BRANCH  13  16
ATOM     15  S   UNL     1     -32.277  20.082   0.148  0.00  0.00    -0.018 S 
ATOM     16  C   UNL     1     -32.880  18.932   1.202  0.00  0.00    +0.143 C 
BRANCH  16  17
ATOM     17  N   UNL     1     -32.161  17.813   1.526  0.00  0.00    -0.340 N 
ATOM     18  H   UNL     1     -32.616  16.946   1.621  0.00  0.00    +0.144 HD
ATOM     19  H   UNL     1     -31.188  17.876   1.665  0.00  0.00    +0.144 HD
ENDBRANCH  16  17
ENDBRANCH  13  16
ENDBRANCH  12  13
ENDBRANCH  11  12
ENDBRANCH   5  11
BRANCH   4  20
ATOM     20  O   UNL     1     -35.373  25.399   5.206  0.00  0.00    -0.394 OA
BRANCH  20  22
ATOM     21  O   UNL     1     -33.829  26.577   6.498  0.00  0.00    -0.202 OA
ATOM     22  C   UNL     1     -34.112  25.938   5.493  0.00  0.00    +0.516 C 
BRANCH  22  23
ATOM     23  O   UNL     1     -33.259  25.635   4.473  0.00  0.00    -0.418 OA
BRANCH  23  24
ATOM     24  C   UNL     1     -33.164  26.617   3.435  0.00  0.00    +0.212 C 
ATOM     25  C   UNL     1     -32.674  25.949   2.169  0.00  0.00    +0.051 C 
ENDBRANCH  23  24
ENDBRANCH  22  23
ENDBRANCH  20  22
ENDBRANCH   4  20
TORSDOF 9
ENDMDL
MODEL 6
REMARK VINA RESULT:      -5.5      5.692      7.674
REMARK  Name = 56842556
REMARK  9 active torsions:
REMARK  status: ('A' for Active; 'I' for Inactive)
REMARK    1  A    between atoms: C_4  and  O_20
REMARK    2  A    between atoms: C_5  and  C_12
REMARK    3  A    between atoms: N_11  and  C_12
REMARK    4  A    between atoms: N_11  and  N_13
REMARK    5  A    between atoms: N_13  and  C_16
REMARK    6  A    between atoms: C_16  and  N_17
REMARK    7  A    between atoms: O_20  and  C_22
REMARK    8  A    between atoms: C_22  and  O_23
REMARK    9  A    between atoms: O_23  and  C_24
REMARK                            x       y       z     vdW  Elec       q    Type
REMARK                         _______ _______ _______ _____ _____    ______ ____
ROOT
ATOM      1  N   UNL     1     -36.666  22.323   1.442  0.00  0.00    -0.247 NA
ATOM      2  C   UNL     1     -36.107  23.537   3.920  0.00  0.00    +0.038 C 
ATOM      3  C   UNL     1     -35.809  22.175   3.713  0.00  0.00    +0.018 C 
ATOM      4  C   UNL     1     -35.818  24.119   5.165  0.00  0.00    +0.152 C 
ATOM      5  C   UNL     1     -36.111  21.632   2.463  0.00  0.00    +0.079 C 
ATOM      6  C   UNL     1     -35.233  21.421   4.749  0.00  0.00    +0.001 C 
ATOM      7  C   UNL     1     -36.681  24.272   2.875  0.00  0.00    +0.024 C 
ATOM      8  C   UNL     1     -35.245  23.360   6.187  0.00  0.00    +0.038 C 
ATOM      9  C   UNL     1     -34.953  22.014   5.980  0.00  0.00    +0.003 C 
ATOM     10  C   UNL     1     -36.936  23.625   1.676  0.00  0.00    +0.099 C 
ENDROOT
BRANCH   5  11
ATOM     11  C   UNL     1     -35.846  20.234   2.136  0.00  0.00    +0.157 C 
BRANCH  11  12
ATOM     12  N   UNL     1     -35.988  19.760   0.933  0.00  0.00    -0.126 NA
BRANCH  12  13
ATOM     13  N   UNL     1     -37.086  18.985   0.760  0.00  0.00    -0.244 N 
ATOM     14  H   UNL     1     -37.907  19.186   1.265  0.00  0.00    +0.170 HD
BRANCH  13  16
ATOM     15  S   UNL     1     -36.555  18.093  -1.690  0.00  0.00    -0.018 S 
ATOM     16  C   UNL     1     -37.069  17.922  -0.108  0.00  0.00    +0.143 C 
BRANCH  16  17
ATOM     17  N   UNL     1     -37.492  16.715   0.381  0.00  0.00    -0.340 N 
ATOM     18  H   UNL     1     -38.354  16.649   0.851  0.00  0.00    +0.144 HD
ATOM     19  H   UNL     1     -36.934  15.913   0.261  0.00  0.00    +0.144 HD
ENDBRANCH  16  17
ENDBRANCH  13  16
ENDBRANCH  12  13
ENDBRANCH  11  12
ENDBRANCH   5  11
BRANCH   4  20
ATOM     20  O   UNL     1     -36.087  25.434   5.413  0.00  0.00    -0.394 OA
BRANCH  20  22
ATOM     21  O   UNL     1     -34.128  26.361   6.277  0.00  0.00    -0.202 OA
ATOM     22  C   UNL     1     -34.961  26.267   5.384  0.00  0.00    +0.516 C 
BRANCH  22  23
ATOM     23  O   UNL     1     -34.946  26.949   4.203  0.00  0.00    -0.418 OA
BRANCH  23  24
ATOM     24  C   UNL     1     -33.661  27.092   3.589  0.00  0.00    +0.212 C 
ATOM     25  C   UNL     1     -33.286  25.785   2.923  0.00  0.00    +0.051 C 
ENDBRANCH  23  24
ENDBRANCH  22  23
ENDBRANCH  20  22
ENDBRANCH   4  20
TORSDOF 9
ENDMDL
MODEL 7
REMARK VINA RESULT:      -5.4      2.511      3.672
REMARK  Name = 56842556
REMARK  9 active torsions:
REMARK  status: ('A' for Active; 'I' for Inactive)
REMARK    1  A    between atoms: C_4  and  O_20
REMARK    2  A    between atoms: C_5  and  C_12
REMARK    3  A    between atoms: N_11  and  C_12
REMARK    4  A    between atoms: N_11  and  N_13
REMARK    5  A    between atoms: N_13  and  C_16
REMARK    6  A    between atoms: C_16  and  N_17
REMARK    7  A    between atoms: O_20  and  C_22
REMARK    8  A    between atoms: C_22  and  O_23
REMARK    9  A    between atoms: O_23  and  C_24
REMARK                            x       y       z     vdW  Elec       q    Type
REMARK                         _______ _______ _______ _____ _____    ______ ____
ROOT
ATOM      1  N   UNL     1     -34.387  26.310   3.628  0.00  0.00    -0.247 NA
ATOM      2  C   UNL     1     -35.087  23.598   3.338  0.00  0.00    +0.038 C 
ATOM      3  C   UNL     1     -34.782  24.121   4.612  0.00  0.00    +0.018 C 
ATOM      4  C   UNL     1     -35.434  22.242   3.220  0.00  0.00    +0.152 C 
ATOM      5  C   UNL     1     -34.442  25.473   4.689  0.00  0.00    +0.079 C 
ATOM      6  C   UNL     1     -34.827  23.284   5.739  0.00  0.00    +0.001 C 
ATOM      7  C   UNL     1     -35.037  24.448   2.227  0.00  0.00    +0.024 C 
ATOM      8  C   UNL     1     -35.476  21.420   4.348  0.00  0.00    +0.038 C 
ATOM      9  C   UNL     1     -35.173  21.939   5.604  0.00  0.00    +0.003 C 
ATOM     10  C   UNL     1     -34.686  25.774   2.425  0.00  0.00    +0.099 C 
ENDROOT
BRANCH   5  11
ATOM     11  C   UNL     1     -34.109  26.121   5.953  0.00  0.00    +0.157 C 
BRANCH  11  12
ATOM     12  N   UNL     1     -32.949  26.667   6.173  0.00  0.00    -0.126 NA
BRANCH  12  13
ATOM     13  N   UNL     1     -32.810  27.915   5.662  0.00  0.00    -0.244 N 
ATOM     14  H   UNL     1     -33.447  28.235   4.983  0.00  0.00    +0.170 HD
BRANCH  13  16
ATOM     15  S   UNL     1     -31.815  30.380   5.770  0.00  0.00    -0.018 S 
ATOM     16  C   UNL     1     -31.792  28.737   6.076  0.00  0.00    +0.143 C 
BRANCH  16  17
ATOM     17  N   UNL     1     -30.758  28.150   6.754  0.00  0.00    -0.340 N 
ATOM     18  H   UNL     1     -30.545  28.435   7.672  0.00  0.00    +0.144 HD
ATOM     19  H   UNL     1     -30.225  27.442   6.323  0.00  0.00    +0.144 HD
ENDBRANCH  16  17
ENDBRANCH  13  16
ENDBRANCH  12  13
ENDBRANCH  11  12
ENDBRANCH   5  11
BRANCH   4  20
ATOM     20  O   UNL     1     -35.738  21.690   2.010  0.00  0.00    -0.394 OA
BRANCH  20  22
ATOM     21  O   UNL     1     -33.875  21.607   0.608  0.00  0.00    -0.202 OA
ATOM     22  C   UNL     1     -34.658  21.062   1.376  0.00  0.00    +0.516 C 
BRANCH  22  23
ATOM     23  O   UNL     1     -34.625  19.753   1.754  0.00  0.00    -0.418 OA
BRANCH  23  24
ATOM     24  C   UNL     1     -34.001  18.858   0.826  0.00  0.00    +0.212 C 
ATOM     25  C   UNL     1     -32.749  18.290   1.457  0.00  0.00    +0.051 C 
ENDBRANCH  23  24
ENDBRANCH  22  23
ENDBRANCH  20  22
ENDBRANCH   4  20
TORSDOF 9
ENDMDL
MODEL 8
REMARK VINA RESULT:      -5.2      5.117      7.154
REMARK  Name = 56842556
REMARK  9 active torsions:
REMARK  status: ('A' for Active; 'I' for Inactive)
REMARK    1  A    between atoms: C_4  and  O_20
REMARK    2  A    between atoms: C_5  and  C_12
REMARK    3  A    between atoms: N_11  and  C_12
REMARK    4  A    between atoms: N_11  and  N_13
REMARK    5  A    between atoms: N_13  and  C_16
REMARK    6  A    between atoms: C_16  and  N_17
REMARK    7  A    between atoms: O_20  and  C_22
REMARK    8  A    between atoms: C_22  and  O_23
REMARK    9  A    between atoms: O_23  and  C_24
REMARK                            x       y       z     vdW  Elec       q    Type
REMARK                         _______ _______ _______ _____ _____    ______ ____
ROOT
ATOM      1  N   UNL     1     -36.692  23.313   1.243  0.00  0.00    -0.247 NA
ATOM      2  C   UNL     1     -35.803  24.111   3.792  0.00  0.00    +0.038 C 
ATOM      3  C   UNL     1     -35.884  22.742   3.464  0.00  0.00    +0.018 C 
ATOM      4  C   UNL     1     -35.357  24.483   5.071  0.00  0.00    +0.152 C 
ATOM      5  C   UNL     1     -36.333  22.411   2.184  0.00  0.00    +0.079 C 
ATOM      6  C   UNL     1     -35.521  21.774   4.415  0.00  0.00    +0.001 C 
ATOM      7  C   UNL     1     -36.170  25.061   2.831  0.00  0.00    +0.024 C 
ATOM      8  C   UNL     1     -34.998  23.512   6.007  0.00  0.00    +0.038 C 
ATOM      9  C   UNL     1     -35.080  22.160   5.681  0.00  0.00    +0.003 C 
ATOM     10  C   UNL     1     -36.601  24.614   1.592  0.00  0.00    +0.099 C 
ENDROOT
BRANCH   5  11
ATOM     11  C   UNL     1     -36.456  21.029   1.735  0.00  0.00    +0.157 C 
BRANCH  11  12
ATOM     12  N   UNL     1     -37.575  20.537   1.289  0.00  0.00    -0.126 NA
BRANCH  12  13
ATOM     13  N   UNL     1     -38.671  20.906   1.994  0.00  0.00    -0.244 N 
ATOM     14  H   UNL     1     -38.760  20.630   2.935  0.00  0.00    +0.170 HD
BRANCH  13  16
ATOM     15  S   UNL     1     -40.361  21.218  -0.038  0.00  0.00    -0.018 S 
ATOM     16  C   UNL     1     -39.660  21.661   1.414  0.00  0.00    +0.143 C 
BRANCH  16  17
ATOM     17  N   UNL     1     -40.048  22.792   2.080  0.00  0.00    -0.340 N 
ATOM     18  H   UNL     1     -39.614  23.653   1.883  0.00  0.00    +0.144 HD
ATOM     19  H   UNL     1     -40.762  22.745   2.757  0.00  0.00    +0.144 HD
ENDBRANCH  16  17
ENDBRANCH  13  16
ENDBRANCH  12  13
ENDBRANCH  11  12
ENDBRANCH   5  11
BRANCH   4  20
ATOM     20  O   UNL     1     -35.260  25.795   5.435  0.00  0.00    -0.394 OA
BRANCH  20  22
ATOM     21  O   UNL     1     -33.517  26.675   6.712  0.00  0.00    -0.202 OA
ATOM     22  C   UNL     1     -33.949  26.236   5.653  0.00  0.00    +0.516 C 
BRANCH  22  23
ATOM     23  O   UNL     1     -33.238  26.097   4.498  0.00  0.00    -0.418 OA
BRANCH  23  24
ATOM     24  C   UNL     1     -33.236  27.239   3.634  0.00  0.00    +0.212 C 
ATOM     25  C   UNL     1     -31.901  27.943   3.752  0.00  0.00    +0.051 C 
ENDBRANCH  23  24
ENDBRANCH  22  23
ENDBRANCH  20  22
ENDBRANCH   4  20
TORSDOF 9
ENDMDL
MODEL 9
REMARK VINA RESULT:      -5.2      5.018      7.188
REMARK  Name = 56842556
REMARK  9 active torsions:
REMARK  status: ('A' for Active; 'I' for Inactive)
REMARK    1  A    between atoms: C_4  and  O_20
REMARK    2  A    between atoms: C_5  and  C_12
REMARK    3  A    between atoms: N_11  and  C_12
REMARK    4  A    between atoms: N_11  and  N_13
REMARK    5  A    between atoms: N_13  and  C_16
REMARK    6  A    between atoms: C_16  and  N_17
REMARK    7  A    between atoms: O_20  and  C_22
REMARK    8  A    between atoms: C_22  and  O_23
REMARK    9  A    between atoms: O_23  and  C_24
REMARK                            x       y       z     vdW  Elec       q    Type
REMARK                         _______ _______ _______ _____ _____    ______ ____
ROOT
ATOM      1  N   UNL     1     -35.574  22.899   0.768  0.00  0.00    -0.247 NA
ATOM      2  C   UNL     1     -34.548  24.173   3.060  0.00  0.00    +0.038 C 
ATOM      3  C   UNL     1     -35.433  23.083   3.189  0.00  0.00    +0.018 C 
ATOM      4  C   UNL     1     -34.051  24.792   4.218  0.00  0.00    +0.152 C 
ATOM      5  C   UNL     1     -35.907  22.495   2.015  0.00  0.00    +0.079 C 
ATOM      6  C   UNL     1     -35.805  22.634   4.467  0.00  0.00    +0.001 C 
ATOM      7  C   UNL     1     -34.190  24.607   1.777  0.00  0.00    +0.024 C 
ATOM      8  C   UNL     1     -34.427  24.336   5.483  0.00  0.00    +0.038 C 
ATOM      9  C   UNL     1     -35.302  23.260   5.607  0.00  0.00    +0.003 C 
ATOM     10  C   UNL     1     -34.724  23.945   0.683  0.00  0.00    +0.099 C 
ENDROOT
BRANCH   5  11
ATOM     11  C   UNL     1     -36.826  21.361   2.027  0.00  0.00    +0.157 C 
BRANCH  11  12
ATOM     12  N   UNL     1     -36.489  20.185   1.587  0.00  0.00    -0.126 NA
BRANCH  12  13
ATOM     13  N   UNL     1     -35.232  19.801   1.917  0.00  0.00    -0.244 N 
ATOM     14  H   UNL     1     -34.921  19.901   2.846  0.00  0.00    +0.170 HD
BRANCH  13  16
ATOM     15  S   UNL     1     -33.064  20.130   0.409  0.00  0.00    -0.018 S 
ATOM     16  C   UNL     1     -34.385  19.274   0.974  0.00  0.00    +0.143 C 
BRANCH  16  17
ATOM     17  N   UNL     1     -34.671  18.016   0.516  0.00  0.00    -0.340 N 
ATOM     18  H   UNL     1     -35.477  17.548   0.834  0.00  0.00    +0.144 HD
ATOM     19  H   UNL     1     -34.071  17.579  -0.131  0.00  0.00    +0.144 HD
ENDBRANCH  16  17
ENDBRANCH  13  16
ENDBRANCH  12  13
ENDBRANCH  11  12
ENDBRANCH   5  11
BRANCH   4  20
ATOM     20  O   UNL     1     -33.191  25.849   4.144  0.00  0.00    -0.394 OA
BRANCH  20  22
ATOM     21  O   UNL     1     -34.713  27.616   4.079  0.00  0.00    -0.202 OA
ATOM     22  C   UNL     1     -33.737  27.066   4.573  0.00  0.00    +0.516 C 
BRANCH  22  23
ATOM     23  O   UNL     1     -33.006  27.532   5.625  0.00  0.00    -0.418 OA
BRANCH  23  24
ATOM     24  C   UNL     1     -32.031  28.531   5.305  0.00  0.00    +0.212 C 
ATOM     25  C   UNL     1     -31.756  29.363   6.538  0.00  0.00    +0.051 C 
ENDBRANCH  23  24
ENDBRANCH  22  23
ENDBRANCH  20  22
ENDBRANCH   4  20
TORSDOF 9
ENDMDL
