MODEL 1
REMARK VINA RESULT:      -6.0      0.000      0.000
REMARK  Name = 195727
REMARK  9 active torsions:
REMARK  status: ('A' for Active; 'I' for Inactive)
REMARK    1  A    between atoms: C_1  and  C_3
REMARK    2  A    between atoms: C_1  and  C_14
REMARK    3  A    between atoms: C_3  and  O_4
REMARK    4  A    between atoms: O_4  and  C_5
REMARK    5  A    between atoms: C_5  and  C_6
REMARK    6  A    between atoms: C_6  and  N_9
REMARK    7  A    between atoms: C_14  and  C_16
REMARK    8  A    between atoms: C_16  and  O_17
REMARK    9  A    between atoms: O_17  and  N_20
REMARK                            x       y       z     vdW  Elec       q    Type
REMARK                         _______ _______ _______ _____ _____    ______ ____
ROOT
ATOM      1  C   UNL     1     -34.487  24.142   4.984  0.00  0.00    +0.121 C 
ENDROOT
BRANCH   1   3
ATOM      2  O   UNL     1     -35.868  22.592   6.255  0.00  0.00    -0.250 OA
ATOM      3  C   UNL     1     -35.768  23.441   5.381  0.00  0.00    +0.318 C 
BRANCH   3   4
ATOM      4  O   UNL     1     -36.789  23.918   4.608  0.00  0.00    -0.447 OA
BRANCH   4   5
ATOM      5  C   UNL     1     -36.604  23.786   3.194  0.00  0.00    +0.230 C 
BRANCH   5   6
ATOM      6  C   UNL     1     -37.205  22.472   2.728  0.00  0.00    +0.149 C 
BRANCH   6   9
ATOM      7  O   UNL     1     -36.605  22.333  -0.188  0.00  0.00    -0.269 OA
ATOM      8  O   UNL     1     -35.262  20.485   3.809  0.00  0.00    -0.269 OA
ATOM      9  N   UNL     1     -36.238  21.667   2.031  0.00  0.00    -0.219 N 
ATOM     10  C   UNL     1     -36.038  21.679   0.671  0.00  0.00    +0.255 C 
ATOM     11  C   UNL     1     -35.381  20.774   2.630  0.00  0.00    +0.255 C 
ATOM     12  C   UNL     1     -34.963  20.713   0.395  0.00  0.00    +0.063 C 
ATOM     13  C   UNL     1     -34.574  20.178   1.554  0.00  0.00    +0.063 C 
ENDBRANCH   6   9
ENDBRANCH   5   6
ENDBRANCH   4   5
ENDBRANCH   3   4
ENDBRANCH   1   3
BRANCH   1  14
ATOM     14  C   UNL     1     -34.357  25.531   5.607  0.00  0.00    +0.123 C 
BRANCH  14  16
ATOM     15  O   UNL     1     -35.146  27.216   4.038  0.00  0.00    -0.248 OA
ATOM     16  C   UNL     1     -34.216  26.628   4.573  0.00  0.00    +0.341 C 
BRANCH  16  17
ATOM     17  O   UNL     1     -32.887  26.850   4.347  0.00  0.00    -0.336 OA
BRANCH  17  20
ATOM     18  O   UNL     1     -31.771  27.200   6.970  0.00  0.00    -0.267 OA
ATOM     19  O   UNL     1     -32.814  29.420   3.068  0.00  0.00    -0.267 OA
ATOM     20  N   UNL     1     -32.462  28.066   4.926  0.00  0.00    -0.054 N 
ATOM     21  C   UNL     1     -31.649  29.563   6.464  0.00  0.00    +0.066 C 
ATOM     22  C   UNL     1     -31.996  30.301   5.169  0.00  0.00    +0.066 C 
ATOM     23  C   UNL     1     -31.952  28.117   6.184  0.00  0.00    +0.287 C 
ATOM     24  C   UNL     1     -32.476  29.231   4.226  0.00  0.00    +0.287 C 
ENDBRANCH  17  20
ENDBRANCH  16  17
ENDBRANCH  14  16
ENDBRANCH   1  14
TORSDOF 9
ENDMDL
MODEL 2
REMARK VINA RESULT:      -5.8      0.353      2.203
REMARK  Name = 195727
REMARK  9 active torsions:
REMARK  status: ('A' for Active; 'I' for Inactive)
REMARK    1  A    between atoms: C_1  and  C_3
REMARK    2  A    between atoms: C_1  and  C_14
REMARK    3  A    between atoms: C_3  and  O_4
REMARK    4  A    between atoms: O_4  and  C_5
REMARK    5  A    between atoms: C_5  and  C_6
REMARK    6  A    between atoms: C_6  and  N_9
REMARK    7  A    between atoms: C_14  and  C_16
REMARK    8  A    between atoms: C_16  and  O_17
REMARK    9  A    between atoms: O_17  and  N_20
REMARK                            x       y       z     vdW  Elec       q    Type
REMARK                         _______ _______ _______ _____ _____    ______ ____
ROOT
ATOM      1  C   UNL     1     -34.725  24.228   4.269  0.00  0.00    +0.121 C 
ENDROOT
BRANCH   1   3
ATOM      2  O   UNL     1     -35.957  22.953   5.937  0.00  0.00    -0.250 OA
ATOM      3  C   UNL     1     -35.956  23.645   4.929  0.00  0.00    +0.318 C 
BRANCH   3   4
ATOM      4  O   UNL     1     -37.059  24.023   4.216  0.00  0.00    -0.447 OA
BRANCH   4   5
ATOM      5  C   UNL     1     -37.026  23.712   2.819  0.00  0.00    +0.230 C 
BRANCH   5   6
ATOM      6  C   UNL     1     -37.410  22.257   2.617  0.00  0.00    +0.149 C 
BRANCH   6   9
ATOM      7  O   UNL     1     -35.269  20.521   3.751  0.00  0.00    -0.269 OA
ATOM      8  O   UNL     1     -36.815  22.071  -0.299  0.00  0.00    -0.269 OA
ATOM      9  N   UNL     1     -36.373  21.525   1.941  0.00  0.00    -0.219 N 
ATOM     10  C   UNL     1     -35.427  20.745   2.562  0.00  0.00    +0.255 C 
ATOM     11  C   UNL     1     -36.185  21.506   0.579  0.00  0.00    +0.255 C 
ATOM     12  C   UNL     1     -34.576  20.188   1.499  0.00  0.00    +0.063 C 
ATOM     13  C   UNL     1     -35.024  20.638   0.326  0.00  0.00    +0.063 C 
ENDBRANCH   6   9
ENDBRANCH   5   6
ENDBRANCH   4   5
ENDBRANCH   3   4
ENDBRANCH   1   3
BRANCH   1  14
ATOM     14  C   UNL     1     -34.057  25.308   5.118  0.00  0.00    +0.123 C 
BRANCH  14  16
ATOM     15  O   UNL     1     -34.970  27.321   4.098  0.00  0.00    -0.248 OA
ATOM     16  C   UNL     1     -33.998  26.651   4.420  0.00  0.00    +0.341 C 
BRANCH  16  17
ATOM     17  O   UNL     1     -32.688  26.985   4.221  0.00  0.00    -0.336 OA
BRANCH  17  20
ATOM     18  O   UNL     1     -32.665  29.679   3.228  0.00  0.00    -0.267 OA
ATOM     19  O   UNL     1     -32.023  27.127   7.011  0.00  0.00    -0.267 OA
ATOM     20  N   UNL     1     -32.337  28.146   4.944  0.00  0.00    -0.054 N 
ATOM     21  C   UNL     1     -31.893  30.346   5.422  0.00  0.00    +0.066 C 
ATOM     22  C   UNL     1     -31.679  29.499   6.679  0.00  0.00    +0.066 C 
ATOM     23  C   UNL     1     -32.355  29.377   4.370  0.00  0.00    +0.287 C 
ATOM     24  C   UNL     1     -32.033  28.095   6.268  0.00  0.00    +0.287 C 
ENDBRANCH  17  20
ENDBRANCH  16  17
ENDBRANCH  14  16
ENDBRANCH   1  14
TORSDOF 9
ENDMDL
MODEL 3
REMARK VINA RESULT:      -5.8      1.428      7.694
REMARK  Name = 195727
REMARK  9 active torsions:
REMARK  status: ('A' for Active; 'I' for Inactive)
REMARK    1  A    between atoms: C_1  and  C_3
REMARK    2  A    between atoms: C_1  and  C_14
REMARK    3  A    between atoms: C_3  and  O_4
REMARK    4  A    between atoms: O_4  and  C_5
REMARK    5  A    between atoms: C_5  and  C_6
REMARK    6  A    between atoms: C_6  and  N_9
REMARK    7  A    between atoms: C_14  and  C_16
REMARK    8  A    between atoms: C_16  and  O_17
REMARK    9  A    between atoms: O_17  and  N_20
REMARK                            x       y       z     vdW  Elec       q    Type
REMARK                         _______ _______ _______ _____ _____    ______ ____
ROOT
ATOM      1  C   UNL     1     -35.141  26.162   4.583  0.00  0.00    +0.121 C 
ENDROOT
BRANCH   1   3
ATOM      2  O   UNL     1     -33.723  26.630   6.506  0.00  0.00    -0.250 OA
ATOM      3  C   UNL     1     -33.836  26.413   5.308  0.00  0.00    +0.318 C 
BRANCH   3   4
ATOM      4  O   UNL     1     -32.812  26.350   4.405  0.00  0.00    -0.447 OA
BRANCH   4   5
ATOM      5  C   UNL     1     -32.907  27.259   3.303  0.00  0.00    +0.230 C 
BRANCH   5   6
ATOM      6  C   UNL     1     -31.699  28.178   3.302  0.00  0.00    +0.149 C 
BRANCH   6   9
ATOM      7  O   UNL     1     -29.813  27.682   5.554  0.00  0.00    -0.269 OA
ATOM      8  O   UNL     1     -33.238  30.510   4.346  0.00  0.00    -0.269 OA
ATOM      9  N   UNL     1     -31.565  28.876   4.552  0.00  0.00    -0.219 N 
ATOM     10  C   UNL     1     -30.652  28.565   5.532  0.00  0.00    +0.255 C 
ATOM     11  C   UNL     1     -32.331  29.950   4.939  0.00  0.00    +0.255 C 
ATOM     12  C   UNL     1     -30.864  29.527   6.625  0.00  0.00    +0.063 C 
ATOM     13  C   UNL     1     -31.857  30.346   6.274  0.00  0.00    +0.063 C 
ENDBRANCH   6   9
ENDBRANCH   5   6
ENDBRANCH   4   5
ENDBRANCH   3   4
ENDBRANCH   1   3
BRANCH   1  14
ATOM     14  C   UNL     1     -36.079  25.239   5.359  0.00  0.00    +0.123 C 
BRANCH  14  16
ATOM     15  O   UNL     1     -34.730  23.247   5.730  0.00  0.00    -0.248 OA
ATOM     16  C   UNL     1     -35.709  23.777   5.222  0.00  0.00    +0.341 C 
BRANCH  16  17
ATOM     17  O   UNL     1     -36.651  23.158   4.450  0.00  0.00    -0.336 OA
BRANCH  17  20
ATOM     18  O   UNL     1     -35.354  20.660   3.878  0.00  0.00    -0.267 OA
ATOM     19  O   UNL     1     -36.796  24.601   1.971  0.00  0.00    -0.267 OA
ATOM     20  N   UNL     1     -36.114  22.753   3.208  0.00  0.00    -0.054 N 
ATOM     21  C   UNL     1     -35.041  21.485   1.624  0.00  0.00    +0.066 C 
ATOM     22  C   UNL     1     -35.520  22.793   0.990  0.00  0.00    +0.066 C 
ATOM     23  C   UNL     1     -35.513  21.545   3.051  0.00  0.00    +0.287 C 
ATOM     24  C   UNL     1     -36.237  23.523   2.094  0.00  0.00    +0.287 C 
ENDBRANCH  17  20
ENDBRANCH  16  17
ENDBRANCH  14  16
ENDBRANCH   1  14
TORSDOF 9
ENDMDL
MODEL 4
REMARK VINA RESULT:      -5.7      0.501      1.620
REMARK  Name = 195727
REMARK  9 active torsions:
REMARK  status: ('A' for Active; 'I' for Inactive)
REMARK    1  A    between atoms: C_1  and  C_3
REMARK    2  A    between atoms: C_1  and  C_14
REMARK    3  A    between atoms: C_3  and  O_4
REMARK    4  A    between atoms: O_4  and  C_5
REMARK    5  A    between atoms: C_5  and  C_6
REMARK    6  A    between atoms: C_6  and  N_9
REMARK    7  A    between atoms: C_14  and  C_16
REMARK    8  A    between atoms: C_16  and  O_17
REMARK    9  A    between atoms: O_17  and  N_20
REMARK                            x       y       z     vdW  Elec       q    Type
REMARK                         _______ _______ _______ _____ _____    ______ ____
ROOT
ATOM      1  C   UNL     1     -35.291  24.909   5.467  0.00  0.00    +0.121 C 
ENDROOT
BRANCH   1   3
ATOM      2  O   UNL     1     -34.889  22.547   5.901  0.00  0.00    -0.250 OA
ATOM      3  C   UNL     1     -35.575  23.424   5.395  0.00  0.00    +0.318 C 
BRANCH   3   4
ATOM      4  O   UNL     1     -36.722  23.230   4.678  0.00  0.00    -0.447 OA
BRANCH   4   5
ATOM      5  C   UNL     1     -36.624  23.497   3.275  0.00  0.00    +0.230 C 
BRANCH   5   6
ATOM      6  C   UNL     1     -37.181  22.317   2.498  0.00  0.00    +0.149 C 
BRANCH   6   9
ATOM      7  O   UNL     1     -36.389  22.388  -0.374  0.00  0.00    -0.269 OA
ATOM      8  O   UNL     1     -35.236  20.333   3.581  0.00  0.00    -0.269 OA
ATOM      9  N   UNL     1     -36.141  21.593   1.819  0.00  0.00    -0.219 N 
ATOM     10  C   UNL     1     -35.853  21.700   0.478  0.00  0.00    +0.255 C 
ATOM     11  C   UNL     1     -35.290  20.693   2.417  0.00  0.00    +0.255 C 
ATOM     12  C   UNL     1     -34.726  20.792   0.215  0.00  0.00    +0.063 C 
ATOM     13  C   UNL     1     -34.393  20.197   1.362  0.00  0.00    +0.063 C 
ENDBRANCH   6   9
ENDBRANCH   5   6
ENDBRANCH   4   5
ENDBRANCH   3   4
ENDBRANCH   1   3
BRANCH   1  14
ATOM     14  C   UNL     1     -33.950  25.285   4.839  0.00  0.00    +0.123 C 
BRANCH  14  16
ATOM     15  O   UNL     1     -34.889  27.424   4.157  0.00  0.00    -0.248 OA
ATOM     16  C   UNL     1     -33.909  26.719   4.356  0.00  0.00    +0.341 C 
BRANCH  16  17
ATOM     17  O   UNL     1     -32.605  27.089   4.191  0.00  0.00    -0.336 OA
BRANCH  17  20
ATOM     18  O   UNL     1     -32.546  29.835   3.352  0.00  0.00    -0.267 OA
ATOM     19  O   UNL     1     -32.042  27.074   7.007  0.00  0.00    -0.267 OA
ATOM     20  N   UNL     1     -32.280  28.208   4.990  0.00  0.00    -0.054 N 
ATOM     21  C   UNL     1     -31.855  30.377   5.607  0.00  0.00    +0.066 C 
ATOM     22  C   UNL     1     -31.687  29.461   6.821  0.00  0.00    +0.066 C 
ATOM     23  C   UNL     1     -32.278  29.469   4.485  0.00  0.00    +0.287 C 
ATOM     24  C   UNL     1     -32.025  28.082   6.320  0.00  0.00    +0.287 C 
ENDBRANCH  17  20
ENDBRANCH  16  17
ENDBRANCH  14  16
ENDBRANCH   1  14
TORSDOF 9
ENDMDL
MODEL 5
REMARK VINA RESULT:      -5.6      1.606      8.073
REMARK  Name = 195727
REMARK  9 active torsions:
REMARK  status: ('A' for Active; 'I' for Inactive)
REMARK    1  A    between atoms: C_1  and  C_3
REMARK    2  A    between atoms: C_1  and  C_14
REMARK    3  A    between atoms: C_3  and  O_4
REMARK    4  A    between atoms: O_4  and  C_5
REMARK    5  A    between atoms: C_5  and  C_6
REMARK    6  A    between atoms: C_6  and  N_9
REMARK    7  A    between atoms: C_14  and  C_16
REMARK    8  A    between atoms: C_16  and  O_17
REMARK    9  A    between atoms: O_17  and  N_20
REMARK                            x       y       z     vdW  Elec       q    Type
REMARK                         _______ _______ _______ _____ _____    ______ ____
ROOT
ATOM      1  C   UNL     1     -34.414  24.643   5.191  0.00  0.00    +0.121 C 
ENDROOT
BRANCH   1   3
ATOM      2  O   UNL     1     -36.294  26.136   5.595  0.00  0.00    -0.250 OA
ATOM      3  C   UNL     1     -35.096  25.977   5.408  0.00  0.00    +0.318 C 
BRANCH   3   4
ATOM      4  O   UNL     1     -34.154  26.966   5.368  0.00  0.00    -0.447 OA
BRANCH   4   5
ATOM      5  C   UNL     1     -32.920  26.668   6.031  0.00  0.00    +0.230 C 
BRANCH   5   6
ATOM      6  C   UNL     1     -32.465  27.883   6.819  0.00  0.00    +0.149 C 
BRANCH   6   9
ATOM      7  O   UNL     1     -32.918  30.339   5.193  0.00  0.00    -0.269 OA
ATOM      8  O   UNL     1     -29.527  27.502   6.478  0.00  0.00    -0.269 OA
ATOM      9  N   UNL     1     -31.522  28.673   6.074  0.00  0.00    -0.219 N 
ATOM     10  C   UNL     1     -31.836  29.800   5.352  0.00  0.00    +0.255 C 
ATOM     11  C   UNL     1     -30.176  28.409   5.982  0.00  0.00    +0.255 C 
ATOM     12  C   UNL     1     -30.579  30.284   4.759  0.00  0.00    +0.063 C 
ATOM     13  C   UNL     1     -29.597  29.462   5.132  0.00  0.00    +0.063 C 
ENDBRANCH   6   9
ENDBRANCH   5   6
ENDBRANCH   4   5
ENDBRANCH   3   4
ENDBRANCH   1   3
BRANCH   1  14
ATOM     14  C   UNL     1     -35.193  23.476   5.794  0.00  0.00    +0.123 C 
BRANCH  14  16
ATOM     15  O   UNL     1     -35.218  21.092   5.303  0.00  0.00    -0.248 OA
ATOM     16  C   UNL     1     -35.193  22.250   4.907  0.00  0.00    +0.341 C 
BRANCH  16  17
ATOM     17  O   UNL     1     -35.170  22.653   3.601  0.00  0.00    -0.336 OA
BRANCH  17  20
ATOM     18  O   UNL     1     -35.349  20.230   2.071  0.00  0.00    -0.267 OA
ATOM     19  O   UNL     1     -37.781  23.850   3.562  0.00  0.00    -0.267 OA
ATOM     20  N   UNL     1     -36.301  22.183   2.897  0.00  0.00    -0.054 N 
ATOM     21  C   UNL     1     -37.626  20.870   1.560  0.00  0.00    +0.066 C 
ATOM     22  C   UNL     1     -38.434  22.072   2.054  0.00  0.00    +0.066 C 
ATOM     23  C   UNL     1     -36.272  21.020   2.196  0.00  0.00    +0.287 C 
ATOM     24  C   UNL     1     -37.492  22.837   2.945  0.00  0.00    +0.287 C 
ENDBRANCH  17  20
ENDBRANCH  16  17
ENDBRANCH  14  16
ENDBRANCH   1  14
TORSDOF 9
ENDMDL
MODEL 6
REMARK VINA RESULT:      -5.6      1.710      3.315
REMARK  Name = 195727
REMARK  9 active torsions:
REMARK  status: ('A' for Active; 'I' for Inactive)
REMARK    1  A    between atoms: C_1  and  C_3
REMARK    2  A    between atoms: C_1  and  C_14
REMARK    3  A    between atoms: C_3  and  O_4
REMARK    4  A    between atoms: O_4  and  C_5
REMARK    5  A    between atoms: C_5  and  C_6
REMARK    6  A    between atoms: C_6  and  N_9
REMARK    7  A    between atoms: C_14  and  C_16
REMARK    8  A    between atoms: C_16  and  O_17
REMARK    9  A    between atoms: O_17  and  N_20
REMARK                            x       y       z     vdW  Elec       q    Type
REMARK                         _______ _______ _______ _____ _____    ______ ____
ROOT
ATOM      1  C   UNL     1     -33.591  25.271   2.009  0.00  0.00    +0.121 C 
ENDROOT
BRANCH   1   3
ATOM      2  O   UNL     1     -35.609  26.160   0.976  0.00  0.00    -0.250 OA
ATOM      3  C   UNL     1     -35.004  25.218   1.468  0.00  0.00    +0.318 C 
BRANCH   3   4
ATOM      4  O   UNL     1     -35.484  23.946   1.614  0.00  0.00    -0.447 OA
BRANCH   4   5
ATOM      5  C   UNL     1     -36.908  23.833   1.708  0.00  0.00    +0.230 C 
BRANCH   5   6
ATOM      6  C   UNL     1     -37.261  22.698   2.652  0.00  0.00    +0.149 C 
BRANCH   6   9
ATOM      7  O   UNL     1     -37.015  24.767   4.782  0.00  0.00    -0.269 OA
ATOM      8  O   UNL     1     -35.310  20.655   3.608  0.00  0.00    -0.269 OA
ATOM      9  N   UNL     1     -36.429  22.707   3.825  0.00  0.00    -0.219 N 
ATOM     10  C   UNL     1     -36.391  23.720   4.755  0.00  0.00    +0.255 C 
ATOM     11  C   UNL     1     -35.556  21.705   4.178  0.00  0.00    +0.255 C 
ATOM     12  C   UNL     1     -35.414  23.316   5.777  0.00  0.00    +0.063 C 
ATOM     13  C   UNL     1     -34.920  22.125   5.437  0.00  0.00    +0.063 C 
ENDBRANCH   6   9
ENDBRANCH   5   6
ENDBRANCH   4   5
ENDBRANCH   3   4
ENDBRANCH   1   3
BRANCH   1  14
ATOM     14  C   UNL     1     -33.545  25.536   3.512  0.00  0.00    +0.123 C 
BRANCH  14  16
ATOM     15  O   UNL     1     -34.513  27.709   4.032  0.00  0.00    -0.248 OA
ATOM     16  C   UNL     1     -33.524  27.013   3.847  0.00  0.00    +0.341 C 
BRANCH  16  17
ATOM     17  O   UNL     1     -32.224  27.428   3.915  0.00  0.00    -0.336 OA
BRANCH  17  20
ATOM     18  O   UNL     1     -32.155  30.263   3.459  0.00  0.00    -0.267 OA
ATOM     19  O   UNL     1     -32.052  27.044   6.756  0.00  0.00    -0.267 OA
ATOM     20  N   UNL     1     -32.054  28.435   4.891  0.00  0.00    -0.054 N 
ATOM     21  C   UNL     1     -31.799  30.509   5.840  0.00  0.00    +0.066 C 
ATOM     22  C   UNL     1     -31.764  29.441   6.935  0.00  0.00    +0.066 C 
ATOM     23  C   UNL     1     -32.030  29.752   4.561  0.00  0.00    +0.287 C 
ATOM     24  C   UNL     1     -31.979  28.136   6.216  0.00  0.00    +0.287 C 
ENDBRANCH  17  20
ENDBRANCH  16  17
ENDBRANCH  14  16
ENDBRANCH   1  14
TORSDOF 9
ENDMDL
MODEL 7
REMARK VINA RESULT:      -5.6      2.067      7.763
REMARK  Name = 195727
REMARK  9 active torsions:
REMARK  status: ('A' for Active; 'I' for Inactive)
REMARK    1  A    between atoms: C_1  and  C_3
REMARK    2  A    between atoms: C_1  and  C_14
REMARK    3  A    between atoms: C_3  and  O_4
REMARK    4  A    between atoms: O_4  and  C_5
REMARK    5  A    between atoms: C_5  and  C_6
REMARK    6  A    between atoms: C_6  and  N_9
REMARK    7  A    between atoms: C_14  and  C_16
REMARK    8  A    between atoms: C_16  and  O_17
REMARK    9  A    between atoms: O_17  and  N_20
REMARK                            x       y       z     vdW  Elec       q    Type
REMARK                         _______ _______ _______ _____ _____    ______ ____
ROOT
ATOM      1  C   UNL     1     -35.665  26.623   2.380  0.00  0.00    +0.121 C 
ENDROOT
BRANCH   1   3
ATOM      2  O   UNL     1     -35.059  28.900   2.993  0.00  0.00    -0.250 OA
ATOM      3  C   UNL     1     -35.040  27.703   3.238  0.00  0.00    +0.318 C 
BRANCH   3   4
ATOM      4  O   UNL     1     -34.460  27.118   4.329  0.00  0.00    -0.447 OA
BRANCH   4   5
ATOM      5  C   UNL     1     -33.032  27.200   4.385  0.00  0.00    +0.230 C 
BRANCH   5   6
ATOM      6  C   UNL     1     -32.609  27.686   5.760  0.00  0.00    +0.149 C 
BRANCH   6   9
ATOM      7  O   UNL     1     -29.669  27.659   6.244  0.00  0.00    -0.269 OA
ATOM      8  O   UNL     1     -33.047  30.549   5.047  0.00  0.00    -0.269 OA
ATOM      9  N   UNL     1     -31.658  28.761   5.670  0.00  0.00    -0.219 N 
ATOM     10  C   UNL     1     -30.310  28.642   5.915  0.00  0.00    +0.255 C 
ATOM     11  C   UNL     1     -31.966  30.057   5.329  0.00  0.00    +0.255 C 
ATOM     12  C   UNL     1     -29.725  29.976   5.706  0.00  0.00    +0.063 C 
ATOM     13  C   UNL     1     -30.704  30.813   5.360  0.00  0.00    +0.063 C 
ENDBRANCH   6   9
ENDBRANCH   5   6
ENDBRANCH   4   5
ENDBRANCH   3   4
ENDBRANCH   1   3
BRANCH   1  14
ATOM     14  C   UNL     1     -37.038  26.188   2.888  0.00  0.00    +0.123 C 
BRANCH  14  16
ATOM     15  O   UNL     1     -38.100  24.104   3.562  0.00  0.00    -0.248 OA
ATOM     16  C   UNL     1     -37.088  24.721   3.262  0.00  0.00    +0.341 C 
BRANCH  16  17
ATOM     17  O   UNL     1     -35.822  24.210   3.200  0.00  0.00    -0.336 OA
BRANCH  17  20
ATOM     18  O   UNL     1     -35.559  21.363   2.932  0.00  0.00    -0.267 OA
ATOM     19  O   UNL     1     -35.349  24.827   5.964  0.00  0.00    -0.267 OA
ATOM     20  N   UNL     1     -35.588  23.284   4.240  0.00  0.00    -0.054 N 
ATOM     21  C   UNL     1     -35.277  21.291   5.334  0.00  0.00    +0.066 C 
ATOM     22  C   UNL     1     -35.207  22.441   6.342  0.00  0.00    +0.066 C 
ATOM     23  C   UNL     1     -35.487  21.951   4.000  0.00  0.00    +0.287 C 
ATOM     24  C   UNL     1     -35.381  23.690   5.521  0.00  0.00    +0.287 C 
ENDBRANCH  17  20
ENDBRANCH  16  17
ENDBRANCH  14  16
ENDBRANCH   1  14
TORSDOF 9
ENDMDL
MODEL 8
REMARK VINA RESULT:      -5.6      1.542      3.013
REMARK  Name = 195727
REMARK  9 active torsions:
REMARK  status: ('A' for Active; 'I' for Inactive)
REMARK    1  A    between atoms: C_1  and  C_3
REMARK    2  A    between atoms: C_1  and  C_14
REMARK    3  A    between atoms: C_3  and  O_4
REMARK    4  A    between atoms: O_4  and  C_5
REMARK    5  A    between atoms: C_5  and  C_6
REMARK    6  A    between atoms: C_6  and  N_9
REMARK    7  A    between atoms: C_14  and  C_16
REMARK    8  A    between atoms: C_16  and  O_17
REMARK    9  A    between atoms: O_17  and  N_20
REMARK                            x       y       z     vdW  Elec       q    Type
REMARK                         _______ _______ _______ _____ _____    ______ ____
ROOT
ATOM      1  C   UNL     1     -35.633  24.475   5.464  0.00  0.00    +0.121 C 
ENDROOT
BRANCH   1   3
ATOM      2  O   UNL     1     -35.943  22.181   6.219  0.00  0.00    -0.250 OA
ATOM      3  C   UNL     1     -35.613  22.966   5.342  0.00  0.00    +0.318 C 
BRANCH   3   4
ATOM      4  O   UNL     1     -35.174  22.631   4.092  0.00  0.00    -0.447 OA
BRANCH   4   5
ATOM      5  C   UNL     1     -36.022  21.740   3.359  0.00  0.00    +0.230 C 
BRANCH   5   6
ATOM      6  C   UNL     1     -36.420  22.389   2.046  0.00  0.00    +0.149 C 
BRANCH   6   9
ATOM      7  O   UNL     1     -36.861  25.324   2.311  0.00  0.00    -0.269 OA
ATOM      8  O   UNL     1     -39.225  21.379   2.114  0.00  0.00    -0.269 OA
ATOM      9  N   UNL     1     -37.652  23.120   2.170  0.00  0.00    -0.219 N 
ATOM     10  C   UNL     1     -37.747  24.487   2.285  0.00  0.00    +0.255 C 
ATOM     11  C   UNL     1     -38.904  22.553   2.190  0.00  0.00    +0.255 C 
ATOM     12  C   UNL     1     -39.181  24.802   2.384  0.00  0.00    +0.063 C 
ATOM     13  C   UNL     1     -39.865  23.659   2.327  0.00  0.00    +0.063 C 
ENDBRANCH   6   9
ENDBRANCH   5   6
ENDBRANCH   4   5
ENDBRANCH   3   4
ENDBRANCH   1   3
BRANCH   1  14
ATOM     14  C   UNL     1     -34.237  25.091   5.395  0.00  0.00    +0.123 C 
BRANCH  14  16
ATOM     15  O   UNL     1     -35.198  27.113   4.439  0.00  0.00    -0.248 OA
ATOM     16  C   UNL     1     -34.216  26.419   4.667  0.00  0.00    +0.341 C 
BRANCH  16  17
ATOM     17  O   UNL     1     -32.927  26.709   4.322  0.00  0.00    -0.336 OA
BRANCH  17  20
ATOM     18  O   UNL     1     -32.850  29.282   3.048  0.00  0.00    -0.267 OA
ATOM     19  O   UNL     1     -32.127  27.114   7.050  0.00  0.00    -0.267 OA
ATOM     20  N   UNL     1     -32.499  27.924   4.902  0.00  0.00    -0.054 N 
ATOM     21  C   UNL     1     -31.951  30.142   5.124  0.00  0.00    +0.066 C 
ATOM     22  C   UNL     1     -31.710  29.422   6.453  0.00  0.00    +0.066 C 
ATOM     23  C   UNL     1     -32.498  29.088   4.201  0.00  0.00    +0.287 C 
ATOM     24  C   UNL     1     -32.135  27.999   6.210  0.00  0.00    +0.287 C 
ENDBRANCH  17  20
ENDBRANCH  16  17
ENDBRANCH  14  16
ENDBRANCH   1  14
TORSDOF 9
ENDMDL
MODEL 9
REMARK VINA RESULT:      -5.5      5.071      7.701
REMARK  Name = 195727
REMARK  9 active torsions:
REMARK  status: ('A' for Active; 'I' for Inactive)
REMARK    1  A    between atoms: C_1  and  C_3
REMARK    2  A    between atoms: C_1  and  C_14
REMARK    3  A    between atoms: C_3  and  O_4
REMARK    4  A    between atoms: O_4  and  C_5
REMARK    5  A    between atoms: C_5  and  C_6
REMARK    6  A    between atoms: C_6  and  N_9
REMARK    7  A    between atoms: C_14  and  C_16
REMARK    8  A    between atoms: C_16  and  O_17
REMARK    9  A    between atoms: O_17  and  N_20
REMARK                            x       y       z     vdW  Elec       q    Type
REMARK                         _______ _______ _______ _____ _____    ______ ____
ROOT
ATOM      1  C   UNL     1     -40.555  24.060   1.072  0.00  0.00    +0.121 C 
ENDROOT
BRANCH   1   3
ATOM      2  O   UNL     1     -40.095  21.930   2.158  0.00  0.00    -0.250 OA
ATOM      3  C   UNL     1     -39.691  22.993   1.710  0.00  0.00    +0.318 C 
BRANCH   3   4
ATOM      4  O   UNL     1     -38.390  23.413   1.694  0.00  0.00    -0.447 OA
BRANCH   4   5
ATOM      5  C   UNL     1     -37.799  23.633   2.980  0.00  0.00    +0.230 C 
BRANCH   5   6
ATOM      6  C   UNL     1     -36.309  23.357   2.904  0.00  0.00    +0.149 C 
BRANCH   6   9
ATOM      7  O   UNL     1     -35.924  24.636   5.567  0.00  0.00    -0.269 OA
ATOM      8  O   UNL     1     -35.382  20.577   3.462  0.00  0.00    -0.269 OA
ATOM      9  N   UNL     1     -35.813  22.787   4.128  0.00  0.00    -0.219 N 
ATOM     10  C   UNL     1     -35.675  23.469   5.313  0.00  0.00    +0.255 C 
ATOM     11  C   UNL     1     -35.409  21.482   4.280  0.00  0.00    +0.255 C 
ATOM     12  C   UNL     1     -35.142  22.509   6.292  0.00  0.00    +0.063 C 
ATOM     13  C   UNL     1     -34.985  21.334   5.681  0.00  0.00    +0.063 C 
ENDBRANCH   6   9
ENDBRANCH   5   6
ENDBRANCH   4   5
ENDBRANCH   3   4
ENDBRANCH   1   3
BRANCH   1  14
ATOM     14  C   UNL     1     -40.072  25.475   1.384  0.00  0.00    +0.123 C 
BRANCH  14  16
ATOM     15  O   UNL     1     -40.574  25.554   3.764  0.00  0.00    -0.248 OA
ATOM     16  C   UNL     1     -40.687  26.040   2.647  0.00  0.00    +0.341 C 
BRANCH  16  17
ATOM     17  O   UNL     1     -41.375  27.176   2.329  0.00  0.00    -0.336 OA
BRANCH  17  20
ATOM     18  O   UNL     1     -42.021  28.850   4.571  0.00  0.00    -0.267 OA
ATOM     19  O   UNL     1     -43.780  25.774   1.624  0.00  0.00    -0.267 OA
ATOM     20  N   UNL     1     -42.613  27.236   3.006  0.00  0.00    -0.054 N 
ATOM     21  C   UNL     1     -44.215  27.828   4.539  0.00  0.00    +0.066 C 
ATOM     22  C   UNL     1     -44.799  26.806   3.562  0.00  0.00    +0.066 C 
ATOM     23  C   UNL     1     -42.807  28.064   4.065  0.00  0.00    +0.287 C 
ATOM     24  C   UNL     1     -43.690  26.521   2.585  0.00  0.00    +0.287 C 
ENDBRANCH  17  20
ENDBRANCH  16  17
ENDBRANCH  14  16
ENDBRANCH   1  14
TORSDOF 9
ENDMDL
