MODEL 1
REMARK VINA RESULT:      -5.2      0.000      0.000
REMARK  Name = 192812
REMARK  9 active torsions:
REMARK  status: ('A' for Active; 'I' for Inactive)
REMARK    1  A    between atoms: N_1  and  C_3
REMARK    2  A    between atoms: N_1  and  C_15
REMARK    3  A    between atoms: N_1  and  C_20
REMARK    4  A    between atoms: C_3  and  C_6
REMARK    5  A    between atoms: N_5  and  C_9
REMARK    6  A    between atoms: C_15  and  C_17
REMARK    7  A    between atoms: C_17  and  O_18
REMARK    8  A    between atoms: C_20  and  C_22
REMARK    9  A    between atoms: C_22  and  O_23
REMARK                            x       y       z     vdW  Elec       q    Type
REMARK                         _______ _______ _______ _____ _____    ______ ____
ROOT
ATOM      1  N   UNL     1     -36.217  23.290   3.185  0.00  0.00    +0.407 N 
ATOM      2  H   UNL     1     -36.021  23.982   3.909  0.00  0.00    -0.077 HD
ENDROOT
BRANCH   1   3
ATOM      3  C   UNL     1     -35.437  23.630   1.996  0.00  0.00    +0.012 C 
BRANCH   3   6
ATOM      4  O   UNL     1     -33.429  24.914   1.622  0.00  0.00    -0.277 OA
ATOM      5  N   UNL     1     -34.626  25.181   3.624  0.00  0.00    -0.286 N 
ATOM      6  C   UNL     1     -34.366  24.643   2.366  0.00  0.00    +0.205 C 
ATOM      7  H   UNL     1     -35.431  24.848   4.082  0.00  0.00    +0.155 HD
BRANCH   5   9
ATOM      8  I   UNL     1     -31.272  29.477   6.709  0.00  0.00    -0.043 I 
ATOM      9  C   UNL     1     -33.868  26.152   4.321  0.00  0.00    +0.050 C 
ATOM     10  C   UNL     1     -33.223  27.148   3.608  0.00  0.00    +0.015 C 
ATOM     11  C   UNL     1     -33.787  26.085   5.702  0.00  0.00    +0.015 C 
ATOM     12  C   UNL     1     -32.476  28.105   4.294  0.00  0.00    +0.007 C 
ATOM     13  C   UNL     1     -33.040  27.042   6.389  0.00  0.00    +0.007 C 
ATOM     14  C   UNL     1     -32.385  28.051   5.685  0.00  0.00    +0.030 C 
ENDBRANCH   5   9
ENDBRANCH   3   6
ENDBRANCH   1   3
BRANCH   1  15
ATOM     15  C   UNL     1     -37.648  23.328   2.886  0.00  0.00    +0.036 C 
BRANCH  15  17
ATOM     16  O   UNL     1     -39.149  25.214   2.917  0.00  0.00    -0.253 OA
ATOM     17  C   UNL     1     -38.221  24.606   3.434  0.00  0.00    +0.293 C 
BRANCH  17  18
ATOM     18  O   UNL     1     -37.573  25.043   4.544  0.00  0.00    -0.482 OA
ATOM     19  H   UNL     1     -38.011  25.606   5.152  0.00  0.00    +0.295 HD
ENDBRANCH  17  18
ENDBRANCH  15  17
ENDBRANCH   1  15
BRANCH   1  20
ATOM     20  C   UNL     1     -35.835  21.972   3.688  0.00  0.00    +0.036 C 
BRANCH  20  22
ATOM     21  O   UNL     1     -35.769  23.096   5.818  0.00  0.00    -0.253 OA
ATOM     22  C   UNL     1     -35.646  22.061   5.177  0.00  0.00    +0.293 C 
BRANCH  22  23
ATOM     23  O   UNL     1     -35.282  20.878   5.735  0.00  0.00    -0.482 OA
ATOM     24  H   UNL     1     -35.345  20.759   6.663  0.00  0.00    +0.295 HD
ENDBRANCH  22  23
ENDBRANCH  20  22
ENDBRANCH   1  20
TORSDOF 9
ENDMDL
MODEL 2
REMARK VINA RESULT:      -5.2      4.602      6.184
REMARK  Name = 192812
REMARK  9 active torsions:
REMARK  status: ('A' for Active; 'I' for Inactive)
REMARK    1  A    between atoms: N_1  and  C_3
REMARK    2  A    between atoms: N_1  and  C_15
REMARK    3  A    between atoms: N_1  and  C_20
REMARK    4  A    between atoms: C_3  and  C_6
REMARK    5  A    between atoms: N_5  and  C_9
REMARK    6  A    between atoms: C_15  and  C_17
REMARK    7  A    between atoms: C_17  and  O_18
REMARK    8  A    between atoms: C_20  and  C_22
REMARK    9  A    between atoms: C_22  and  O_23
REMARK                            x       y       z     vdW  Elec       q    Type
REMARK                         _______ _______ _______ _____ _____    ______ ____
ROOT
ATOM      1  N   UNL     1     -37.776  23.439   2.149  0.00  0.00    +0.407 N 
ATOM      2  H   UNL     1     -37.288  22.577   2.390  0.00  0.00    -0.077 HD
ENDROOT
BRANCH   1   3
ATOM      3  C   UNL     1     -37.199  23.968   0.914  0.00  0.00    +0.012 C 
BRANCH   3   6
ATOM      4  O   UNL     1     -36.344  22.638  -0.909  0.00  0.00    -0.277 OA
ATOM      5  N   UNL     1     -35.460  22.363   1.249  0.00  0.00    -0.286 N 
ATOM      6  C   UNL     1     -36.300  22.917   0.285  0.00  0.00    +0.205 C 
ATOM      7  H   UNL     1     -35.559  22.711   2.164  0.00  0.00    +0.155 HD
BRANCH   5   9
ATOM      8  I   UNL     1     -31.128  17.914   0.436  0.00  0.00    -0.043 I 
ATOM      9  C   UNL     1     -34.481  21.357   1.065  0.00  0.00    +0.050 C 
ATOM     10  C   UNL     1     -34.638  20.136   1.697  0.00  0.00    +0.015 C 
ATOM     11  C   UNL     1     -33.387  21.616   0.257  0.00  0.00    +0.015 C 
ATOM     12  C   UNL     1     -33.674  19.144   1.517  0.00  0.00    +0.007 C 
ATOM     13  C   UNL     1     -32.422  20.625   0.076  0.00  0.00    +0.007 C 
ATOM     14  C   UNL     1     -32.566  19.390   0.706  0.00  0.00    +0.030 C 
ENDBRANCH   5   9
ENDBRANCH   3   6
ENDBRANCH   1   3
BRANCH   1  15
ATOM     15  C   UNL     1     -37.601  24.393   3.243  0.00  0.00    +0.036 C 
BRANCH  15  17
ATOM     16  O   UNL     1     -36.277  24.355   5.258  0.00  0.00    -0.253 OA
ATOM     17  C   UNL     1     -36.764  23.747   4.314  0.00  0.00    +0.293 C 
BRANCH  17  18
ATOM     18  O   UNL     1     -36.569  22.420   4.104  0.00  0.00    -0.482 OA
ATOM     19  H   UNL     1     -37.290  21.872   3.864  0.00  0.00    +0.295 HD
ENDBRANCH  17  18
ENDBRANCH  15  17
ENDBRANCH   1  15
BRANCH   1  20
ATOM     20  C   UNL     1     -39.193  23.133   1.961  0.00  0.00    +0.036 C 
BRANCH  20  22
ATOM     21  O   UNL     1     -40.449  21.080   1.849  0.00  0.00    -0.253 OA
ATOM     22  C   UNL     1     -39.375  21.642   2.021  0.00  0.00    +0.293 C 
BRANCH  22  23
ATOM     23  O   UNL     1     -38.230  20.981   2.327  0.00  0.00    -0.482 OA
ATOM     24  H   UNL     1     -38.139  20.075   2.105  0.00  0.00    +0.295 HD
ENDBRANCH  22  23
ENDBRANCH  20  22
ENDBRANCH   1  20
TORSDOF 9
ENDMDL
MODEL 3
REMARK VINA RESULT:      -5.2      4.804      7.124
REMARK  Name = 192812
REMARK  9 active torsions:
REMARK  status: ('A' for Active; 'I' for Inactive)
REMARK    1  A    between atoms: N_1  and  C_3
REMARK    2  A    between atoms: N_1  and  C_15
REMARK    3  A    between atoms: N_1  and  C_20
REMARK    4  A    between atoms: C_3  and  C_6
REMARK    5  A    between atoms: N_5  and  C_9
REMARK    6  A    between atoms: C_15  and  C_17
REMARK    7  A    between atoms: C_17  and  O_18
REMARK    8  A    between atoms: C_20  and  C_22
REMARK    9  A    between atoms: C_22  and  O_23
REMARK                            x       y       z     vdW  Elec       q    Type
REMARK                         _______ _______ _______ _____ _____    ______ ____
ROOT
ATOM      1  N   UNL     1     -36.645  22.797   2.646  0.00  0.00    +0.407 N 
ATOM      2  H   UNL     1     -36.504  21.787   2.642  0.00  0.00    -0.077 HD
ENDROOT
BRANCH   1   3
ATOM      3  C   UNL     1     -35.934  23.368   1.503  0.00  0.00    +0.012 C 
BRANCH   3   6
ATOM      4  O   UNL     1     -33.835  22.706   0.516  0.00  0.00    -0.277 OA
ATOM      5  N   UNL     1     -35.393  21.067   1.148  0.00  0.00    -0.286 N 
ATOM      6  C   UNL     1     -34.914  22.366   0.989  0.00  0.00    +0.205 C 
ATOM      7  H   UNL     1     -36.285  20.979   1.553  0.00  0.00    +0.155 HD
BRANCH   5   9
ATOM      8  I   UNL     1     -32.528  15.722  -0.413  0.00  0.00    -0.043 I 
ATOM      9  C   UNL     1     -34.745  19.859   0.796  0.00  0.00    +0.050 C 
ATOM     10  C   UNL     1     -33.697  19.400   1.575  0.00  0.00    +0.015 C 
ATOM     11  C   UNL     1     -35.173  19.162  -0.322  0.00  0.00    +0.015 C 
ATOM     12  C   UNL     1     -33.059  18.209   1.228  0.00  0.00    +0.007 C 
ATOM     13  C   UNL     1     -34.535  17.971  -0.670  0.00  0.00    +0.007 C 
ATOM     14  C   UNL     1     -33.478  17.495   0.105  0.00  0.00    +0.030 C 
ENDBRANCH   5   9
ENDBRANCH   3   6
ENDBRANCH   1   3
BRANCH   1  15
ATOM     15  C   UNL     1     -36.113  23.333   3.898  0.00  0.00    +0.036 C 
BRANCH  15  17
ATOM     16  O   UNL     1     -35.875  22.303   6.065  0.00  0.00    -0.253 OA
ATOM     17  C   UNL     1     -35.870  22.190   4.846  0.00  0.00    +0.293 C 
BRANCH  17  18
ATOM     18  O   UNL     1     -35.602  21.022   4.208  0.00  0.00    -0.482 OA
ATOM     19  H   UNL     1     -35.496  21.010   3.277  0.00  0.00    +0.295 HD
ENDBRANCH  17  18
ENDBRANCH  15  17
ENDBRANCH   1  15
BRANCH   1  20
ATOM     20  C   UNL     1     -38.078  23.067   2.543  0.00  0.00    +0.036 C 
BRANCH  20  22
ATOM     21  O   UNL     1     -39.977  21.711   1.942  0.00  0.00    -0.253 OA
ATOM     22  C   UNL     1     -38.787  21.781   2.220  0.00  0.00    +0.293 C 
BRANCH  22  23
ATOM     23  O   UNL     1     -37.979  20.694   2.306  0.00  0.00    -0.482 OA
ATOM     24  H   UNL     1     -37.690  20.391   3.144  0.00  0.00    +0.295 HD
ENDBRANCH  22  23
ENDBRANCH  20  22
ENDBRANCH   1  20
TORSDOF 9
ENDMDL
MODEL 4
REMARK VINA RESULT:      -5.0      3.923      6.431
REMARK  Name = 192812
REMARK  9 active torsions:
REMARK  status: ('A' for Active; 'I' for Inactive)
REMARK    1  A    between atoms: N_1  and  C_3
REMARK    2  A    between atoms: N_1  and  C_15
REMARK    3  A    between atoms: N_1  and  C_20
REMARK    4  A    between atoms: C_3  and  C_6
REMARK    5  A    between atoms: N_5  and  C_9
REMARK    6  A    between atoms: C_15  and  C_17
REMARK    7  A    between atoms: C_17  and  O_18
REMARK    8  A    between atoms: C_20  and  C_22
REMARK    9  A    between atoms: C_22  and  O_23
REMARK                            x       y       z     vdW  Elec       q    Type
REMARK                         _______ _______ _______ _____ _____    ______ ____
ROOT
ATOM      1  N   UNL     1     -35.395  24.307   4.774  0.00  0.00    +0.407 N 
ATOM      2  H   UNL     1     -35.552  23.960   3.827  0.00  0.00    -0.077 HD
ENDROOT
BRANCH   1   3
ATOM      3  C   UNL     1     -36.418  25.307   5.075  0.00  0.00    +0.012 C 
BRANCH   3   6
ATOM      4  O   UNL     1     -36.875  26.221   2.890  0.00  0.00    -0.277 OA
ATOM      5  N   UNL     1     -38.497  24.909   3.966  0.00  0.00    -0.286 N 
ATOM      6  C   UNL     1     -37.267  25.551   3.839  0.00  0.00    +0.205 C 
ATOM      7  H   UNL     1     -38.643  24.408   4.800  0.00  0.00    +0.155 HD
BRANCH   5   9
ATOM      8  I   UNL     1     -43.210  24.839  -0.158  0.00  0.00    -0.043 I 
ATOM      9  C   UNL     1     -39.563  24.894   3.034  0.00  0.00    +0.050 C 
ATOM     10  C   UNL     1     -40.473  25.936   3.028  0.00  0.00    +0.015 C 
ATOM     11  C   UNL     1     -39.672  23.835   2.147  0.00  0.00    +0.015 C 
ATOM     12  C   UNL     1     -41.523  25.921   2.110  0.00  0.00    +0.007 C 
ATOM     13  C   UNL     1     -40.721  23.820   1.228  0.00  0.00    +0.007 C 
ATOM     14  C   UNL     1     -41.647  24.862   1.210  0.00  0.00    +0.030 C 
ENDBRANCH   5   9
ENDBRANCH   3   6
ENDBRANCH   1   3
BRANCH   1  15
ATOM     15  C   UNL     1     -34.062  24.906   4.831  0.00  0.00    +0.036 C 
BRANCH  15  17
ATOM     16  O   UNL     1     -32.650  25.881   3.137  0.00  0.00    -0.253 OA
ATOM     17  C   UNL     1     -33.575  25.133   3.426  0.00  0.00    +0.293 C 
BRANCH  17  18
ATOM     18  O   UNL     1     -34.296  24.450   2.500  0.00  0.00    -0.482 OA
ATOM     19  H   UNL     1     -34.577  24.878   1.715  0.00  0.00    +0.295 HD
ENDBRANCH  17  18
ENDBRANCH  15  17
ENDBRANCH   1  15
BRANCH   1  20
ATOM     20  C   UNL     1     -35.489  23.183   5.703  0.00  0.00    +0.036 C 
BRANCH  20  22
ATOM     21  O   UNL     1     -35.472  21.841   3.701  0.00  0.00    -0.253 OA
ATOM     22  C   UNL     1     -35.388  21.903   4.921  0.00  0.00    +0.293 C 
BRANCH  22  23
ATOM     23  O   UNL     1     -35.232  20.810   5.711  0.00  0.00    -0.482 OA
ATOM     24  H   UNL     1     -35.459  20.853   6.620  0.00  0.00    +0.295 HD
ENDBRANCH  22  23
ENDBRANCH  20  22
ENDBRANCH   1  20
TORSDOF 9
ENDMDL
MODEL 5
REMARK VINA RESULT:      -4.9      3.866      6.394
REMARK  Name = 192812
REMARK  9 active torsions:
REMARK  status: ('A' for Active; 'I' for Inactive)
REMARK    1  A    between atoms: N_1  and  C_3
REMARK    2  A    between atoms: N_1  and  C_15
REMARK    3  A    between atoms: N_1  and  C_20
REMARK    4  A    between atoms: C_3  and  C_6
REMARK    5  A    between atoms: N_5  and  C_9
REMARK    6  A    between atoms: C_15  and  C_17
REMARK    7  A    between atoms: C_17  and  O_18
REMARK    8  A    between atoms: C_20  and  C_22
REMARK    9  A    between atoms: C_22  and  O_23
REMARK                            x       y       z     vdW  Elec       q    Type
REMARK                         _______ _______ _______ _____ _____    ______ ____
ROOT
ATOM      1  N   UNL     1     -35.509  24.491   4.677  0.00  0.00    +0.407 N 
ATOM      2  H   UNL     1     -35.537  24.108   3.731  0.00  0.00    -0.077 HD
ENDROOT
BRANCH   1   3
ATOM      3  C   UNL     1     -35.515  23.379   5.626  0.00  0.00    +0.012 C 
BRANCH   3   6
ATOM      4  O   UNL     1     -35.188  20.999   5.402  0.00  0.00    -0.277 OA
ATOM      5  N   UNL     1     -35.815  22.270   3.530  0.00  0.00    -0.286 N 
ATOM      6  C   UNL     1     -35.477  22.064   4.866  0.00  0.00    +0.205 C 
ATOM      7  H   UNL     1     -36.023  23.196   3.272  0.00  0.00    +0.155 HD
BRANCH   5   9
ATOM      8  I   UNL     1     -36.170  17.986  -1.025  0.00  0.00    -0.043 I 
ATOM      9  C   UNL     1     -35.895  21.301   2.501  0.00  0.00    +0.050 C 
ATOM     10  C   UNL     1     -34.764  20.579   2.161  0.00  0.00    +0.015 C 
ATOM     11  C   UNL     1     -37.103  21.098   1.854  0.00  0.00    +0.015 C 
ATOM     12  C   UNL     1     -34.842  19.625   1.147  0.00  0.00    +0.007 C 
ATOM     13  C   UNL     1     -37.182  20.143   0.840  0.00  0.00    +0.007 C 
ATOM     14  C   UNL     1     -36.052  19.407   0.487  0.00  0.00    +0.030 C 
ENDBRANCH   5   9
ENDBRANCH   3   6
ENDBRANCH   1   3
BRANCH   1  15
ATOM     15  C   UNL     1     -36.687  25.334   4.870  0.00  0.00    +0.036 C 
BRANCH  15  17
ATOM     16  O   UNL     1     -37.157  24.749   2.579  0.00  0.00    -0.253 OA
ATOM     17  C   UNL     1     -37.458  25.387   3.579  0.00  0.00    +0.293 C 
BRANCH  17  18
ATOM     18  O   UNL     1     -38.505  26.250   3.624  0.00  0.00    -0.482 OA
ATOM     19  H   UNL     1     -38.745  26.655   4.434  0.00  0.00    +0.295 HD
ENDBRANCH  17  18
ENDBRANCH  15  17
ENDBRANCH   1  15
BRANCH   1  20
ATOM     20  C   UNL     1     -34.287  25.280   4.821  0.00  0.00    +0.036 C 
BRANCH  20  22
ATOM     21  O   UNL     1     -32.572  25.982   3.281  0.00  0.00    -0.253 OA
ATOM     22  C   UNL     1     -33.585  25.328   3.493  0.00  0.00    +0.293 C 
BRANCH  22  23
ATOM     23  O   UNL     1     -34.215  24.602   2.535  0.00  0.00    -0.482 OA
ATOM     24  H   UNL     1     -34.938  24.051   2.763  0.00  0.00    +0.295 HD
ENDBRANCH  22  23
ENDBRANCH  20  22
ENDBRANCH   1  20
TORSDOF 9
ENDMDL
MODEL 6
REMARK VINA RESULT:      -4.8      1.843      2.571
REMARK  Name = 192812
REMARK  9 active torsions:
REMARK  status: ('A' for Active; 'I' for Inactive)
REMARK    1  A    between atoms: N_1  and  C_3
REMARK    2  A    between atoms: N_1  and  C_15
REMARK    3  A    between atoms: N_1  and  C_20
REMARK    4  A    between atoms: C_3  and  C_6
REMARK    5  A    between atoms: N_5  and  C_9
REMARK    6  A    between atoms: C_15  and  C_17
REMARK    7  A    between atoms: C_17  and  O_18
REMARK    8  A    between atoms: C_20  and  C_22
REMARK    9  A    between atoms: C_22  and  O_23
REMARK                            x       y       z     vdW  Elec       q    Type
REMARK                         _______ _______ _______ _____ _____    ______ ____
ROOT
ATOM      1  N   UNL     1     -36.545  23.036   3.785  0.00  0.00    +0.407 N 
ATOM      2  H   UNL     1     -37.297  22.545   4.268  0.00  0.00    -0.077 HD
ENDROOT
BRANCH   1   3
ATOM      3  C   UNL     1     -36.920  24.443   3.654  0.00  0.00    +0.012 C 
BRANCH   3   6
ATOM      4  O   UNL     1     -36.412  25.416   5.802  0.00  0.00    -0.277 OA
ATOM      5  N   UNL     1     -34.994  25.822   3.976  0.00  0.00    -0.286 N 
ATOM      6  C   UNL     1     -36.101  25.278   4.624  0.00  0.00    +0.205 C 
ATOM      7  H   UNL     1     -34.898  25.602   3.021  0.00  0.00    +0.155 HD
BRANCH   5   9
ATOM      8  I   UNL     1     -30.560  29.505   6.424  0.00  0.00    -0.043 I 
ATOM      9  C   UNL     1     -33.992  26.654   4.529  0.00  0.00    +0.050 C 
ATOM     10  C   UNL     1     -33.628  26.487   5.854  0.00  0.00    +0.015 C 
ATOM     11  C   UNL     1     -33.397  27.619   3.734  0.00  0.00    +0.015 C 
ATOM     12  C   UNL     1     -32.641  27.306   6.400  0.00  0.00    +0.007 C 
ATOM     13  C   UNL     1     -32.409  28.439   4.279  0.00  0.00    +0.007 C 
ATOM     14  C   UNL     1     -32.031  28.283   5.612  0.00  0.00    +0.030 C 
ENDBRANCH   5   9
ENDBRANCH   3   6
ENDBRANCH   1   3
BRANCH   1  15
ATOM     15  C   UNL     1     -36.369  22.430   2.466  0.00  0.00    +0.036 C 
BRANCH  15  17
ATOM     16  O   UNL     1     -38.450  21.323   1.958  0.00  0.00    -0.253 OA
ATOM     17  C   UNL     1     -37.293  21.248   2.352  0.00  0.00    +0.293 C 
BRANCH  17  18
ATOM     18  O   UNL     1     -36.724  20.090   2.773  0.00  0.00    -0.482 OA
ATOM     19  H   UNL     1     -36.172  20.086   3.530  0.00  0.00    +0.295 HD
ENDBRANCH  17  18
ENDBRANCH  15  17
ENDBRANCH   1  15
BRANCH   1  20
ATOM     20  C   UNL     1     -35.322  22.905   4.574  0.00  0.00    +0.036 C 
BRANCH  20  22
ATOM     21  O   UNL     1     -36.042  22.093   6.726  0.00  0.00    -0.253 OA
ATOM     22  C   UNL     1     -35.542  21.860   5.633  0.00  0.00    +0.293 C 
BRANCH  22  23
ATOM     23  O   UNL     1     -35.091  20.634   5.267  0.00  0.00    -0.482 OA
ATOM     24  H   UNL     1     -34.367  20.557   4.677  0.00  0.00    +0.295 HD
ENDBRANCH  22  23
ENDBRANCH  20  22
ENDBRANCH   1  20
TORSDOF 9
ENDMDL
MODEL 7
REMARK VINA RESULT:      -4.8      4.180      6.732
REMARK  Name = 192812
REMARK  9 active torsions:
REMARK  status: ('A' for Active; 'I' for Inactive)
REMARK    1  A    between atoms: N_1  and  C_3
REMARK    2  A    between atoms: N_1  and  C_15
REMARK    3  A    between atoms: N_1  and  C_20
REMARK    4  A    between atoms: C_3  and  C_6
REMARK    5  A    between atoms: N_5  and  C_9
REMARK    6  A    between atoms: C_15  and  C_17
REMARK    7  A    between atoms: C_17  and  O_18
REMARK    8  A    between atoms: C_20  and  C_22
REMARK    9  A    between atoms: C_22  and  O_23
REMARK                            x       y       z     vdW  Elec       q    Type
REMARK                         _______ _______ _______ _____ _____    ______ ____
ROOT
ATOM      1  N   UNL     1     -35.608  24.411   3.962  0.00  0.00    +0.407 N 
ATOM      2  H   UNL     1     -36.204  23.625   3.699  0.00  0.00    -0.077 HD
ENDROOT
BRANCH   1   3
ATOM      3  C   UNL     1     -34.534  24.526   2.977  0.00  0.00    +0.012 C 
BRANCH   3   6
ATOM      4  O   UNL     1     -34.732  23.909   0.653  0.00  0.00    -0.277 OA
ATOM      5  N   UNL     1     -35.093  22.296   2.321  0.00  0.00    -0.286 N 
ATOM      6  C   UNL     1     -34.795  23.565   1.829  0.00  0.00    +0.205 C 
ATOM      7  H   UNL     1     -35.095  22.199   3.300  0.00  0.00    +0.155 HD
BRANCH   5   9
ATOM      8  I   UNL     1     -36.425  17.138  -0.972  0.00  0.00    -0.043 I 
ATOM      9  C   UNL     1     -35.395  21.130   1.577  0.00  0.00    +0.050 C 
ATOM     10  C   UNL     1     -36.697  20.909   1.162  0.00  0.00    +0.015 C 
ATOM     11  C   UNL     1     -34.380  20.235   1.280  0.00  0.00    +0.015 C 
ATOM     12  C   UNL     1     -36.994  19.761   0.428  0.00  0.00    +0.007 C 
ATOM     13  C   UNL     1     -34.677  19.087   0.546  0.00  0.00    +0.007 C 
ATOM     14  C   UNL     1     -35.984  18.850   0.121  0.00  0.00    +0.030 C 
ENDBRANCH   5   9
ENDBRANCH   3   6
ENDBRANCH   1   3
BRANCH   1  15
ATOM     15  C   UNL     1     -35.057  24.149   5.291  0.00  0.00    +0.036 C 
BRANCH  15  17
ATOM     16  O   UNL     1     -35.129  22.246   6.769  0.00  0.00    -0.253 OA
ATOM     17  C   UNL     1     -35.521  22.792   5.746  0.00  0.00    +0.293 C 
BRANCH  17  18
ATOM     18  O   UNL     1     -36.392  22.214   4.880  0.00  0.00    -0.482 OA
ATOM     19  H   UNL     1     -37.282  22.068   5.138  0.00  0.00    +0.295 HD
ENDBRANCH  17  18
ENDBRANCH  15  17
ENDBRANCH   1  15
BRANCH   1  20
ATOM     20  C   UNL     1     -36.421  25.626   3.976  0.00  0.00    +0.036 C 
BRANCH  20  22
ATOM     21  O   UNL     1     -38.237  24.107   3.527  0.00  0.00    -0.253 OA
ATOM     22  C   UNL     1     -37.839  25.260   3.639  0.00  0.00    +0.293 C 
BRANCH  22  23
ATOM     23  O   UNL     1     -38.631  26.343   3.432  0.00  0.00    -0.482 OA
ATOM     24  H   UNL     1     -39.561  26.242   3.389  0.00  0.00    +0.295 HD
ENDBRANCH  22  23
ENDBRANCH  20  22
ENDBRANCH   1  20
TORSDOF 9
ENDMDL
MODEL 8
REMARK VINA RESULT:      -4.8      4.373      6.589
REMARK  Name = 192812
REMARK  9 active torsions:
REMARK  status: ('A' for Active; 'I' for Inactive)
REMARK    1  A    between atoms: N_1  and  C_3
REMARK    2  A    between atoms: N_1  and  C_15
REMARK    3  A    between atoms: N_1  and  C_20
REMARK    4  A    between atoms: C_3  and  C_6
REMARK    5  A    between atoms: N_5  and  C_9
REMARK    6  A    between atoms: C_15  and  C_17
REMARK    7  A    between atoms: C_17  and  O_18
REMARK    8  A    between atoms: C_20  and  C_22
REMARK    9  A    between atoms: C_22  and  O_23
REMARK                            x       y       z     vdW  Elec       q    Type
REMARK                         _______ _______ _______ _____ _____    ______ ____
ROOT
ATOM      1  N   UNL     1     -35.997  24.734   4.293  0.00  0.00    +0.407 N 
ATOM      2  H   UNL     1     -35.282  24.936   3.594  0.00  0.00    -0.077 HD
ENDROOT
BRANCH   1   3
ATOM      3  C   UNL     1     -36.173  23.285   4.369  0.00  0.00    +0.012 C 
BRANCH   3   6
ATOM      4  O   UNL     1     -34.805  23.235   2.383  0.00  0.00    -0.277 OA
ATOM      5  N   UNL     1     -35.980  21.310   3.037  0.00  0.00    -0.286 N 
ATOM      6  C   UNL     1     -35.561  22.635   3.140  0.00  0.00    +0.205 C 
ATOM      7  H   UNL     1     -36.588  20.990   3.741  0.00  0.00    +0.155 HD
BRANCH   5   9
ATOM      8  I   UNL     1     -34.447  17.153  -1.390  0.00  0.00    -0.043 I 
ATOM      9  C   UNL     1     -35.633  20.371   2.036  0.00  0.00    +0.050 C 
ATOM     10  C   UNL     1     -34.337  19.888   1.980  0.00  0.00    +0.015 C 
ATOM     11  C   UNL     1     -36.598  19.955   1.134  0.00  0.00    +0.015 C 
ATOM     12  C   UNL     1     -33.995  18.962   0.995  0.00  0.00    +0.007 C 
ATOM     13  C   UNL     1     -36.257  19.028   0.148  0.00  0.00    +0.007 C 
ATOM     14  C   UNL     1     -34.955  18.533   0.079  0.00  0.00    +0.030 C 
ENDBRANCH   5   9
ENDBRANCH   3   6
ENDBRANCH   1   3
BRANCH   1  15
ATOM     15  C   UNL     1     -37.242  25.379   3.880  0.00  0.00    +0.036 C 
BRANCH  15  17
ATOM     16  O   UNL     1     -37.821  26.881   2.084  0.00  0.00    -0.253 OA
ATOM     17  C   UNL     1     -36.974  26.198   2.646  0.00  0.00    +0.293 C 
BRANCH  17  18
ATOM     18  O   UNL     1     -35.701  26.070   2.194  0.00  0.00    -0.482 OA
ATOM     19  H   UNL     1     -35.328  26.734   1.648  0.00  0.00    +0.295 HD
ENDBRANCH  17  18
ENDBRANCH  15  17
ENDBRANCH   1  15
BRANCH   1  20
ATOM     20  C   UNL     1     -35.550  25.263   5.580  0.00  0.00    +0.036 C 
BRANCH  20  22
ATOM     21  O   UNL     1     -33.690  26.680   6.163  0.00  0.00    -0.253 OA
ATOM     22  C   UNL     1     -34.174  25.845   5.410  0.00  0.00    +0.293 C 
BRANCH  22  23
ATOM     23  O   UNL     1     -33.535  25.378   4.308  0.00  0.00    -0.482 OA
ATOM     24  H   UNL     1     -32.761  24.858   4.400  0.00  0.00    +0.295 HD
ENDBRANCH  22  23
ENDBRANCH  20  22
ENDBRANCH   1  20
TORSDOF 9
ENDMDL
MODEL 9
REMARK VINA RESULT:      -4.8      4.702      7.243
REMARK  Name = 192812
REMARK  9 active torsions:
REMARK  status: ('A' for Active; 'I' for Inactive)
REMARK    1  A    between atoms: N_1  and  C_3
REMARK    2  A    between atoms: N_1  and  C_15
REMARK    3  A    between atoms: N_1  and  C_20
REMARK    4  A    between atoms: C_3  and  C_6
REMARK    5  A    between atoms: N_5  and  C_9
REMARK    6  A    between atoms: C_15  and  C_17
REMARK    7  A    between atoms: C_17  and  O_18
REMARK    8  A    between atoms: C_20  and  C_22
REMARK    9  A    between atoms: C_22  and  O_23
REMARK                            x       y       z     vdW  Elec       q    Type
REMARK                         _______ _______ _______ _____ _____    ______ ____
ROOT
ATOM      1  N   UNL     1     -36.542  24.836   2.970  0.00  0.00    +0.407 N 
ATOM      2  H   UNL     1     -36.982  24.542   3.842  0.00  0.00    -0.077 HD
ENDROOT
BRANCH   1   3
ATOM      3  C   UNL     1     -37.586  25.310   2.062  0.00  0.00    +0.012 C 
BRANCH   3   6
ATOM      4  O   UNL     1     -39.116  24.508   3.747  0.00  0.00    -0.277 OA
ATOM      5  N   UNL     1     -39.891  25.943   2.058  0.00  0.00    -0.286 N 
ATOM      6  C   UNL     1     -38.940  25.187   2.740  0.00  0.00    +0.205 C 
ATOM      7  H   UNL     1     -39.571  26.432   1.267  0.00  0.00    +0.155 HD
BRANCH   5   9
ATOM      8  I   UNL     1     -45.963  26.595   3.446  0.00  0.00    -0.043 I 
ATOM      9  C   UNL     1     -41.264  26.090   2.372  0.00  0.00    +0.050 C 
ATOM     10  C   UNL     1     -42.214  25.561   1.516  0.00  0.00    +0.015 C 
ATOM     11  C   UNL     1     -41.626  26.762   3.528  0.00  0.00    +0.015 C 
ATOM     12  C   UNL     1     -43.567  25.705   1.824  0.00  0.00    +0.007 C 
ATOM     13  C   UNL     1     -42.979  26.906   3.837  0.00  0.00    +0.007 C 
ATOM     14  C   UNL     1     -43.949  26.379   2.985  0.00  0.00    +0.030 C 
ENDBRANCH   5   9
ENDBRANCH   3   6
ENDBRANCH   1   3
BRANCH   1  15
ATOM     15  C   UNL     1     -35.847  23.687   2.392  0.00  0.00    +0.036 C 
BRANCH  15  17
ATOM     16  O   UNL     1     -35.486  21.420   3.129  0.00  0.00    -0.253 OA
ATOM     17  C   UNL     1     -35.992  22.517   3.326  0.00  0.00    +0.293 C 
BRANCH  17  18
ATOM     18  O   UNL     1     -36.781  22.790   4.396  0.00  0.00    -0.482 OA
ATOM     19  H   UNL     1     -36.545  23.474   4.991  0.00  0.00    +0.295 HD
ENDBRANCH  17  18
ENDBRANCH  15  17
ENDBRANCH   1  15
BRANCH   1  20
ATOM     20  C   UNL     1     -35.596  25.910   3.266  0.00  0.00    +0.036 C 
BRANCH  20  22
ATOM     21  O   UNL     1     -34.698  26.738   5.343  0.00  0.00    -0.253 OA
ATOM     22  C   UNL     1     -35.597  26.157   4.749  0.00  0.00    +0.293 C 
BRANCH  22  23
ATOM     23  O   UNL     1     -36.682  25.632   5.372  0.00  0.00    -0.482 OA
ATOM     24  H   UNL     1     -36.600  24.842   5.870  0.00  0.00    +0.295 HD
ENDBRANCH  22  23
ENDBRANCH  20  22
ENDBRANCH   1  20
TORSDOF 9
ENDMDL
