MODEL 1
REMARK VINA RESULT:      -6.2      0.000      0.000
REMARK  Name = 5282136
REMARK  11 active torsions:
REMARK  status: ('A' for Active; 'I' for Inactive)
REMARK    1  A    between atoms: C_1  and  C_2
REMARK    2  A    between atoms: C_1  and  O_18
REMARK    3  A    between atoms: C_3  and  C_4
REMARK    4  A    between atoms: C_4  and  N_6
REMARK    5  A    between atoms: C_7  and  C_9
REMARK    6  A    between atoms: C_9  and  S_10
REMARK    7  A    between atoms: S_10  and  C_12
REMARK    8  A    between atoms: C_12  and  C_14
REMARK    9  A    between atoms: O_18  and  C_23
REMARK   10  A    between atoms: C_20  and  C_25
REMARK   11  A    between atoms: C_25  and  N_26
REMARK                            x       y       z     vdW  Elec       q    Type
REMARK                         _______ _______ _______ _____ _____    ______ ____
ROOT
ATOM      1  C   UNL     1     -31.573  28.132   6.344  0.00  0.00    +0.233 C 
ENDROOT
BRANCH   1   2
ATOM      2  C   UNL     1     -31.738  29.547   6.794  0.00  0.00    +0.018 C 
ATOM      3  C   UNL     1     -31.916  30.580   5.956  0.00  0.00    -0.006 C 
BRANCH   3   4
ATOM      4  C   UNL     1     -31.973  30.440   4.471  0.00  0.00    +0.116 C 
BRANCH   4   6
ATOM      5  O   UNL     1     -33.514  32.261   2.848  0.00  0.00    -0.274 OA
ATOM      6  N   UNL     1     -33.342  30.289   4.066  0.00  0.00    -0.300 N 
ATOM      7  C   UNL     1     -34.008  31.221   3.279  0.00  0.00    +0.236 C 
ATOM      8  H   UNL     1     -33.831  29.487   4.359  0.00  0.00    +0.150 HD
BRANCH   7   9
ATOM      9  C   UNL     1     -35.431  30.829   2.966  0.00  0.00    +0.177 C 
BRANCH   9  10
ATOM     10  S   UNL     1     -35.492  29.853   1.438  0.00  0.00    +0.059 S 
ATOM     11  O   UNL     1     -34.124  29.281   1.219  0.00  0.00    -0.255 OA
BRANCH  10  12
ATOM     12  C   UNL     1     -35.675  31.270   0.330  0.00  0.00    +0.156 C 
BRANCH  12  14
ATOM     13  O   UNL     1     -36.510  33.441   1.028  0.00  0.00    -0.454 OA
ATOM     14  C   UNL     1     -36.812  32.143   0.770  0.00  0.00    +0.137 C 
ATOM     15  C   UNL     1     -38.151  31.908   0.979  0.00  0.00    +0.037 C 
ATOM     16  C   UNL     1     -38.707  33.142   1.393  0.00  0.00    +0.043 C 
ATOM     17  C   UNL     1     -37.668  34.043   1.406  0.00  0.00    +0.179 C 
ENDBRANCH  12  14
ENDBRANCH  10  12
ENDBRANCH   9  10
ENDBRANCH   7   9
ENDBRANCH   4   6
ENDBRANCH   3   4
ENDBRANCH   1   2
BRANCH   1  18
ATOM     18  O   UNL     1     -32.822  27.465   6.469  0.00  0.00    -0.455 OA
BRANCH  18  23
ATOM     19  N   UNL     1     -32.622  27.053   4.194  0.00  0.00    -0.210 NA
ATOM     20  C   UNL     1     -35.117  25.793   4.204  0.00  0.00    -0.037 C 
ATOM     21  C   UNL     1     -34.598  26.322   5.380  0.00  0.00    +0.051 C 
ATOM     22  C   UNL     1     -34.391  25.893   3.022  0.00  0.00    +0.015 C 
ATOM     23  C   UNL     1     -33.356  26.936   5.322  0.00  0.00    +0.225 C 
ATOM     24  C   UNL     1     -33.159  26.527   3.071  0.00  0.00    +0.102 C 
BRANCH  20  25
ATOM     25  C   UNL     1     -36.461  25.114   4.209  0.00  0.00    -0.050 C 
BRANCH  25  26
ATOM     26  N   UNL     1     -36.358  23.704   4.583  0.00  0.00    +0.390 N 
ATOM     27  C   UNL     1     -35.739  22.929   3.499  0.00  0.00    -0.077 C 
ATOM     28  C   UNL     1     -35.607  23.557   5.837  0.00  0.00    -0.077 C 
ATOM     29  C   UNL     1     -35.669  21.442   3.853  0.00  0.00    -0.023 C 
ATOM     30  C   UNL     1     -35.533  22.091   6.269  0.00  0.00    -0.023 C 
ATOM     31  C   UNL     1     -34.933  21.221   5.171  0.00  0.00    -0.004 C 
ATOM     32  H   UNL     1     -37.298  23.337   4.734  0.00  0.00    -0.079 HD
ENDBRANCH  25  26
ENDBRANCH  20  25
ENDBRANCH  18  23
ENDBRANCH   1  18
TORSDOF 11
ENDMDL
MODEL 2
REMARK VINA RESULT:      -6.1      4.983      6.686
REMARK  Name = 5282136
REMARK  11 active torsions:
REMARK  status: ('A' for Active; 'I' for Inactive)
REMARK    1  A    between atoms: C_1  and  C_2
REMARK    2  A    between atoms: C_1  and  O_18
REMARK    3  A    between atoms: C_3  and  C_4
REMARK    4  A    between atoms: C_4  and  N_6
REMARK    5  A    between atoms: C_7  and  C_9
REMARK    6  A    between atoms: C_9  and  S_10
REMARK    7  A    between atoms: S_10  and  C_12
REMARK    8  A    between atoms: C_12  and  C_14
REMARK    9  A    between atoms: O_18  and  C_23
REMARK   10  A    between atoms: C_20  and  C_25
REMARK   11  A    between atoms: C_25  and  N_26
REMARK                            x       y       z     vdW  Elec       q    Type
REMARK                         _______ _______ _______ _____ _____    ______ ____
ROOT
ATOM      1  C   UNL     1     -34.560  23.999   4.569  0.00  0.00    +0.233 C 
ENDROOT
BRANCH   1   2
ATOM      2  C   UNL     1     -35.121  24.992   5.532  0.00  0.00    +0.018 C 
ATOM      3  C   UNL     1     -35.952  25.985   5.181  0.00  0.00    -0.006 C 
BRANCH   3   4
ATOM      4  C   UNL     1     -36.417  26.217   3.781  0.00  0.00    +0.116 C 
BRANCH   4   6
ATOM      5  O   UNL     1     -38.004  25.800   1.408  0.00  0.00    -0.274 OA
ATOM      6  N   UNL     1     -37.835  26.000   3.717  0.00  0.00    -0.300 N 
ATOM      7  C   UNL     1     -38.520  25.807   2.524  0.00  0.00    +0.236 C 
ATOM      8  H   UNL     1     -38.345  25.987   4.559  0.00  0.00    +0.150 HD
BRANCH   7   9
ATOM      9  C   UNL     1     -39.999  25.575   2.715  0.00  0.00    +0.177 C 
BRANCH   9  10
ATOM     10  S   UNL     1     -40.932  26.289   1.333  0.00  0.00    +0.059 S 
ATOM     11  O   UNL     1     -40.653  27.763   1.320  0.00  0.00    -0.255 OA
BRANCH  10  12
ATOM     12  C   UNL     1     -42.562  26.048   2.076  0.00  0.00    +0.156 C 
BRANCH  12  14
ATOM     13  O   UNL     1     -42.574  27.569   3.970  0.00  0.00    -0.454 OA
ATOM     14  C   UNL     1     -43.042  27.313   2.721  0.00  0.00    +0.137 C 
ATOM     15  C   UNL     1     -43.889  28.316   2.309  0.00  0.00    +0.037 C 
ATOM     16  C   UNL     1     -43.945  29.247   3.374  0.00  0.00    +0.043 C 
ATOM     17  C   UNL     1     -43.127  28.747   4.360  0.00  0.00    +0.179 C 
ENDBRANCH  12  14
ENDBRANCH  10  12
ENDBRANCH   9  10
ENDBRANCH   7   9
ENDBRANCH   4   6
ENDBRANCH   3   4
ENDBRANCH   1   2
BRANCH   1  18
ATOM     18  O   UNL     1     -35.209  22.750   4.770  0.00  0.00    -0.455 OA
BRANCH  18  23
ATOM     19  N   UNL     1     -37.095  22.759   3.417  0.00  0.00    -0.210 NA
ATOM     20  C   UNL     1     -36.008  20.686   1.890  0.00  0.00    -0.037 C 
ATOM     21  C   UNL     1     -35.303  21.199   2.973  0.00  0.00    +0.051 C 
ATOM     22  C   UNL     1     -37.256  21.208   1.569  0.00  0.00    +0.015 C 
ATOM     23  C   UNL     1     -35.885  22.227   3.698  0.00  0.00    +0.225 C 
ATOM     24  C   UNL     1     -37.751  22.235   2.358  0.00  0.00    +0.102 C 
BRANCH  20  25
ATOM     25  C   UNL     1     -35.422  19.570   1.067  0.00  0.00    -0.050 C 
BRANCH  25  26
ATOM     26  N   UNL     1     -33.960  19.585   1.089  0.00  0.00    +0.390 N 
ATOM     27  C   UNL     1     -33.432  18.213   1.063  0.00  0.00    -0.077 C 
ATOM     28  C   UNL     1     -33.436  20.377  -0.032  0.00  0.00    -0.077 C 
ATOM     29  C   UNL     1     -31.904  18.208   1.136  0.00  0.00    -0.023 C 
ATOM     30  C   UNL     1     -31.908  20.444   0.005  0.00  0.00    -0.023 C 
ATOM     31  C   UNL     1     -31.293  19.049   0.019  0.00  0.00    -0.004 C 
ATOM     32  H   UNL     1     -33.650  20.023   1.956  0.00  0.00    -0.079 HD
ENDBRANCH  25  26
ENDBRANCH  20  25
ENDBRANCH  18  23
ENDBRANCH   1  18
TORSDOF 11
ENDMDL
MODEL 3
REMARK VINA RESULT:      -6.0      3.631      6.766
REMARK  Name = 5282136
REMARK  11 active torsions:
REMARK  status: ('A' for Active; 'I' for Inactive)
REMARK    1  A    between atoms: C_1  and  C_2
REMARK    2  A    between atoms: C_1  and  O_18
REMARK    3  A    between atoms: C_3  and  C_4
REMARK    4  A    between atoms: C_4  and  N_6
REMARK    5  A    between atoms: C_7  and  C_9
REMARK    6  A    between atoms: C_9  and  S_10
REMARK    7  A    between atoms: S_10  and  C_12
REMARK    8  A    between atoms: C_12  and  C_14
REMARK    9  A    between atoms: O_18  and  C_23
REMARK   10  A    between atoms: C_20  and  C_25
REMARK   11  A    between atoms: C_25  and  N_26
REMARK                            x       y       z     vdW  Elec       q    Type
REMARK                         _______ _______ _______ _____ _____    ______ ____
ROOT
ATOM      1  C   UNL     1     -35.990  22.894   4.592  0.00  0.00    +0.233 C 
ENDROOT
BRANCH   1   2
ATOM      2  C   UNL     1     -34.945  23.528   5.451  0.00  0.00    +0.018 C 
ATOM      3  C   UNL     1     -34.952  24.823   5.801  0.00  0.00    -0.006 C 
BRANCH   3   4
ATOM      4  C   UNL     1     -36.006  25.789   5.373  0.00  0.00    +0.116 C 
BRANCH   4   6
ATOM      5  O   UNL     1     -35.545  26.040   2.536  0.00  0.00    -0.274 OA
ATOM      6  N   UNL     1     -35.385  26.890   4.692  0.00  0.00    -0.300 N 
ATOM      7  C   UNL     1     -35.204  26.927   3.315  0.00  0.00    +0.236 C 
ATOM      8  H   UNL     1     -35.074  27.656   5.227  0.00  0.00    +0.150 HD
BRANCH   7   9
ATOM      9  C   UNL     1     -34.550  28.199   2.833  0.00  0.00    +0.177 C 
BRANCH   9  10
ATOM     10  S   UNL     1     -32.744  28.031   2.873  0.00  0.00    +0.059 S 
ATOM     11  O   UNL     1     -32.412  27.029   3.938  0.00  0.00    -0.255 OA
BRANCH  10  12
ATOM     12  C   UNL     1     -32.429  29.676   3.554  0.00  0.00    +0.156 C 
BRANCH  12  14
ATOM     13  O   UNL     1     -32.380  29.672   5.982  0.00  0.00    -0.454 OA
ATOM     14  C   UNL     1     -31.657  29.580   4.836  0.00  0.00    +0.137 C 
ATOM     15  C   UNL     1     -30.322  29.412   5.119  0.00  0.00    +0.037 C 
ATOM     16  C   UNL     1     -30.217  29.400   6.530  0.00  0.00    +0.043 C 
ATOM     17  C   UNL     1     -31.497  29.561   7.009  0.00  0.00    +0.179 C 
ENDBRANCH  12  14
ENDBRANCH  10  12
ENDBRANCH   9  10
ENDBRANCH   7   9
ENDBRANCH   4   6
ENDBRANCH   3   4
ENDBRANCH   1   2
BRANCH   1  18
ATOM     18  O   UNL     1     -35.543  22.910   3.242  0.00  0.00    -0.455 OA
BRANCH  18  23
ATOM     19  N   UNL     1     -37.406  22.085   2.131  0.00  0.00    -0.210 NA
ATOM     20  C   UNL     1     -35.845  20.042   1.035  0.00  0.00    -0.037 C 
ATOM     21  C   UNL     1     -35.270  20.980   1.885  0.00  0.00    +0.051 C 
ATOM     22  C   UNL     1     -37.199  20.124   0.731  0.00  0.00    +0.015 C 
ATOM     23  C   UNL     1     -36.087  21.973   2.402  0.00  0.00    +0.225 C 
ATOM     24  C   UNL     1     -37.929  21.155   1.301  0.00  0.00    +0.102 C 
BRANCH  20  25
ATOM     25  C   UNL     1     -35.004  18.942   0.444  0.00  0.00    -0.050 C 
BRANCH  25  26
ATOM     26  N   UNL     1     -33.576  19.162   0.675  0.00  0.00    +0.390 N 
ATOM     27  C   UNL     1     -32.907  17.894   0.998  0.00  0.00    -0.077 C 
ATOM     28  C   UNL     1     -32.959  19.806  -0.492  0.00  0.00    -0.077 C 
ATOM     29  C   UNL     1     -31.422  18.113   1.292  0.00  0.00    -0.023 C 
ATOM     30  C   UNL     1     -31.476  20.088  -0.248  0.00  0.00    -0.023 C 
ATOM     31  C   UNL     1     -30.725  18.817   0.132  0.00  0.00    -0.004 C 
ATOM     32  H   UNL     1     -33.467  19.787   1.473  0.00  0.00    -0.079 HD
ENDBRANCH  25  26
ENDBRANCH  20  25
ENDBRANCH  18  23
ENDBRANCH   1  18
TORSDOF 11
ENDMDL
MODEL 4
REMARK VINA RESULT:      -6.0      3.236      5.850
REMARK  Name = 5282136
REMARK  11 active torsions:
REMARK  status: ('A' for Active; 'I' for Inactive)
REMARK    1  A    between atoms: C_1  and  C_2
REMARK    2  A    between atoms: C_1  and  O_18
REMARK    3  A    between atoms: C_3  and  C_4
REMARK    4  A    between atoms: C_4  and  N_6
REMARK    5  A    between atoms: C_7  and  C_9
REMARK    6  A    between atoms: C_9  and  S_10
REMARK    7  A    between atoms: S_10  and  C_12
REMARK    8  A    between atoms: C_12  and  C_14
REMARK    9  A    between atoms: O_18  and  C_23
REMARK   10  A    between atoms: C_20  and  C_25
REMARK   11  A    between atoms: C_25  and  N_26
REMARK                            x       y       z     vdW  Elec       q    Type
REMARK                         _______ _______ _______ _____ _____    ______ ____
ROOT
ATOM      1  C   UNL     1     -38.482  24.873   3.054  0.00  0.00    +0.233 C 
ENDROOT
BRANCH   1   2
ATOM      2  C   UNL     1     -37.532  25.680   2.231  0.00  0.00    +0.018 C 
ATOM      3  C   UNL     1     -36.483  26.345   2.740  0.00  0.00    -0.006 C 
BRANCH   3   4
ATOM      4  C   UNL     1     -36.139  26.357   4.193  0.00  0.00    +0.116 C 
BRANCH   4   6
ATOM      5  O   UNL     1     -33.482  25.440   4.845  0.00  0.00    -0.274 OA
ATOM      6  N   UNL     1     -34.970  27.167   4.391  0.00  0.00    -0.300 N 
ATOM      7  C   UNL     1     -33.724  26.637   4.703  0.00  0.00    +0.236 C 
ATOM      8  H   UNL     1     -35.055  28.143   4.299  0.00  0.00    +0.150 HD
BRANCH   7   9
ATOM      9  C   UNL     1     -32.646  27.686   4.837  0.00  0.00    +0.177 C 
BRANCH   9  10
ATOM     10  S   UNL     1     -31.765  27.886   3.264  0.00  0.00    +0.059 S 
ATOM     11  O   UNL     1     -30.319  27.585   3.522  0.00  0.00    -0.255 OA
BRANCH  10  12
ATOM     12  C   UNL     1     -31.944  29.683   3.190  0.00  0.00    +0.156 C 
BRANCH  12  14
ATOM     13  O   UNL     1     -34.064  29.301   2.067  0.00  0.00    -0.454 OA
ATOM     14  C   UNL     1     -33.375  30.064   2.955  0.00  0.00    +0.137 C 
ATOM     15  C   UNL     1     -34.180  31.057   3.463  0.00  0.00    +0.037 C 
ATOM     16  C   UNL     1     -35.443  30.894   2.847  0.00  0.00    +0.043 C 
ATOM     17  C   UNL     1     -35.321  29.812   2.007  0.00  0.00    +0.179 C 
ENDBRANCH  12  14
ENDBRANCH  10  12
ENDBRANCH   9  10
ENDBRANCH   7   9
ENDBRANCH   4   6
ENDBRANCH   3   4
ENDBRANCH   1   2
BRANCH   1  18
ATOM     18  O   UNL     1     -38.493  23.539   2.562  0.00  0.00    -0.455 OA
BRANCH  18  23
ATOM     19  N   UNL     1     -36.821  23.002   4.079  0.00  0.00    -0.210 NA
ATOM     20  C   UNL     1     -35.935  20.968   2.379  0.00  0.00    -0.037 C 
ATOM     21  C   UNL     1     -37.022  21.755   2.018  0.00  0.00    +0.051 C 
ATOM     22  C   UNL     1     -35.289  21.197   3.589  0.00  0.00    +0.015 C 
ATOM     23  C   UNL     1     -37.422  22.750   2.895  0.00  0.00    +0.225 C 
ATOM     24  C   UNL     1     -35.766  22.217   4.395  0.00  0.00    +0.102 C 
BRANCH  20  25
ATOM     25  C   UNL     1     -35.457  19.872   1.464  0.00  0.00    -0.050 C 
BRANCH  25  26
ATOM     26  N   UNL     1     -34.005  19.904   1.287  0.00  0.00    +0.390 N 
ATOM     27  C   UNL     1     -33.479  18.541   1.123  0.00  0.00    -0.077 C 
ATOM     28  C   UNL     1     -33.644  20.754   0.145  0.00  0.00    -0.077 C 
ATOM     29  C   UNL     1     -31.955  18.551   0.987  0.00  0.00    -0.023 C 
ATOM     30  C   UNL     1     -32.126  20.837  -0.024  0.00  0.00    -0.023 C 
ATOM     31  C   UNL     1     -31.507  19.451  -0.161  0.00  0.00    -0.004 C 
ATOM     32  H   UNL     1     -33.583  20.305   2.124  0.00  0.00    -0.079 HD
ENDBRANCH  25  26
ENDBRANCH  20  25
ENDBRANCH  18  23
ENDBRANCH   1  18
TORSDOF 11
ENDMDL
MODEL 5
REMARK VINA RESULT:      -6.0      1.886      2.417
REMARK  Name = 5282136
REMARK  11 active torsions:
REMARK  status: ('A' for Active; 'I' for Inactive)
REMARK    1  A    between atoms: C_1  and  C_2
REMARK    2  A    between atoms: C_1  and  O_18
REMARK    3  A    between atoms: C_3  and  C_4
REMARK    4  A    between atoms: C_4  and  N_6
REMARK    5  A    between atoms: C_7  and  C_9
REMARK    6  A    between atoms: C_9  and  S_10
REMARK    7  A    between atoms: S_10  and  C_12
REMARK    8  A    between atoms: C_12  and  C_14
REMARK    9  A    between atoms: O_18  and  C_23
REMARK   10  A    between atoms: C_20  and  C_25
REMARK   11  A    between atoms: C_25  and  N_26
REMARK                            x       y       z     vdW  Elec       q    Type
REMARK                         _______ _______ _______ _____ _____    ______ ____
ROOT
ATOM      1  C   UNL     1     -31.594  28.216   6.244  0.00  0.00    +0.233 C 
ENDROOT
BRANCH   1   2
ATOM      2  C   UNL     1     -31.748  29.617   6.738  0.00  0.00    +0.018 C 
ATOM      3  C   UNL     1     -31.909  30.679   5.934  0.00  0.00    -0.006 C 
BRANCH   3   4
ATOM      4  C   UNL     1     -31.953  30.587   4.444  0.00  0.00    +0.116 C 
BRANCH   4   6
ATOM      5  O   UNL     1     -33.563  32.263   2.735  0.00  0.00    -0.274 OA
ATOM      6  N   UNL     1     -33.307  30.351   4.029  0.00  0.00    -0.300 N 
ATOM      7  C   UNL     1     -34.009  31.216   3.199  0.00  0.00    +0.236 C 
ATOM      8  H   UNL     1     -33.758  29.536   4.347  0.00  0.00    +0.150 HD
BRANCH   7   9
ATOM      9  C   UNL     1     -35.406  30.739   2.884  0.00  0.00    +0.177 C 
BRANCH   9  10
ATOM     10  S   UNL     1     -35.345  29.147   2.016  0.00  0.00    +0.059 S 
ATOM     11  O   UNL     1     -34.015  29.063   1.331  0.00  0.00    -0.255 OA
BRANCH  10  12
ATOM     12  C   UNL     1     -36.578  29.581   0.766  0.00  0.00    +0.156 C 
BRANCH  12  14
ATOM     13  O   UNL     1     -38.690  28.437   0.412  0.00  0.00    -0.454 OA
ATOM     14  C   UNL     1     -37.337  28.366   0.327  0.00  0.00    +0.137 C 
ATOM     15  C   UNL     1     -36.948  27.141  -0.166  0.00  0.00    +0.037 C 
ATOM     16  C   UNL     1     -38.140  26.414  -0.397  0.00  0.00    +0.043 C 
ATOM     17  C   UNL     1     -39.172  27.246  -0.031  0.00  0.00    +0.179 C 
ENDBRANCH  12  14
ENDBRANCH  10  12
ENDBRANCH   9  10
ENDBRANCH   7   9
ENDBRANCH   4   6
ENDBRANCH   3   4
ENDBRANCH   1   2
BRANCH   1  18
ATOM     18  O   UNL     1     -32.854  27.562   6.324  0.00  0.00    -0.455 OA
BRANCH  18  23
ATOM     19  N   UNL     1     -32.472  26.952   4.118  0.00  0.00    -0.210 NA
ATOM     20  C   UNL     1     -34.969  25.701   4.033  0.00  0.00    -0.037 C 
ATOM     21  C   UNL     1     -34.544  26.330   5.197  0.00  0.00    +0.051 C 
ATOM     22  C   UNL     1     -34.149  25.697   2.910  0.00  0.00    +0.015 C 
ATOM     23  C   UNL     1     -33.297  26.936   5.188  0.00  0.00    +0.225 C 
ATOM     24  C   UNL     1     -32.920  26.331   3.004  0.00  0.00    +0.102 C 
BRANCH  20  25
ATOM     25  C   UNL     1     -36.315  25.027   3.987  0.00  0.00    -0.050 C 
BRANCH  25  26
ATOM     26  N   UNL     1     -36.251  23.648   4.473  0.00  0.00    +0.390 N 
ATOM     27  C   UNL     1     -35.571  22.790   3.493  0.00  0.00    -0.077 C 
ATOM     28  C   UNL     1     -35.584  23.594   5.781  0.00  0.00    -0.077 C 
ATOM     29  C   UNL     1     -35.540  21.334   3.963  0.00  0.00    -0.023 C 
ATOM     30  C   UNL     1     -35.553  22.166   6.327  0.00  0.00    -0.023 C 
ATOM     31  C   UNL     1     -34.893  21.210   5.340  0.00  0.00    -0.004 C 
ATOM     32  H   UNL     1     -37.202  23.299   4.590  0.00  0.00    -0.079 HD
ENDBRANCH  25  26
ENDBRANCH  20  25
ENDBRANCH  18  23
ENDBRANCH   1  18
TORSDOF 11
ENDMDL
MODEL 6
REMARK VINA RESULT:      -6.0      3.914      7.496
REMARK  Name = 5282136
REMARK  11 active torsions:
REMARK  status: ('A' for Active; 'I' for Inactive)
REMARK    1  A    between atoms: C_1  and  C_2
REMARK    2  A    between atoms: C_1  and  O_18
REMARK    3  A    between atoms: C_3  and  C_4
REMARK    4  A    between atoms: C_4  and  N_6
REMARK    5  A    between atoms: C_7  and  C_9
REMARK    6  A    between atoms: C_9  and  S_10
REMARK    7  A    between atoms: S_10  and  C_12
REMARK    8  A    between atoms: C_12  and  C_14
REMARK    9  A    between atoms: O_18  and  C_23
REMARK   10  A    between atoms: C_20  and  C_25
REMARK   11  A    between atoms: C_25  and  N_26
REMARK                            x       y       z     vdW  Elec       q    Type
REMARK                         _______ _______ _______ _____ _____    ______ ____
ROOT
ATOM      1  C   UNL     1     -36.185  23.769   4.226  0.00  0.00    +0.233 C 
ENDROOT
BRANCH   1   2
ATOM      2  C   UNL     1     -35.626  24.275   5.515  0.00  0.00    +0.018 C 
ATOM      3  C   UNL     1     -35.083  25.492   5.667  0.00  0.00    -0.006 C 
BRANCH   3   4
ATOM      4  C   UNL     1     -34.972  26.491   4.563  0.00  0.00    +0.116 C 
BRANCH   4   6
ATOM      5  O   UNL     1     -33.440  27.537   2.354  0.00  0.00    -0.274 OA
ATOM      6  N   UNL     1     -33.683  27.119   4.626  0.00  0.00    -0.300 N 
ATOM      7  C   UNL     1     -33.015  27.596   3.505  0.00  0.00    +0.236 C 
ATOM      8  H   UNL     1     -33.252  27.216   5.506  0.00  0.00    +0.150 HD
BRANCH   7   9
ATOM      9  C   UNL     1     -31.687  28.236   3.829  0.00  0.00    +0.177 C 
BRANCH   9  10
ATOM     10  S   UNL     1     -31.723  28.949   5.497  0.00  0.00    +0.059 S 
ATOM     11  O   UNL     1     -32.699  30.087   5.474  0.00  0.00    -0.255 OA
BRANCH  10  12
ATOM     12  C   UNL     1     -30.060  29.654   5.423  0.00  0.00    +0.156 C 
BRANCH  12  14
ATOM     13  O   UNL     1     -29.037  27.560   6.105  0.00  0.00    -0.454 OA
ATOM     14  C   UNL     1     -29.124  28.898   6.318  0.00  0.00    +0.137 C 
ATOM     15  C   UNL     1     -28.299  29.278   7.351  0.00  0.00    +0.037 C 
ATOM     16  C   UNL     1     -27.664  28.096   7.802  0.00  0.00    +0.043 C 
ATOM     17  C   UNL     1     -28.146  27.079   7.012  0.00  0.00    +0.179 C 
ENDBRANCH  12  14
ENDBRANCH  10  12
ENDBRANCH   9  10
ENDBRANCH   7   9
ENDBRANCH   4   6
ENDBRANCH   3   4
ENDBRANCH   1   2
BRANCH   1  18
ATOM     18  O   UNL     1     -35.838  22.398   4.083  0.00  0.00    -0.455 OA
BRANCH  18  23
ATOM     19  N   UNL     1     -37.153  22.343   2.172  0.00  0.00    -0.210 NA
ATOM     20  C   UNL     1     -35.708  20.138   1.244  0.00  0.00    -0.037 C 
ATOM     21  C   UNL     1     -35.388  20.717   2.466  0.00  0.00    +0.051 C 
ATOM     22  C   UNL     1     -36.750  20.659   0.484  0.00  0.00    +0.015 C 
ATOM     23  C   UNL     1     -36.135  21.808   2.882  0.00  0.00    +0.225 C 
ATOM     24  C   UNL     1     -37.435  21.752   0.989  0.00  0.00    +0.102 C 
BRANCH  20  25
ATOM     25  C   UNL     1     -34.930  18.950   0.743  0.00  0.00    -0.050 C 
BRANCH  25  26
ATOM     26  N   UNL     1     -33.487  19.147   0.878  0.00  0.00    +0.390 N 
ATOM     27  C   UNL     1     -32.796  17.852   0.951  0.00  0.00    -0.077 C 
ATOM     28  C   UNL     1     -32.973  19.961  -0.232  0.00  0.00    -0.077 C 
ATOM     29  C   UNL     1     -31.290  18.039   1.142  0.00  0.00    -0.023 C 
ATOM     30  C   UNL     1     -31.473  20.219  -0.080  0.00  0.00    -0.023 C 
ATOM     31  C   UNL     1     -30.696  18.913   0.041  0.00  0.00    -0.004 C 
ATOM     32  H   UNL     1     -33.305  19.649   1.747  0.00  0.00    -0.079 HD
ENDBRANCH  25  26
ENDBRANCH  20  25
ENDBRANCH  18  23
ENDBRANCH   1  18
TORSDOF 11
ENDMDL
MODEL 7
REMARK VINA RESULT:      -5.9      3.882      9.513
REMARK  Name = 5282136
REMARK  11 active torsions:
REMARK  status: ('A' for Active; 'I' for Inactive)
REMARK    1  A    between atoms: C_1  and  C_2
REMARK    2  A    between atoms: C_1  and  O_18
REMARK    3  A    between atoms: C_3  and  C_4
REMARK    4  A    between atoms: C_4  and  N_6
REMARK    5  A    between atoms: C_7  and  C_9
REMARK    6  A    between atoms: C_9  and  S_10
REMARK    7  A    between atoms: S_10  and  C_12
REMARK    8  A    between atoms: C_12  and  C_14
REMARK    9  A    between atoms: O_18  and  C_23
REMARK   10  A    between atoms: C_20  and  C_25
REMARK   11  A    between atoms: C_25  and  N_26
REMARK                            x       y       z     vdW  Elec       q    Type
REMARK                         _______ _______ _______ _____ _____    ______ ____
ROOT
ATOM      1  C   UNL     1     -33.964  26.321   4.649  0.00  0.00    +0.233 C 
ENDROOT
BRANCH   1   2
ATOM      2  C   UNL     1     -35.231  25.953   5.348  0.00  0.00    +0.018 C 
ATOM      3  C   UNL     1     -35.650  24.689   5.517  0.00  0.00    -0.006 C 
BRANCH   3   4
ATOM      4  C   UNL     1     -34.898  23.497   5.026  0.00  0.00    +0.116 C 
BRANCH   4   6
ATOM      5  O   UNL     1     -34.481  23.661   2.175  0.00  0.00    -0.274 OA
ATOM      6  N   UNL     1     -35.666  22.848   4.001  0.00  0.00    -0.300 N 
ATOM      7  C   UNL     1     -35.392  22.984   2.646  0.00  0.00    +0.236 C 
ATOM      8  H   UNL     1     -36.422  22.278   4.273  0.00  0.00    +0.150 HD
BRANCH   7   9
ATOM      9  C   UNL     1     -36.323  22.185   1.766  0.00  0.00    +0.177 C 
BRANCH   9  10
ATOM     10  S   UNL     1     -36.185  20.417   2.146  0.00  0.00    +0.059 S 
ATOM     11  O   UNL     1     -35.067  20.259   3.133  0.00  0.00    -0.255 OA
BRANCH  10  12
ATOM     12  C   UNL     1     -35.553  19.936   0.522  0.00  0.00    +0.156 C 
BRANCH  12  14
ATOM     13  O   UNL     1     -33.197  20.474   0.280  0.00  0.00    -0.454 OA
ATOM     14  C   UNL     1     -34.113  19.528   0.613  0.00  0.00    +0.137 C 
ATOM     15  C   UNL     1     -33.489  18.357   0.976  0.00  0.00    +0.037 C 
ATOM     16  C   UNL     1     -32.100  18.599   0.858  0.00  0.00    +0.043 C 
ATOM     17  C   UNL     1     -31.974  19.901   0.432  0.00  0.00    +0.179 C 
ENDBRANCH  12  14
ENDBRANCH  10  12
ENDBRANCH   9  10
ENDBRANCH   7   9
ENDBRANCH   4   6
ENDBRANCH   3   4
ENDBRANCH   1   2
BRANCH   1  18
ATOM     18  O   UNL     1     -32.990  26.672   5.623  0.00  0.00    -0.455 OA
BRANCH  18  23
ATOM     19  N   UNL     1     -32.175  28.533   6.744  0.00  0.00    -0.210 NA
ATOM     20  C   UNL     1     -31.850  29.858   4.305  0.00  0.00    -0.037 C 
ATOM     21  C   UNL     1     -32.354  28.563   4.333  0.00  0.00    +0.051 C 
ATOM     22  C   UNL     1     -31.508  30.493   5.494  0.00  0.00    +0.015 C 
ATOM     23  C   UNL     1     -32.496  27.950   5.569  0.00  0.00    +0.225 C 
ATOM     24  C   UNL     1     -31.688  29.793   6.677  0.00  0.00    +0.102 C 
BRANCH  20  25
ATOM     25  C   UNL     1     -31.674  30.572   2.991  0.00  0.00    -0.050 C 
BRANCH  25  26
ATOM     26  N   UNL     1     -32.518  31.764   2.901  0.00  0.00    +0.390 N 
ATOM     27  C   UNL     1     -31.696  32.957   2.652  0.00  0.00    -0.077 C 
ATOM     28  C   UNL     1     -33.539  31.595   1.859  0.00  0.00    -0.077 C 
ATOM     29  C   UNL     1     -32.557  34.220   2.605  0.00  0.00    -0.023 C 
ATOM     30  C   UNL     1     -34.461  32.813   1.786  0.00  0.00    -0.023 C 
ATOM     31  C   UNL     1     -33.668  34.096   1.566  0.00  0.00    -0.004 C 
ATOM     32  H   UNL     1     -32.996  31.894   3.793  0.00  0.00    -0.079 HD
ENDBRANCH  25  26
ENDBRANCH  20  25
ENDBRANCH  18  23
ENDBRANCH   1  18
TORSDOF 11
ENDMDL
MODEL 8
REMARK VINA RESULT:      -5.9      3.384      6.662
REMARK  Name = 5282136
REMARK  11 active torsions:
REMARK  status: ('A' for Active; 'I' for Inactive)
REMARK    1  A    between atoms: C_1  and  C_2
REMARK    2  A    between atoms: C_1  and  O_18
REMARK    3  A    between atoms: C_3  and  C_4
REMARK    4  A    between atoms: C_4  and  N_6
REMARK    5  A    between atoms: C_7  and  C_9
REMARK    6  A    between atoms: C_9  and  S_10
REMARK    7  A    between atoms: S_10  and  C_12
REMARK    8  A    between atoms: C_12  and  C_14
REMARK    9  A    between atoms: O_18  and  C_23
REMARK   10  A    between atoms: C_20  and  C_25
REMARK   11  A    between atoms: C_25  and  N_26
REMARK                            x       y       z     vdW  Elec       q    Type
REMARK                         _______ _______ _______ _____ _____    ______ ____
ROOT
ATOM      1  C   UNL     1     -40.464  23.842   1.119  0.00  0.00    +0.233 C 
ENDROOT
BRANCH   1   2
ATOM      2  C   UNL     1     -40.558  24.860   2.208  0.00  0.00    +0.018 C 
ATOM      3  C   UNL     1     -39.521  25.600   2.629  0.00  0.00    -0.006 C 
BRANCH   3   4
ATOM      4  C   UNL     1     -38.145  25.494   2.059  0.00  0.00    +0.116 C 
BRANCH   4   6
ATOM      5  O   UNL     1     -35.462  26.151   1.225  0.00  0.00    -0.274 OA
ATOM      6  N   UNL     1     -37.503  26.776   2.143  0.00  0.00    -0.300 N 
ATOM      7  C   UNL     1     -36.201  27.002   1.715  0.00  0.00    +0.236 C 
ATOM      8  H   UNL     1     -38.011  27.529   2.522  0.00  0.00    +0.150 HD
BRANCH   7   9
ATOM      9  C   UNL     1     -35.758  28.435   1.884  0.00  0.00    +0.177 C 
BRANCH   9  10
ATOM     10  S   UNL     1     -34.171  28.503   2.760  0.00  0.00    +0.059 S 
ATOM     11  O   UNL     1     -34.328  27.721   4.029  0.00  0.00    -0.255 OA
BRANCH  10  12
ATOM     12  C   UNL     1     -34.277  30.258   3.183  0.00  0.00    +0.156 C 
BRANCH  12  14
ATOM     13  O   UNL     1     -32.889  30.458   5.165  0.00  0.00    -0.454 OA
ATOM     14  C   UNL     1     -33.012  30.722   3.839  0.00  0.00    +0.137 C 
ATOM     15  C   UNL     1     -31.901  31.386   3.374  0.00  0.00    +0.037 C 
ATOM     16  C   UNL     1     -31.040  31.539   4.486  0.00  0.00    +0.043 C 
ATOM     17  C   UNL     1     -31.686  30.957   5.552  0.00  0.00    +0.179 C 
ENDBRANCH  12  14
ENDBRANCH  10  12
ENDBRANCH   9  10
ENDBRANCH   7   9
ENDBRANCH   4   6
ENDBRANCH   3   4
ENDBRANCH   1   2
BRANCH   1  18
ATOM     18  O   UNL     1     -40.455  22.546   1.704  0.00  0.00    -0.455 OA
BRANCH  18  23
ATOM     19  N   UNL     1     -39.555  20.908   0.328  0.00  0.00    -0.210 NA
ATOM     20  C   UNL     1     -37.187  20.968   1.811  0.00  0.00    -0.037 C 
ATOM     21  C   UNL     1     -38.245  21.801   2.154  0.00  0.00    +0.051 C 
ATOM     22  C   UNL     1     -37.310  20.104   0.728  0.00  0.00    +0.015 C 
ATOM     23  C   UNL     1     -39.398  21.734   1.387  0.00  0.00    +0.225 C 
ATOM     24  C   UNL     1     -38.504  20.113   0.026  0.00  0.00    +0.102 C 
BRANCH  20  25
ATOM     25  C   UNL     1     -35.911  20.999   2.610  0.00  0.00    -0.050 C 
BRANCH  25  26
ATOM     26  N   UNL     1     -35.977  21.966   3.706  0.00  0.00    +0.390 N 
ATOM     27  C   UNL     1     -35.290  21.442   4.895  0.00  0.00    -0.077 C 
ATOM     28  C   UNL     1     -35.410  23.255   3.290  0.00  0.00    -0.077 C 
ATOM     29  C   UNL     1     -35.392  22.419   6.067  0.00  0.00    -0.023 C 
ATOM     30  C   UNL     1     -35.516  24.293   4.409  0.00  0.00    -0.023 C 
ATOM     31  C   UNL     1     -34.855  23.796   5.689  0.00  0.00    -0.004 C 
ATOM     32  H   UNL     1     -36.956  22.116   3.950  0.00  0.00    -0.079 HD
ENDBRANCH  25  26
ENDBRANCH  20  25
ENDBRANCH  18  23
ENDBRANCH   1  18
TORSDOF 11
ENDMDL
MODEL 9
REMARK VINA RESULT:      -5.9      3.215      5.738
REMARK  Name = 5282136
REMARK  11 active torsions:
REMARK  status: ('A' for Active; 'I' for Inactive)
REMARK    1  A    between atoms: C_1  and  C_2
REMARK    2  A    between atoms: C_1  and  O_18
REMARK    3  A    between atoms: C_3  and  C_4
REMARK    4  A    between atoms: C_4  and  N_6
REMARK    5  A    between atoms: C_7  and  C_9
REMARK    6  A    between atoms: C_9  and  S_10
REMARK    7  A    between atoms: S_10  and  C_12
REMARK    8  A    between atoms: C_12  and  C_14
REMARK    9  A    between atoms: O_18  and  C_23
REMARK   10  A    between atoms: C_20  and  C_25
REMARK   11  A    between atoms: C_25  and  N_26
REMARK                            x       y       z     vdW  Elec       q    Type
REMARK                         _______ _______ _______ _____ _____    ______ ____
ROOT
ATOM      1  C   UNL     1     -35.616  23.577   5.434  0.00  0.00    +0.233 C 
ENDROOT
BRANCH   1   2
ATOM      2  C   UNL     1     -36.242  24.932   5.428  0.00  0.00    +0.018 C 
ATOM      3  C   UNL     1     -35.564  26.069   5.645  0.00  0.00    -0.006 C 
BRANCH   3   4
ATOM      4  C   UNL     1     -34.097  26.116   5.919  0.00  0.00    +0.116 C 
BRANCH   4   6
ATOM      5  O   UNL     1     -32.387  28.431   6.126  0.00  0.00    -0.274 OA
ATOM      6  N   UNL     1     -33.441  26.805   4.844  0.00  0.00    -0.300 N 
ATOM      7  C   UNL     1     -32.631  27.918   5.037  0.00  0.00    +0.236 C 
ATOM      8  H   UNL     1     -33.571  26.472   3.926  0.00  0.00    +0.150 HD
BRANCH   7   9
ATOM      9  C   UNL     1     -32.034  28.450   3.757  0.00  0.00    +0.177 C 
BRANCH   9  10
ATOM     10  S   UNL     1     -33.322  29.215   2.733  0.00  0.00    +0.059 S 
ATOM     11  O   UNL     1     -34.626  29.039   3.453  0.00  0.00    -0.255 OA
BRANCH  10  12
ATOM     12  C   UNL     1     -33.255  27.980   1.414  0.00  0.00    +0.156 C 
BRANCH  12  14
ATOM     13  O   UNL     1     -35.571  27.813   0.702  0.00  0.00    -0.454 OA
ATOM     14  C   UNL     1     -34.539  27.209   1.345  0.00  0.00    +0.137 C 
ATOM     15  C   UNL     1     -34.919  25.970   1.809  0.00  0.00    +0.037 C 
ATOM     16  C   UNL     1     -36.271  25.804   1.427  0.00  0.00    +0.043 C 
ATOM     17  C   UNL     1     -36.621  26.953   0.755  0.00  0.00    +0.179 C 
ENDBRANCH  12  14
ENDBRANCH  10  12
ENDBRANCH   9  10
ENDBRANCH   7   9
ENDBRANCH   4   6
ENDBRANCH   3   4
ENDBRANCH   1   2
BRANCH   1  18
ATOM     18  O   UNL     1     -35.067  23.321   4.148  0.00  0.00    -0.455 OA
BRANCH  18  23
ATOM     19  N   UNL     1     -37.169  22.822   3.299  0.00  0.00    -0.210 NA
ATOM     20  C   UNL     1     -36.026  20.931   1.587  0.00  0.00    -0.037 C 
ATOM     21  C   UNL     1     -35.223  21.661   2.455  0.00  0.00    +0.051 C 
ATOM     22  C   UNL     1     -37.400  21.144   1.574  0.00  0.00    +0.015 C 
ATOM     23  C   UNL     1     -35.838  22.587   3.283  0.00  0.00    +0.225 C 
ATOM     24  C   UNL     1     -37.917  22.093   2.441  0.00  0.00    +0.102 C 
BRANCH  20  25
ATOM     25  C   UNL     1     -35.412  19.912   0.665  0.00  0.00    -0.050 C 
BRANCH  25  26
ATOM     26  N   UNL     1     -33.970  19.783   0.877  0.00  0.00    +0.390 N 
ATOM     27  C   UNL     1     -33.598  18.370   1.031  0.00  0.00    -0.077 C 
ATOM     28  C   UNL     1     -33.229  20.411  -0.225  0.00  0.00    -0.077 C 
ATOM     29  C   UNL     1     -32.100  18.220   1.304  0.00  0.00    -0.023 C 
ATOM     30  C   UNL     1     -31.720  20.329   0.006  0.00  0.00    -0.023 C 
ATOM     31  C   UNL     1     -31.268  18.888   0.213  0.00  0.00    -0.004 C 
ATOM     32  H   UNL     1     -33.722  20.269   1.739  0.00  0.00    -0.079 HD
ENDBRANCH  25  26
ENDBRANCH  20  25
ENDBRANCH  18  23
ENDBRANCH   1  18
TORSDOF 11
ENDMDL
