MODEL 1
REMARK VINA RESULT:      -5.7      0.000      0.000
REMARK  Name = 21126371
REMARK  8 active torsions:
REMARK  status: ('A' for Active; 'I' for Inactive)
REMARK    1  A    between atoms: C_2  and  C_13
REMARK    2  A    between atoms: CA_5  and  C_10
REMARK    3  A    between atoms: C_10  and  O_11
REMARK    4  A    between atoms: C_13  and  C_14
REMARK    5  A    between atoms: C_14  and  C_15
REMARK    6  A    between atoms: C_15  and  P_16
REMARK    7  A    between atoms: P_16  and  O_18
REMARK    8  A    between atoms: P_16  and  O_20
REMARK                            x       y       z     vdW  Elec       q    Type
REMARK                         _______ _______ _______ _____ _____    ______ ____
ROOT
ATOM      1  N   UNL     1     -36.965  22.842   3.755  0.00  0.00    +0.392 N 
ATOM      2  C   UNL     1     -35.209  24.943   4.805  0.00  0.00    -0.004 C 
ATOM      3  C   UNL     1     -34.890  23.451   4.964  0.00  0.00    -0.011 C 
ATOM      4  C   UNL     1     -36.723  25.135   4.654  0.00  0.00    -0.023 C 
ATOM      5  CA  UNL     1     -35.520  22.630   3.838  0.00  0.00    +0.040 C 
ATOM      6  C   UNL     1     -37.285  24.254   3.539  0.00  0.00    -0.081 C 
ATOM      7  H1  UNL     1     -37.396  22.534   4.627  0.00  0.00    -0.084 HD
ATOM      8  H2  UNL     1     -37.324  22.305   2.966  0.00  0.00    -0.084 HD
ENDROOT
BRANCH   5  10
ATOM      9  OXT UNL     1     -35.237  20.308   3.239  0.00  0.00    -0.253 OA
ATOM     10  C   UNL     1     -35.324  21.170   4.101  0.00  0.00    +0.293 C 
BRANCH  10  11
ATOM     11  O   UNL     1     -35.260  20.928   5.432  0.00  0.00    -0.482 OA
ATOM     12  H   UNL     1     -35.877  21.331   6.012  0.00  0.00    +0.295 HD
ENDBRANCH  10  11
ENDBRANCH   5  10
BRANCH   2  13
ATOM     13  C   UNL     1     -34.668  25.749   5.982  0.00  0.00    +0.001 C 
BRANCH  13  14
ATOM     14  C   UNL     1     -33.532  26.670   5.544  0.00  0.00    +0.013 C 
BRANCH  14  15
ATOM     15  C   UNL     1     -32.737  27.198   6.731  0.00  0.00    +0.116 C 
BRANCH  15  16
ATOM     16  P   UNL     1     -31.604  28.540   6.306  0.00  0.00    +0.337 P 
ATOM     17  O   UNL     1     -30.307  28.073   5.747  0.00  0.00    -0.258 OA
BRANCH  16  18
ATOM     18  O   UNL     1     -32.504  29.462   5.341  0.00  0.00    -0.324 OA
ATOM     19  H   UNL     1     -33.316  29.720   5.805  0.00  0.00    +0.220 HD
ENDBRANCH  16  18
BRANCH  16  20
ATOM     20  O   UNL     1     -31.525  29.376   7.681  0.00  0.00    -0.324 OA
ATOM     21  H   UNL     1     -32.227  29.080   8.280  0.00  0.00    +0.220 HD
ENDBRANCH  16  20
ENDBRANCH  15  16
ENDBRANCH  14  15
ENDBRANCH  13  14
ENDBRANCH   2  13
TORSDOF 8
ENDMDL
MODEL 2
REMARK VINA RESULT:      -5.5      1.193      1.554
REMARK  Name = 21126371
REMARK  8 active torsions:
REMARK  status: ('A' for Active; 'I' for Inactive)
REMARK    1  A    between atoms: C_2  and  C_13
REMARK    2  A    between atoms: CA_5  and  C_10
REMARK    3  A    between atoms: C_10  and  O_11
REMARK    4  A    between atoms: C_13  and  C_14
REMARK    5  A    between atoms: C_14  and  C_15
REMARK    6  A    between atoms: C_15  and  P_16
REMARK    7  A    between atoms: P_16  and  O_18
REMARK    8  A    between atoms: P_16  and  O_20
REMARK                            x       y       z     vdW  Elec       q    Type
REMARK                         _______ _______ _______ _____ _____    ______ ____
ROOT
ATOM      1  N   UNL     1     -36.891  22.691   3.874  0.00  0.00    +0.392 N 
ATOM      2  C   UNL     1     -35.338  25.173   3.714  0.00  0.00    -0.004 C 
ATOM      3  C   UNL     1     -35.184  24.182   4.874  0.00  0.00    -0.011 C 
ATOM      4  C   UNL     1     -36.736  25.036   3.099  0.00  0.00    -0.023 C 
ATOM      5  CA  UNL     1     -35.542  22.761   4.436  0.00  0.00    +0.040 C 
ATOM      6  C   UNL     1     -37.037  23.586   2.725  0.00  0.00    -0.081 C 
ATOM      7  H1  UNL     1     -37.564  22.961   4.592  0.00  0.00    -0.084 HD
ATOM      8  H2  UNL     1     -37.060  21.735   3.562  0.00  0.00    -0.084 HD
ENDROOT
BRANCH   5  10
ATOM      9  OXT UNL     1     -35.901  22.147   6.744  0.00  0.00    -0.253 OA
ATOM     10  C   UNL     1     -35.532  21.845   5.618  0.00  0.00    +0.293 C 
BRANCH  10  11
ATOM     11  O   UNL     1     -35.051  20.626   5.275  0.00  0.00    -0.482 OA
ATOM     12  H   UNL     1     -35.619  19.992   4.882  0.00  0.00    +0.295 HD
ENDBRANCH  10  11
ENDBRANCH   5  10
BRANCH   2  13
ATOM     13  C   UNL     1     -35.080  26.604   4.176  0.00  0.00    +0.001 C 
BRANCH  13  14
ATOM     14  C   UNL     1     -33.966  26.655   5.220  0.00  0.00    +0.013 C 
BRANCH  14  15
ATOM     15  C   UNL     1     -32.767  27.457   4.734  0.00  0.00    +0.116 C 
BRANCH  15  16
ATOM     16  P   UNL     1     -31.785  28.175   6.071  0.00  0.00    +0.337 P 
ATOM     17  O   UNL     1     -30.326  27.904   5.953  0.00  0.00    -0.258 OA
BRANCH  16  18
ATOM     18  O   UNL     1     -32.226  29.722   6.033  0.00  0.00    -0.324 OA
ATOM     19  H   UNL     1     -31.435  30.283   5.993  0.00  0.00    +0.220 HD
ENDBRANCH  16  18
BRANCH  16  20
ATOM     20  O   UNL     1     -32.511  27.594   7.385  0.00  0.00    -0.324 OA
ATOM     21  H   UNL     1     -32.531  28.278   8.072  0.00  0.00    +0.220 HD
ENDBRANCH  16  20
ENDBRANCH  15  16
ENDBRANCH  14  15
ENDBRANCH  13  14
ENDBRANCH   2  13
TORSDOF 8
ENDMDL
MODEL 3
REMARK VINA RESULT:      -5.4      1.665      2.270
REMARK  Name = 21126371
REMARK  8 active torsions:
REMARK  status: ('A' for Active; 'I' for Inactive)
REMARK    1  A    between atoms: C_2  and  C_13
REMARK    2  A    between atoms: CA_5  and  C_10
REMARK    3  A    between atoms: C_10  and  O_11
REMARK    4  A    between atoms: C_13  and  C_14
REMARK    5  A    between atoms: C_14  and  C_15
REMARK    6  A    between atoms: C_15  and  P_16
REMARK    7  A    between atoms: P_16  and  O_18
REMARK    8  A    between atoms: P_16  and  O_20
REMARK                            x       y       z     vdW  Elec       q    Type
REMARK                         _______ _______ _______ _____ _____    ______ ____
ROOT
ATOM      1  N   UNL     1     -35.409  21.405   4.837  0.00  0.00    +0.392 N 
ATOM      2  C   UNL     1     -35.125  24.224   4.080  0.00  0.00    -0.004 C 
ATOM      3  C   UNL     1     -35.077  23.088   3.050  0.00  0.00    -0.011 C 
ATOM      4  C   UNL     1     -34.698  23.694   5.454  0.00  0.00    -0.023 C 
ATOM      5  CA  UNL     1     -35.873  21.874   3.532  0.00  0.00    +0.040 C 
ATOM      6  C   UNL     1     -35.508  22.459   5.848  0.00  0.00    -0.081 C 
ATOM      7  H1  UNL     1     -34.436  21.112   4.757  0.00  0.00    -0.084 HD
ATOM      8  H2  UNL     1     -35.999  20.625   5.126  0.00  0.00    -0.084 HD
ENDROOT
BRANCH   5  10
ATOM      9  OXT UNL     1     -34.737  20.601   1.823  0.00  0.00    -0.253 OA
ATOM     10  C   UNL     1     -35.684  20.732   2.584  0.00  0.00    +0.293 C 
BRANCH  10  11
ATOM     11  O   UNL     1     -36.714  19.857   2.678  0.00  0.00    -0.482 OA
ATOM     12  H   UNL     1     -37.524  20.126   3.065  0.00  0.00    +0.295 HD
ENDBRANCH  10  11
ENDBRANCH   5  10
BRANCH   2  13
ATOM     13  C   UNL     1     -34.248  25.395   3.647  0.00  0.00    +0.001 C 
BRANCH  13  14
ATOM     14  C   UNL     1     -33.736  26.177   4.856  0.00  0.00    +0.013 C 
BRANCH  14  15
ATOM     15  C   UNL     1     -33.097  27.498   4.450  0.00  0.00    +0.116 C 
BRANCH  15  16
ATOM     16  P   UNL     1     -31.996  28.187   5.706  0.00  0.00    +0.337 P 
ATOM     17  O   UNL     1     -32.274  29.614   6.027  0.00  0.00    -0.258 OA
BRANCH  16  18
ATOM     18  O   UNL     1     -32.156  27.142   6.919  0.00  0.00    -0.324 OA
ATOM     19  H   UNL     1     -33.097  27.022   7.121  0.00  0.00    +0.220 HD
ENDBRANCH  16  18
BRANCH  16  20
ATOM     20  O   UNL     1     -30.538  27.865   5.104  0.00  0.00    -0.324 OA
ATOM     21  H   UNL     1     -30.038  28.690   5.009  0.00  0.00    +0.220 HD
ENDBRANCH  16  20
ENDBRANCH  15  16
ENDBRANCH  14  15
ENDBRANCH  13  14
ENDBRANCH   2  13
TORSDOF 8
ENDMDL
MODEL 4
REMARK VINA RESULT:      -5.4      1.844      2.268
REMARK  Name = 21126371
REMARK  8 active torsions:
REMARK  status: ('A' for Active; 'I' for Inactive)
REMARK    1  A    between atoms: C_2  and  C_13
REMARK    2  A    between atoms: CA_5  and  C_10
REMARK    3  A    between atoms: C_10  and  O_11
REMARK    4  A    between atoms: C_13  and  C_14
REMARK    5  A    between atoms: C_14  and  C_15
REMARK    6  A    between atoms: C_15  and  P_16
REMARK    7  A    between atoms: P_16  and  O_18
REMARK    8  A    between atoms: P_16  and  O_20
REMARK                            x       y       z     vdW  Elec       q    Type
REMARK                         _______ _______ _______ _____ _____    ______ ____
ROOT
ATOM      1  N   UNL     1     -36.852  23.720   4.536  0.00  0.00    +0.392 N 
ATOM      2  C   UNL     1     -34.622  25.520   5.158  0.00  0.00    -0.004 C 
ATOM      3  C   UNL     1     -34.564  24.013   5.439  0.00  0.00    -0.011 C 
ATOM      4  C   UNL     1     -36.082  25.989   5.155  0.00  0.00    -0.023 C 
ATOM      5  CA  UNL     1     -35.472  23.239   4.482  0.00  0.00    +0.040 C 
ATOM      6  C   UNL     1     -36.934  25.144   4.208  0.00  0.00    -0.081 C 
ATOM      7  H1  UNL     1     -37.217  23.575   5.477  0.00  0.00    -0.084 HD
ATOM      8  H2  UNL     1     -37.401  23.200   3.852  0.00  0.00    -0.084 HD
ENDROOT
BRANCH   5  10
ATOM      9  OXT UNL     1     -35.197  20.863   4.152  0.00  0.00    -0.253 OA
ATOM     10  C   UNL     1     -35.514  21.796   4.875  0.00  0.00    +0.293 C 
BRANCH  10  11
ATOM     11  O   UNL     1     -35.959  21.659   6.147  0.00  0.00    -0.482 OA
ATOM     12  H   UNL     1     -36.645  21.050   6.340  0.00  0.00    +0.295 HD
ENDBRANCH  10  11
ENDBRANCH   5  10
BRANCH   2  13
ATOM     13  C   UNL     1     -33.797  26.301   6.177  0.00  0.00    +0.001 C 
BRANCH  13  14
ATOM     14  C   UNL     1     -32.917  27.343   5.492  0.00  0.00    +0.013 C 
BRANCH  14  15
ATOM     15  C   UNL     1     -33.012  27.259   3.974  0.00  0.00    +0.116 C 
BRANCH  15  16
ATOM     16  P   UNL     1     -33.525  28.806   3.193  0.00  0.00    +0.337 P 
ATOM     17  O   UNL     1     -32.993  28.984   1.814  0.00  0.00    -0.258 OA
BRANCH  16  18
ATOM     18  O   UNL     1     -35.127  28.753   3.336  0.00  0.00    -0.324 OA
ATOM     19  H   UNL     1     -35.446  29.592   3.705  0.00  0.00    +0.220 HD
ENDBRANCH  16  18
BRANCH  16  20
ATOM     20  O   UNL     1     -33.072  29.909   4.276  0.00  0.00    -0.324 OA
ATOM     21  H   UNL     1     -32.129  29.802   4.471  0.00  0.00    +0.220 HD
ENDBRANCH  16  20
ENDBRANCH  15  16
ENDBRANCH  14  15
ENDBRANCH  13  14
ENDBRANCH   2  13
TORSDOF 8
ENDMDL
MODEL 5
REMARK VINA RESULT:      -5.3      3.969      5.965
REMARK  Name = 21126371
REMARK  8 active torsions:
REMARK  status: ('A' for Active; 'I' for Inactive)
REMARK    1  A    between atoms: C_2  and  C_13
REMARK    2  A    between atoms: CA_5  and  C_10
REMARK    3  A    between atoms: C_10  and  O_11
REMARK    4  A    between atoms: C_13  and  C_14
REMARK    5  A    between atoms: C_14  and  C_15
REMARK    6  A    between atoms: C_15  and  P_16
REMARK    7  A    between atoms: P_16  and  O_18
REMARK    8  A    between atoms: P_16  and  O_20
REMARK                            x       y       z     vdW  Elec       q    Type
REMARK                         _______ _______ _______ _____ _____    ______ ____
ROOT
ATOM      1  N   UNL     1     -35.206  23.782   5.891  0.00  0.00    +0.392 N 
ATOM      2  C   UNL     1     -35.159  23.258   3.006  0.00  0.00    -0.004 C 
ATOM      3  C   UNL     1     -35.110  24.678   3.584  0.00  0.00    -0.011 C 
ATOM      4  C   UNL     1     -35.850  22.318   4.002  0.00  0.00    -0.023 C 
ATOM      5  CA  UNL     1     -34.495  24.682   4.984  0.00  0.00    +0.040 C 
ATOM      6  C   UNL     1     -35.208  22.407   5.386  0.00  0.00    -0.081 C 
ATOM      7  H1  UNL     1     -36.170  24.101   5.987  0.00  0.00    -0.084 HD
ATOM      8  H2  UNL     1     -34.731  23.792   6.793  0.00  0.00    -0.084 HD
ENDROOT
BRANCH   5  10
ATOM      9  OXT UNL     1     -33.754  26.569   6.296  0.00  0.00    -0.253 OA
ATOM     10  C   UNL     1     -34.599  26.049   5.583  0.00  0.00    +0.293 C 
BRANCH  10  11
ATOM     11  O   UNL     1     -35.767  26.638   5.231  0.00  0.00    -0.482 OA
ATOM     12  H   UNL     1     -35.826  27.120   4.429  0.00  0.00    +0.295 HD
ENDBRANCH  10  11
ENDBRANCH   5  10
BRANCH   2  13
ATOM     13  C   UNL     1     -35.865  23.239   1.654  0.00  0.00    +0.001 C 
BRANCH  13  14
ATOM     14  C   UNL     1     -36.472  24.603   1.329  0.00  0.00    +0.013 C 
BRANCH  14  15
ATOM     15  C   UNL     1     -37.984  24.611   1.513  0.00  0.00    +0.116 C 
BRANCH  15  16
ATOM     16  P   UNL     1     -38.561  25.828   2.718  0.00  0.00    +0.337 P 
ATOM     17  O   UNL     1     -39.950  26.303   2.470  0.00  0.00    -0.258 OA
BRANCH  16  18
ATOM     18  O   UNL     1     -38.306  25.077   4.119  0.00  0.00    -0.324 OA
ATOM     19  H   UNL     1     -37.919  25.700   4.754  0.00  0.00    +0.220 HD
ENDBRANCH  16  18
BRANCH  16  20
ATOM     20  O   UNL     1     -37.406  26.948   2.661  0.00  0.00    -0.324 OA
ATOM     21  H   UNL     1     -37.810  27.829   2.652  0.00  0.00    +0.220 HD
ENDBRANCH  16  20
ENDBRANCH  15  16
ENDBRANCH  14  15
ENDBRANCH  13  14
ENDBRANCH   2  13
TORSDOF 8
ENDMDL
MODEL 6
REMARK VINA RESULT:      -5.2      4.345      4.804
REMARK  Name = 21126371
REMARK  8 active torsions:
REMARK  status: ('A' for Active; 'I' for Inactive)
REMARK    1  A    between atoms: C_2  and  C_13
REMARK    2  A    between atoms: CA_5  and  C_10
REMARK    3  A    between atoms: C_10  and  O_11
REMARK    4  A    between atoms: C_13  and  C_14
REMARK    5  A    between atoms: C_14  and  C_15
REMARK    6  A    between atoms: C_15  and  P_16
REMARK    7  A    between atoms: P_16  and  O_18
REMARK    8  A    between atoms: P_16  and  O_20
REMARK                            x       y       z     vdW  Elec       q    Type
REMARK                         _______ _______ _______ _____ _____    ______ ____
ROOT
ATOM      1  N   UNL     1     -35.386  21.282   4.860  0.00  0.00    +0.392 N 
ATOM      2  C   UNL     1     -35.283  24.127   4.158  0.00  0.00    -0.004 C 
ATOM      3  C   UNL     1     -35.199  23.018   3.103  0.00  0.00    -0.011 C 
ATOM      4  C   UNL     1     -34.789  23.595   5.509  0.00  0.00    -0.023 C 
ATOM      5  CA  UNL     1     -35.911  21.751   3.578  0.00  0.00    +0.040 C 
ATOM      6  C   UNL     1     -35.516  22.308   5.897  0.00  0.00    -0.081 C 
ATOM      7  H1  UNL     1     -34.399  21.047   4.749  0.00  0.00    -0.084 HD
ATOM      8  H2  UNL     1     -35.922  20.464   5.148  0.00  0.00    -0.084 HD
ENDROOT
BRANCH   5  10
ATOM      9  OXT UNL     1     -34.713  20.543   1.864  0.00  0.00    -0.253 OA
ATOM     10  C   UNL     1     -35.683  20.641   2.601  0.00  0.00    +0.293 C 
BRANCH  10  11
ATOM     11  O   UNL     1     -36.705  19.753   2.638  0.00  0.00    -0.482 OA
ATOM     12  H   UNL     1     -37.592  20.057   2.603  0.00  0.00    +0.295 HD
ENDBRANCH  10  11
ENDBRANCH   5  10
BRANCH   2  13
ATOM     13  C   UNL     1     -34.486  25.356   3.729  0.00  0.00    +0.001 C 
BRANCH  13  14
ATOM     14  C   UNL     1     -35.379  26.592   3.648  0.00  0.00    +0.013 C 
BRANCH  14  15
ATOM     15  C   UNL     1     -35.929  26.807   2.245  0.00  0.00    +0.116 C 
BRANCH  15  16
ATOM     16  P   UNL     1     -37.670  26.355   2.071  0.00  0.00    +0.337 P 
ATOM     17  O   UNL     1     -38.459  27.318   1.256  0.00  0.00    -0.258 OA
BRANCH  16  18
ATOM     18  O   UNL     1     -37.584  24.850   1.506  0.00  0.00    -0.324 OA
ATOM     19  H   UNL     1     -37.018  24.832   0.719  0.00  0.00    +0.220 HD
ENDBRANCH  16  18
BRANCH  16  20
ATOM     20  O   UNL     1     -38.135  26.171   3.601  0.00  0.00    -0.324 OA
ATOM     21  H   UNL     1     -37.489  25.623   4.072  0.00  0.00    +0.220 HD
ENDBRANCH  16  20
ENDBRANCH  15  16
ENDBRANCH  14  15
ENDBRANCH  13  14
ENDBRANCH   2  13
TORSDOF 8
ENDMDL
MODEL 7
REMARK VINA RESULT:      -5.2      3.324      6.994
REMARK  Name = 21126371
REMARK  8 active torsions:
REMARK  status: ('A' for Active; 'I' for Inactive)
REMARK    1  A    between atoms: C_2  and  C_13
REMARK    2  A    between atoms: CA_5  and  C_10
REMARK    3  A    between atoms: C_10  and  O_11
REMARK    4  A    between atoms: C_13  and  C_14
REMARK    5  A    between atoms: C_14  and  C_15
REMARK    6  A    between atoms: C_15  and  P_16
REMARK    7  A    between atoms: P_16  and  O_18
REMARK    8  A    between atoms: P_16  and  O_20
REMARK                            x       y       z     vdW  Elec       q    Type
REMARK                         _______ _______ _______ _____ _____    ______ ____
ROOT
ATOM      1  N   UNL     1     -35.331  26.866   4.674  0.00  0.00    +0.392 N 
ATOM      2  C   UNL     1     -35.129  23.990   5.211  0.00  0.00    -0.004 C 
ATOM      3  C   UNL     1     -33.975  24.794   4.599  0.00  0.00    -0.011 C 
ATOM      4  C   UNL     1     -36.463  24.676   4.892  0.00  0.00    -0.023 C 
ATOM      5  CA  UNL     1     -34.044  26.263   5.019  0.00  0.00    +0.040 C 
ATOM      6  C   UNL     1     -36.442  26.148   5.302  0.00  0.00    -0.081 C 
ATOM      7  H1  UNL     1     -35.449  26.839   3.661  0.00  0.00    -0.084 HD
ATOM      8  H2  UNL     1     -35.337  27.828   5.012  0.00  0.00    -0.084 HD
ENDROOT
BRANCH   5  10
ATOM      9  OXT UNL     1     -32.269  26.608   3.418  0.00  0.00    -0.253 OA
ATOM     10  C   UNL     1     -33.003  27.051   4.290  0.00  0.00    +0.293 C 
BRANCH  10  11
ATOM     11  O   UNL     1     -32.976  28.333   4.730  0.00  0.00    -0.482 OA
ATOM     12  H   UNL     1     -32.650  28.527   5.587  0.00  0.00    +0.295 HD
ENDBRANCH  10  11
ENDBRANCH   5  10
BRANCH   2  13
ATOM     13  C   UNL     1     -35.120  22.549   4.711  0.00  0.00    +0.001 C 
BRANCH  13  14
ATOM     14  C   UNL     1     -36.040  22.378   3.504  0.00  0.00    +0.013 C 
BRANCH  14  15
ATOM     15  C   UNL     1     -35.272  21.957   2.258  0.00  0.00    +0.116 C 
BRANCH  15  16
ATOM     16  P   UNL     1     -35.738  20.325   1.636  0.00  0.00    +0.337 P 
ATOM     17  O   UNL     1     -36.227  20.339   0.230  0.00  0.00    -0.258 OA
BRANCH  16  18
ATOM     18  O   UNL     1     -34.414  19.455   1.919  0.00  0.00    -0.324 OA
ATOM     19  H   UNL     1     -34.663  18.531   2.079  0.00  0.00    +0.220 HD
ENDBRANCH  16  18
BRANCH  16  20
ATOM     20  O   UNL     1     -36.785  19.816   2.748  0.00  0.00    -0.324 OA
ATOM     21  H   UNL     1     -37.544  20.418   2.777  0.00  0.00    +0.220 HD
ENDBRANCH  16  20
ENDBRANCH  15  16
ENDBRANCH  14  15
ENDBRANCH  13  14
ENDBRANCH   2  13
TORSDOF 8
ENDMDL
MODEL 8
REMARK VINA RESULT:      -5.1      1.953      2.282
REMARK  Name = 21126371
REMARK  8 active torsions:
REMARK  status: ('A' for Active; 'I' for Inactive)
REMARK    1  A    between atoms: C_2  and  C_13
REMARK    2  A    between atoms: CA_5  and  C_10
REMARK    3  A    between atoms: C_10  and  O_11
REMARK    4  A    between atoms: C_13  and  C_14
REMARK    5  A    between atoms: C_14  and  C_15
REMARK    6  A    between atoms: C_15  and  P_16
REMARK    7  A    between atoms: P_16  and  O_18
REMARK    8  A    between atoms: P_16  and  O_20
REMARK                            x       y       z     vdW  Elec       q    Type
REMARK                         _______ _______ _______ _____ _____    ______ ____
ROOT
ATOM      1  N   UNL     1     -35.345  21.325   4.879  0.00  0.00    +0.392 N 
ATOM      2  C   UNL     1     -35.915  24.202   4.845  0.00  0.00    -0.004 C 
ATOM      3  C   UNL     1     -35.785  23.375   3.560  0.00  0.00    -0.011 C 
ATOM      4  C   UNL     1     -35.117  23.534   5.972  0.00  0.00    -0.023 C 
ATOM      5  CA  UNL     1     -36.150  21.911   3.808  0.00  0.00    +0.040 C 
ATOM      6  C   UNL     1     -35.506  22.066   6.132  0.00  0.00    -0.081 C 
ATOM      7  H1  UNL     1     -34.363  21.347   4.606  0.00  0.00    -0.084 HD
ATOM      8  H2  UNL     1     -35.658  20.366   5.029  0.00  0.00    -0.084 HD
ENDROOT
BRANCH   5  10
ATOM      9  OXT UNL     1     -35.147  21.451   1.660  0.00  0.00    -0.253 OA
ATOM     10  C   UNL     1     -35.869  21.101   2.582  0.00  0.00    +0.293 C 
BRANCH  10  11
ATOM     11  O   UNL     1     -36.531  19.920   2.626  0.00  0.00    -0.482 OA
ATOM     12  H   UNL     1     -36.828  19.519   1.832  0.00  0.00    +0.295 HD
ENDBRANCH  10  11
ENDBRANCH   5  10
BRANCH   2  13
ATOM     13  C   UNL     1     -35.453  25.639   4.623  0.00  0.00    +0.001 C 
BRANCH  13  14
ATOM     14  C   UNL     1     -34.035  25.682   4.057  0.00  0.00    +0.013 C 
BRANCH  14  15
ATOM     15  C   UNL     1     -33.657  27.074   3.571  0.00  0.00    +0.116 C 
BRANCH  15  16
ATOM     16  P   UNL     1     -32.355  27.856   4.550  0.00  0.00    +0.337 P 
ATOM     17  O   UNL     1     -30.997  27.715   3.959  0.00  0.00    -0.258 OA
BRANCH  16  18
ATOM     18  O   UNL     1     -32.904  29.359   4.721  0.00  0.00    -0.324 OA
ATOM     19  H   UNL     1     -32.719  29.864   3.914  0.00  0.00    +0.220 HD
ENDBRANCH  16  18
BRANCH  16  20
ATOM     20  O   UNL     1     -32.570  27.195   6.003  0.00  0.00    -0.324 OA
ATOM     21  H   UNL     1     -31.833  27.442   6.582  0.00  0.00    +0.220 HD
ENDBRANCH  16  20
ENDBRANCH  15  16
ENDBRANCH  14  15
ENDBRANCH  13  14
ENDBRANCH   2  13
TORSDOF 8
ENDMDL
MODEL 9
REMARK VINA RESULT:      -5.0      5.235      7.759
REMARK  Name = 21126371
REMARK  8 active torsions:
REMARK  status: ('A' for Active; 'I' for Inactive)
REMARK    1  A    between atoms: C_2  and  C_13
REMARK    2  A    between atoms: CA_5  and  C_10
REMARK    3  A    between atoms: C_10  and  O_11
REMARK    4  A    between atoms: C_13  and  C_14
REMARK    5  A    between atoms: C_14  and  C_15
REMARK    6  A    between atoms: C_15  and  P_16
REMARK    7  A    between atoms: P_16  and  O_18
REMARK    8  A    between atoms: P_16  and  O_20
REMARK                            x       y       z     vdW  Elec       q    Type
REMARK                         _______ _______ _______ _____ _____    ______ ____
ROOT
ATOM      1  N   UNL     1     -36.949  25.198   4.912  0.00  0.00    +0.392 N 
ATOM      2  C   UNL     1     -35.647  22.811   3.812  0.00  0.00    -0.004 C 
ATOM      3  C   UNL     1     -37.088  23.199   3.455  0.00  0.00    -0.011 C 
ATOM      4  C   UNL     1     -35.280  23.390   5.184  0.00  0.00    -0.023 C 
ATOM      5  CA  UNL     1     -37.298  24.709   3.578  0.00  0.00    +0.040 C 
ATOM      6  C   UNL     1     -35.556  24.892   5.244  0.00  0.00    -0.081 C 
ATOM      7  H1  UNL     1     -37.558  24.754   5.598  0.00  0.00    -0.084 HD
ATOM      8  H2  UNL     1     -37.067  26.211   4.924  0.00  0.00    -0.084 HD
ENDROOT
BRANCH   5  10
ATOM      9  OXT UNL     1     -39.644  24.220   3.274  0.00  0.00    -0.253 OA
ATOM     10  C   UNL     1     -38.743  25.040   3.375  0.00  0.00    +0.293 C 
BRANCH  10  11
ATOM     11  O   UNL     1     -38.922  26.382   3.313  0.00  0.00    -0.482 OA
ATOM     12  H   UNL     1     -39.446  26.815   3.959  0.00  0.00    +0.295 HD
ENDBRANCH  10  11
ENDBRANCH   5  10
BRANCH   2  13
ATOM     13  C   UNL     1     -35.465  21.296   3.789  0.00  0.00    +0.001 C 
BRANCH  13  14
ATOM     14  C   UNL     1     -35.218  20.792   2.368  0.00  0.00    +0.013 C 
BRANCH  14  15
ATOM     15  C   UNL     1     -36.478  20.204   1.746  0.00  0.00    +0.116 C 
BRANCH  15  16
ATOM     16  P   UNL     1     -36.155  19.147   0.316  0.00  0.00    +0.337 P 
ATOM     17  O   UNL     1     -36.155  19.879  -0.980  0.00  0.00    -0.258 OA
BRANCH  16  18
ATOM     18  O   UNL     1     -34.776  18.424   0.723  0.00  0.00    -0.324 OA
ATOM     19  H   UNL     1     -34.865  18.029   1.605  0.00  0.00    +0.220 HD
ENDBRANCH  16  18
BRANCH  16  20
ATOM     20  O   UNL     1     -37.265  17.992   0.481  0.00  0.00    -0.324 OA
ATOM     21  H   UNL     1     -36.994  17.382   1.183  0.00  0.00    +0.220 HD
ENDBRANCH  16  20
ENDBRANCH  15  16
ENDBRANCH  14  15
ENDBRANCH  13  14
ENDBRANCH   2  13
TORSDOF 8
ENDMDL
