MODEL 1
REMARK VINA RESULT:      -6.8      0.000      0.000
REMARK  Name = 5487268
REMARK  7 active torsions:
REMARK  status: ('A' for Active; 'I' for Inactive)
REMARK    1  A    between atoms: C_1  and  C_22
REMARK    2  A    between atoms: C_3  and  C_9
REMARK    3  A    between atoms: C_4  and  O_27
REMARK    4  A    between atoms: C_5  and  O_29
REMARK    5  A    between atoms: C_14  and  O_18
REMARK    6  A    between atoms: C_17  and  O_20
REMARK    7  A    between atoms: C_22  and  C_25
REMARK                            x       y       z     vdW  Elec       q    Type
REMARK                         _______ _______ _______ _____ _____    ______ ____
ROOT
ATOM      1  C   UNL     1     -32.793  18.860   0.106  0.00  0.00    +0.015 C 
ATOM      2  C   UNL     1     -33.165  20.056   0.718  0.00  0.00    +0.002 C 
ATOM      3  C   UNL     1     -34.495  20.270   1.092  0.00  0.00    +0.040 C 
ATOM      4  C   UNL     1     -33.749  17.871  -0.133  0.00  0.00    +0.133 C 
ATOM      5  C   UNL     1     -35.449  19.279   0.851  0.00  0.00    +0.137 C 
ATOM      6  C   UNL     1     -35.077  18.081   0.239  0.00  0.00    +0.073 C 
ENDROOT
BRANCH   3   9
ATOM      7  O   UNL     1     -35.159  23.942   1.522  0.00  0.00    -0.450 OA
ATOM      8  O   UNL     1     -35.298  20.622   3.891  0.00  0.00    -0.286 OA
ATOM      9  C   UNL     1     -34.863  21.542   1.738  0.00  0.00    +0.080 C 
ATOM     10  C   UNL     1     -35.235  21.615   3.178  0.00  0.00    +0.205 C 
ATOM     11  C   UNL     1     -35.543  22.956   3.707  0.00  0.00    +0.107 C 
ATOM     12  C   UNL     1     -34.855  22.691   1.045  0.00  0.00    +0.183 C 
ATOM     13  C   UNL     1     -35.490  24.054   2.849  0.00  0.00    +0.154 C 
ATOM     14  C   UNL     1     -35.886  23.130   5.051  0.00  0.00    +0.143 C 
ATOM     15  C   UNL     1     -35.780  25.333   3.329  0.00  0.00    +0.074 C 
ATOM     16  C   UNL     1     -36.176  24.410   5.529  0.00  0.00    +0.073 C 
ATOM     17  C   UNL     1     -36.123  25.508   4.669  0.00  0.00    +0.140 C 
BRANCH  14  18
ATOM     18  O   UNL     1     -35.954  22.094   5.932  0.00  0.00    -0.505 OA
ATOM     19  H   UNL     1     -36.580  22.113   6.629  0.00  0.00    +0.292 HD
ENDBRANCH  14  18
BRANCH  17  20
ATOM     20  O   UNL     1     -36.404  26.754   5.141  0.00  0.00    -0.505 OA
ATOM     21  H   UNL     1     -36.537  26.889   6.059  0.00  0.00    +0.292 HD
ENDBRANCH  17  20
ENDBRANCH   3   9
BRANCH   1  22
ATOM     22  C   UNL     1     -31.367  18.651  -0.284  0.00  0.00    +0.040 C 
ATOM     23  C   UNL     1     -31.149  17.974  -1.681  0.00  0.00    +0.009 C 
ATOM     24  C   UNL     1     -30.640  20.031  -0.394  0.00  0.00    +0.009 C 
BRANCH  22  25
ATOM     25  C   UNL     1     -30.657  17.697   0.704  0.00  0.00    -0.023 C 
ATOM     26  C   UNL     1     -29.358  17.648   1.027  0.00  0.00    -0.005 C 
ENDBRANCH  22  25
ENDBRANCH   1  22
BRANCH   4  27
ATOM     27  O   UNL     1     -33.401  16.696  -0.728  0.00  0.00    -0.506 OA
ATOM     28  H   UNL     1     -33.867  15.910  -0.520  0.00  0.00    +0.292 HD
ENDBRANCH   4  27
BRANCH   5  29
ATOM     29  O   UNL     1     -36.754  19.458   1.203  0.00  0.00    -0.505 OA
ATOM     30  H   UNL     1     -36.991  19.517   2.108  0.00  0.00    +0.292 HD
ENDBRANCH   5  29
TORSDOF 7
ENDMDL
MODEL 2
REMARK VINA RESULT:      -6.7      3.941      6.752
REMARK  Name = 5487268
REMARK  7 active torsions:
REMARK  status: ('A' for Active; 'I' for Inactive)
REMARK    1  A    between atoms: C_1  and  C_22
REMARK    2  A    between atoms: C_3  and  C_9
REMARK    3  A    between atoms: C_4  and  O_27
REMARK    4  A    between atoms: C_5  and  O_29
REMARK    5  A    between atoms: C_14  and  O_18
REMARK    6  A    between atoms: C_17  and  O_20
REMARK    7  A    between atoms: C_22  and  C_25
REMARK                            x       y       z     vdW  Elec       q    Type
REMARK                         _______ _______ _______ _____ _____    ______ ____
ROOT
ATOM      1  C   UNL     1     -35.664  23.757   2.620  0.00  0.00    +0.015 C 
ATOM      2  C   UNL     1     -34.841  24.877   2.744  0.00  0.00    +0.002 C 
ATOM      3  C   UNL     1     -35.136  25.863   3.689  0.00  0.00    +0.040 C 
ATOM      4  C   UNL     1     -36.784  23.619   3.441  0.00  0.00    +0.133 C 
ATOM      5  C   UNL     1     -36.258  25.722   4.509  0.00  0.00    +0.137 C 
ATOM      6  C   UNL     1     -37.081  24.602   4.386  0.00  0.00    +0.073 C 
ENDROOT
BRANCH   3   9
ATOM      7  O   UNL     1     -33.591  29.199   2.918  0.00  0.00    -0.450 OA
ATOM      8  O   UNL     1     -33.040  26.265   5.700  0.00  0.00    -0.286 OA
ATOM      9  C   UNL     1     -34.252  27.036   3.801  0.00  0.00    +0.080 C 
ATOM     10  C   UNL     1     -33.200  27.131   4.850  0.00  0.00    +0.205 C 
ATOM     11  C   UNL     1     -32.358  28.341   4.825  0.00  0.00    +0.107 C 
ATOM     12  C   UNL     1     -34.355  28.058   2.939  0.00  0.00    +0.183 C 
ATOM     13  C   UNL     1     -32.598  29.317   3.858  0.00  0.00    +0.154 C 
ATOM     14  C   UNL     1     -31.332  28.514   5.758  0.00  0.00    +0.143 C 
ATOM     15  C   UNL     1     -31.815  30.471   3.818  0.00  0.00    +0.074 C 
ATOM     16  C   UNL     1     -30.549  29.670   5.717  0.00  0.00    +0.073 C 
ATOM     17  C   UNL     1     -30.790  30.646   4.749  0.00  0.00    +0.140 C 
BRANCH  14  18
ATOM     18  O   UNL     1     -31.054  27.596   6.725  0.00  0.00    -0.505 OA
ATOM     19  H   UNL     1     -30.204  27.204   6.767  0.00  0.00    +0.292 HD
ENDBRANCH  14  18
BRANCH  17  20
ATOM     20  O   UNL     1     -30.023  31.770   4.711  0.00  0.00    -0.505 OA
ATOM     21  H   UNL     1     -30.334  32.563   5.101  0.00  0.00    +0.292 HD
ENDBRANCH  17  20
ENDBRANCH   3   9
BRANCH   1  22
ATOM     22  C   UNL     1     -35.330  22.714   1.605  0.00  0.00    +0.040 C 
ATOM     23  C   UNL     1     -36.422  22.478   0.505  0.00  0.00    +0.009 C 
ATOM     24  C   UNL     1     -34.051  23.136   0.810  0.00  0.00    +0.009 C 
BRANCH  22  25
ATOM     25  C   UNL     1     -35.169  21.327   2.270  0.00  0.00    -0.023 C 
ATOM     26  C   UNL     1     -34.750  20.181   1.717  0.00  0.00    -0.005 C 
ENDBRANCH  22  25
ENDBRANCH   1  22
BRANCH   4  27
ATOM     27  O   UNL     1     -37.595  22.531   3.334  0.00  0.00    -0.506 OA
ATOM     28  H   UNL     1     -38.423  22.518   3.773  0.00  0.00    +0.292 HD
ENDBRANCH   4  27
BRANCH   5  29
ATOM     29  O   UNL     1     -36.573  26.669   5.439  0.00  0.00    -0.505 OA
ATOM     30  H   UNL     1     -35.950  26.901   6.099  0.00  0.00    +0.292 HD
ENDBRANCH   5  29
TORSDOF 7
ENDMDL
MODEL 3
REMARK VINA RESULT:      -6.5      2.964      4.789
REMARK  Name = 5487268
REMARK  7 active torsions:
REMARK  status: ('A' for Active; 'I' for Inactive)
REMARK    1  A    between atoms: C_1  and  C_22
REMARK    2  A    between atoms: C_3  and  C_9
REMARK    3  A    between atoms: C_4  and  O_27
REMARK    4  A    between atoms: C_5  and  O_29
REMARK    5  A    between atoms: C_14  and  O_18
REMARK    6  A    between atoms: C_17  and  O_20
REMARK    7  A    between atoms: C_22  and  C_25
REMARK                            x       y       z     vdW  Elec       q    Type
REMARK                         _______ _______ _______ _____ _____    ______ ____
ROOT
ATOM      1  C   UNL     1     -35.099  21.668   1.784  0.00  0.00    +0.015 C 
ATOM      2  C   UNL     1     -34.657  22.990   1.827  0.00  0.00    +0.002 C 
ATOM      3  C   UNL     1     -35.222  23.890   2.736  0.00  0.00    +0.040 C 
ATOM      4  C   UNL     1     -36.105  21.239   2.650  0.00  0.00    +0.133 C 
ATOM      5  C   UNL     1     -36.230  23.458   3.601  0.00  0.00    +0.137 C 
ATOM      6  C   UNL     1     -36.672  22.134   3.558  0.00  0.00    +0.073 C 
ENDROOT
BRANCH   3   9
ATOM      7  O   UNL     1     -34.624  27.435   1.648  0.00  0.00    -0.450 OA
ATOM      8  O   UNL     1     -33.614  25.123   4.856  0.00  0.00    -0.286 OA
ATOM      9  C   UNL     1     -34.738  25.281   2.762  0.00  0.00    +0.080 C 
ATOM     10  C   UNL     1     -33.905  25.803   3.881  0.00  0.00    +0.205 C 
ATOM     11  C   UNL     1     -33.455  27.202   3.763  0.00  0.00    +0.107 C 
ATOM     12  C   UNL     1     -35.020  26.125   1.759  0.00  0.00    +0.183 C 
ATOM     13  C   UNL     1     -33.840  27.949   2.649  0.00  0.00    +0.154 C 
ATOM     14  C   UNL     1     -32.654  27.778   4.753  0.00  0.00    +0.143 C 
ATOM     15  C   UNL     1     -33.426  29.276   2.520  0.00  0.00    +0.074 C 
ATOM     16  C   UNL     1     -32.242  29.106   4.621  0.00  0.00    +0.073 C 
ATOM     17  C   UNL     1     -32.627  29.853   3.507  0.00  0.00    +0.140 C 
BRANCH  14  18
ATOM     18  O   UNL     1     -32.250  27.096   5.861  0.00  0.00    -0.505 OA
ATOM     19  H   UNL     1     -32.456  27.426   6.714  0.00  0.00    +0.292 HD
ENDBRANCH  14  18
BRANCH  17  20
ATOM     20  O   UNL     1     -32.221  31.146   3.382  0.00  0.00    -0.505 OA
ATOM     21  H   UNL     1     -32.803  31.844   3.609  0.00  0.00    +0.292 HD
ENDBRANCH  17  20
ENDBRANCH   3   9
BRANCH   1  22
ATOM     22  C   UNL     1     -34.481  20.723   0.807  0.00  0.00    +0.040 C 
ATOM     23  C   UNL     1     -35.446  20.185  -0.305  0.00  0.00    +0.009 C 
ATOM     24  C   UNL     1     -33.335  21.444   0.023  0.00  0.00    +0.009 C 
BRANCH  22  25
ATOM     25  C   UNL     1     -33.983  19.442   1.516  0.00  0.00    -0.023 C 
ATOM     26  C   UNL     1     -32.873  18.733   1.272  0.00  0.00    -0.005 C 
ENDBRANCH  22  25
ENDBRANCH   1  22
BRANCH   4  27
ATOM     27  O   UNL     1     -36.546  19.951   2.622  0.00  0.00    -0.506 OA
ATOM     28  H   UNL     1     -35.929  19.245   2.603  0.00  0.00    +0.292 HD
ENDBRANCH   4  27
BRANCH   5  29
ATOM     29  O   UNL     1     -36.802  24.312   4.497  0.00  0.00    -0.505 OA
ATOM     30  H   UNL     1     -36.499  24.330   5.384  0.00  0.00    +0.292 HD
ENDBRANCH   5  29
TORSDOF 7
ENDMDL
MODEL 4
REMARK VINA RESULT:      -6.3      1.196      2.325
REMARK  Name = 5487268
REMARK  7 active torsions:
REMARK  status: ('A' for Active; 'I' for Inactive)
REMARK    1  A    between atoms: C_1  and  C_22
REMARK    2  A    between atoms: C_3  and  C_9
REMARK    3  A    between atoms: C_4  and  O_27
REMARK    4  A    between atoms: C_5  and  O_29
REMARK    5  A    between atoms: C_14  and  O_18
REMARK    6  A    between atoms: C_17  and  O_20
REMARK    7  A    between atoms: C_22  and  C_25
REMARK                            x       y       z     vdW  Elec       q    Type
REMARK                         _______ _______ _______ _____ _____    ______ ____
ROOT
ATOM      1  C   UNL     1     -34.129  18.402   0.182  0.00  0.00    +0.015 C 
ATOM      2  C   UNL     1     -34.259  19.496   1.037  0.00  0.00    +0.002 C 
ATOM      3  C   UNL     1     -35.521  20.039   1.296  0.00  0.00    +0.040 C 
ATOM      4  C   UNL     1     -35.260  17.846  -0.418  0.00  0.00    +0.133 C 
ATOM      5  C   UNL     1     -36.651  19.481   0.693  0.00  0.00    +0.137 C 
ATOM      6  C   UNL     1     -36.521  18.386  -0.163  0.00  0.00    +0.073 C 
ENDROOT
BRANCH   3   9
ATOM      7  O   UNL     1     -35.490  22.038   4.475  0.00  0.00    -0.450 OA
ATOM      8  O   UNL     1     -36.218  22.783   0.530  0.00  0.00    -0.286 OA
ATOM      9  C   UNL     1     -35.632  21.193   2.203  0.00  0.00    +0.080 C 
ATOM     10  C   UNL     1     -36.016  22.546   1.714  0.00  0.00    +0.205 C 
ATOM     11  C   UNL     1     -36.130  23.604   2.735  0.00  0.00    +0.107 C 
ATOM     12  C   UNL     1     -35.407  21.056   3.519  0.00  0.00    +0.183 C 
ATOM     13  C   UNL     1     -35.859  23.295   4.067  0.00  0.00    +0.154 C 
ATOM     14  C   UNL     1     -36.502  24.902   2.376  0.00  0.00    +0.143 C 
ATOM     15  C   UNL     1     -35.958  24.282   5.049  0.00  0.00    +0.074 C 
ATOM     16  C   UNL     1     -36.601  25.889   3.359  0.00  0.00    +0.073 C 
ATOM     17  C   UNL     1     -36.329  25.579   4.693  0.00  0.00    +0.140 C 
BRANCH  14  18
ATOM     18  O   UNL     1     -36.777  25.260   1.091  0.00  0.00    -0.505 OA
ATOM     19  H   UNL     1     -37.624  25.595   0.869  0.00  0.00    +0.292 HD
ENDBRANCH  14  18
BRANCH  17  20
ATOM     20  O   UNL     1     -36.428  26.543   5.649  0.00  0.00    -0.505 OA
ATOM     21  H   UNL     1     -35.653  26.926   6.011  0.00  0.00    +0.292 HD
ENDBRANCH  17  20
ENDBRANCH   3   9
BRANCH   1  22
ATOM     22  C   UNL     1     -32.772  17.836  -0.079  0.00  0.00    +0.040 C 
ATOM     23  C   UNL     1     -32.672  16.274   0.010  0.00  0.00    +0.009 C 
ATOM     24  C   UNL     1     -32.325  18.180  -1.537  0.00  0.00    +0.009 C 
BRANCH  22  25
ATOM     25  C   UNL     1     -31.755  18.332   0.974  0.00  0.00    -0.023 C 
ATOM     26  C   UNL     1     -30.484  17.946   1.152  0.00  0.00    -0.005 C 
ENDBRANCH  22  25
ENDBRANCH   1  22
BRANCH   4  27
ATOM     27  O   UNL     1     -35.150  16.777  -1.254  0.00  0.00    -0.506 OA
ATOM     28  H   UNL     1     -35.917  16.406  -1.644  0.00  0.00    +0.292 HD
ENDBRANCH   4  27
BRANCH   5  29
ATOM     29  O   UNL     1     -37.895  19.990   0.923  0.00  0.00    -0.505 OA
ATOM     30  H   UNL     1     -38.268  19.941   1.782  0.00  0.00    +0.292 HD
ENDBRANCH   5  29
TORSDOF 7
ENDMDL
MODEL 5
REMARK VINA RESULT:      -6.2      2.834      5.024
REMARK  Name = 5487268
REMARK  7 active torsions:
REMARK  status: ('A' for Active; 'I' for Inactive)
REMARK    1  A    between atoms: C_1  and  C_22
REMARK    2  A    between atoms: C_3  and  C_9
REMARK    3  A    between atoms: C_4  and  O_27
REMARK    4  A    between atoms: C_5  and  O_29
REMARK    5  A    between atoms: C_14  and  O_18
REMARK    6  A    between atoms: C_17  and  O_20
REMARK    7  A    between atoms: C_22  and  C_25
REMARK                            x       y       z     vdW  Elec       q    Type
REMARK                         _______ _______ _______ _____ _____    ______ ____
ROOT
ATOM      1  C   UNL     1     -35.094  21.680   1.786  0.00  0.00    +0.015 C 
ATOM      2  C   UNL     1     -34.633  22.989   1.918  0.00  0.00    +0.002 C 
ATOM      3  C   UNL     1     -35.170  23.827   2.899  0.00  0.00    +0.040 C 
ATOM      4  C   UNL     1     -36.094  21.202   2.634  0.00  0.00    +0.133 C 
ATOM      5  C   UNL     1     -36.171  23.346   3.746  0.00  0.00    +0.137 C 
ATOM      6  C   UNL     1     -36.633  22.036   3.615  0.00  0.00    +0.073 C 
ENDROOT
BRANCH   3   9
ATOM      7  O   UNL     1     -32.922  26.689   3.828  0.00  0.00    -0.450 OA
ATOM      8  O   UNL     1     -36.486  26.247   1.892  0.00  0.00    -0.286 OA
ATOM      9  C   UNL     1     -34.666  25.206   3.019  0.00  0.00    +0.080 C 
ATOM     10  C   UNL     1     -35.426  26.371   2.490  0.00  0.00    +0.205 C 
ATOM     11  C   UNL     1     -34.826  27.700   2.713  0.00  0.00    +0.107 C 
ATOM     12  C   UNL     1     -33.500  25.459   3.633  0.00  0.00    +0.183 C 
ATOM     13  C   UNL     1     -33.600  27.790   3.372  0.00  0.00    +0.154 C 
ATOM     14  C   UNL     1     -35.473  28.856   2.270  0.00  0.00    +0.143 C 
ATOM     15  C   UNL     1     -33.014  29.038   3.590  0.00  0.00    +0.074 C 
ATOM     16  C   UNL     1     -34.885  30.104   2.489  0.00  0.00    +0.073 C 
ATOM     17  C   UNL     1     -33.657  30.194   3.148  0.00  0.00    +0.140 C 
BRANCH  14  18
ATOM     18  O   UNL     1     -36.670  28.827   1.620  0.00  0.00    -0.505 OA
ATOM     19  H   UNL     1     -36.709  28.560   0.723  0.00  0.00    +0.292 HD
ENDBRANCH  14  18
BRANCH  17  20
ATOM     20  O   UNL     1     -33.088  31.412   3.362  0.00  0.00    -0.505 OA
ATOM     21  H   UNL     1     -32.266  31.621   2.965  0.00  0.00    +0.292 HD
ENDBRANCH  17  20
ENDBRANCH   3   9
BRANCH   1  22
ATOM     22  C   UNL     1     -34.505  20.801   0.732  0.00  0.00    +0.040 C 
ATOM     23  C   UNL     1     -35.491  20.373  -0.409  0.00  0.00    +0.009 C 
ATOM     24  C   UNL     1     -33.350  21.555  -0.004  0.00  0.00    +0.009 C 
BRANCH  22  25
ATOM     25  C   UNL     1     -34.031  19.457   1.334  0.00  0.00    -0.023 C 
ATOM     26  C   UNL     1     -32.843  18.856   1.195  0.00  0.00    -0.005 C 
ENDBRANCH  22  25
ENDBRANCH   1  22
BRANCH   4  27
ATOM     27  O   UNL     1     -36.553  19.925   2.519  0.00  0.00    -0.506 OA
ATOM     28  H   UNL     1     -37.445  19.728   2.730  0.00  0.00    +0.292 HD
ENDBRANCH   4  27
BRANCH   5  29
ATOM     29  O   UNL     1     -36.716  24.140   4.712  0.00  0.00    -0.505 OA
ATOM     30  H   UNL     1     -36.885  25.045   4.534  0.00  0.00    +0.292 HD
ENDBRANCH   5  29
TORSDOF 7
ENDMDL
MODEL 6
REMARK VINA RESULT:      -6.1      2.061      3.866
REMARK  Name = 5487268
REMARK  7 active torsions:
REMARK  status: ('A' for Active; 'I' for Inactive)
REMARK    1  A    between atoms: C_1  and  C_22
REMARK    2  A    between atoms: C_3  and  C_9
REMARK    3  A    between atoms: C_4  and  O_27
REMARK    4  A    between atoms: C_5  and  O_29
REMARK    5  A    between atoms: C_14  and  O_18
REMARK    6  A    between atoms: C_17  and  O_20
REMARK    7  A    between atoms: C_22  and  C_25
REMARK                            x       y       z     vdW  Elec       q    Type
REMARK                         _______ _______ _______ _____ _____    ______ ____
ROOT
ATOM      1  C   UNL     1     -36.647  18.231  -0.452  0.00  0.00    +0.015 C 
ATOM      2  C   UNL     1     -36.808  19.426   0.249  0.00  0.00    +0.002 C 
ATOM      3  C   UNL     1     -35.705  20.044   0.845  0.00  0.00    +0.040 C 
ATOM      4  C   UNL     1     -35.383  17.649  -0.560  0.00  0.00    +0.133 C 
ATOM      5  C   UNL     1     -34.442  19.459   0.736  0.00  0.00    +0.137 C 
ATOM      6  C   UNL     1     -34.280  18.263   0.034  0.00  0.00    +0.073 C 
ENDROOT
BRANCH   3   9
ATOM      7  O   UNL     1     -36.533  23.649   1.499  0.00  0.00    -0.450 OA
ATOM      8  O   UNL     1     -35.256  20.468   3.712  0.00  0.00    -0.286 OA
ATOM      9  C   UNL     1     -35.901  21.306   1.579  0.00  0.00    +0.080 C 
ATOM     10  C   UNL     1     -35.621  21.421   3.037  0.00  0.00    +0.205 C 
ATOM     11  C   UNL     1     -35.820  22.752   3.639  0.00  0.00    +0.107 C 
ATOM     12  C   UNL     1     -36.324  22.410   0.945  0.00  0.00    +0.183 C 
ATOM     13  C   UNL     1     -36.269  23.801   2.836  0.00  0.00    +0.154 C 
ATOM     14  C   UNL     1     -35.567  22.964   4.996  0.00  0.00    +0.143 C 
ATOM     15  C   UNL     1     -36.467  25.068   3.387  0.00  0.00    +0.074 C 
ATOM     16  C   UNL     1     -35.765  24.233   5.545  0.00  0.00    +0.073 C 
ATOM     17  C   UNL     1     -36.215  25.282   4.742  0.00  0.00    +0.140 C 
BRANCH  14  18
ATOM     18  O   UNL     1     -35.129  21.977   5.826  0.00  0.00    -0.505 OA
ATOM     19  H   UNL     1     -34.794  22.193   6.675  0.00  0.00    +0.292 HD
ENDBRANCH  14  18
BRANCH  17  20
ATOM     20  O   UNL     1     -36.405  26.518   5.281  0.00  0.00    -0.505 OA
ATOM     21  H   UNL     1     -36.858  27.177   4.793  0.00  0.00    +0.292 HD
ENDBRANCH  17  20
ENDBRANCH   3   9
BRANCH   1  22
ATOM     22  C   UNL     1     -37.838  17.588  -1.083  0.00  0.00    +0.040 C 
ATOM     23  C   UNL     1     -39.150  18.446  -1.061  0.00  0.00    +0.009 C 
ATOM     24  C   UNL     1     -37.560  17.328  -2.600  0.00  0.00    +0.009 C 
BRANCH  22  25
ATOM     25  C   UNL     1     -38.230  16.293  -0.334  0.00  0.00    -0.023 C 
ATOM     26  C   UNL     1     -38.923  15.243  -0.792  0.00  0.00    -0.005 C 
ENDBRANCH  22  25
ENDBRANCH   1  22
BRANCH   4  27
ATOM     27  O   UNL     1     -35.209  16.483  -1.242  0.00  0.00    -0.506 OA
ATOM     28  H   UNL     1     -35.458  15.669  -0.850  0.00  0.00    +0.292 HD
ENDBRANCH   4  27
BRANCH   5  29
ATOM     29  O   UNL     1     -33.347  20.037   1.308  0.00  0.00    -0.505 OA
ATOM     30  H   UNL     1     -33.175  20.948   1.173  0.00  0.00    +0.292 HD
ENDBRANCH   5  29
TORSDOF 7
ENDMDL
MODEL 7
REMARK VINA RESULT:      -6.1      2.359      7.531
REMARK  Name = 5487268
REMARK  7 active torsions:
REMARK  status: ('A' for Active; 'I' for Inactive)
REMARK    1  A    between atoms: C_1  and  C_22
REMARK    2  A    between atoms: C_3  and  C_9
REMARK    3  A    between atoms: C_4  and  O_27
REMARK    4  A    between atoms: C_5  and  O_29
REMARK    5  A    between atoms: C_14  and  O_18
REMARK    6  A    between atoms: C_17  and  O_20
REMARK    7  A    between atoms: C_22  and  C_25
REMARK                            x       y       z     vdW  Elec       q    Type
REMARK                         _______ _______ _______ _____ _____    ______ ____
ROOT
ATOM      1  C   UNL     1     -35.162  23.438   3.009  0.00  0.00    +0.015 C 
ATOM      2  C   UNL     1     -35.138  22.091   2.650  0.00  0.00    +0.002 C 
ATOM      3  C   UNL     1     -34.797  21.717   1.348  0.00  0.00    +0.040 C 
ATOM      4  C   UNL     1     -34.844  24.418   2.068  0.00  0.00    +0.133 C 
ATOM      5  C   UNL     1     -34.479  22.700   0.407  0.00  0.00    +0.137 C 
ATOM      6  C   UNL     1     -34.502  24.049   0.766  0.00  0.00    +0.073 C 
ENDROOT
BRANCH   3   9
ATOM      7  O   UNL     1     -33.471  18.260   0.715  0.00  0.00    -0.450 OA
ATOM      8  O   UNL     1     -37.103  20.108   0.516  0.00  0.00    -0.286 OA
ATOM      9  C   UNL     1     -34.777  20.288   0.993  0.00  0.00    +0.080 C 
ATOM     10  C   UNL     1     -36.006  19.567   0.560  0.00  0.00    +0.205 C 
ATOM     11  C   UNL     1     -35.840  18.148   0.196  0.00  0.00    +0.107 C 
ATOM     12  C   UNL     1     -33.635  19.586   1.032  0.00  0.00    +0.183 C 
ATOM     13  C   UNL     1     -34.576  17.566   0.294  0.00  0.00    +0.154 C 
ATOM     14  C   UNL     1     -36.931  17.392  -0.240  0.00  0.00    +0.143 C 
ATOM     15  C   UNL     1     -34.397  16.223  -0.044  0.00  0.00    +0.074 C 
ATOM     16  C   UNL     1     -36.749  16.049  -0.577  0.00  0.00    +0.073 C 
ATOM     17  C   UNL     1     -35.485  15.466  -0.478  0.00  0.00    +0.140 C 
BRANCH  14  18
ATOM     18  O   UNL     1     -38.186  17.909  -0.353  0.00  0.00    -0.505 OA
ATOM     19  H   UNL     1     -38.488  18.227  -1.181  0.00  0.00    +0.292 HD
ENDBRANCH  14  18
BRANCH  17  20
ATOM     20  O   UNL     1     -35.312  14.157  -0.810  0.00  0.00    -0.505 OA
ATOM     21  H   UNL     1     -35.782  13.791  -1.533  0.00  0.00    +0.292 HD
ENDBRANCH  17  20
ENDBRANCH   3   9
BRANCH   1  22
ATOM     22  C   UNL     1     -35.529  23.815   4.407  0.00  0.00    +0.040 C 
ATOM     23  C   UNL     1     -34.433  24.618   5.191  0.00  0.00    +0.009 C 
ATOM     24  C   UNL     1     -36.777  24.758   4.393  0.00  0.00    +0.009 C 
BRANCH  22  25
ATOM     25  C   UNL     1     -35.759  22.558   5.276  0.00  0.00    -0.023 C 
ATOM     26  C   UNL     1     -35.067  22.147   6.347  0.00  0.00    -0.005 C 
ENDBRANCH  22  25
ENDBRANCH   1  22
BRANCH   4  27
ATOM     27  O   UNL     1     -34.860  25.737   2.403  0.00  0.00    -0.506 OA
ATOM     28  H   UNL     1     -34.398  26.034   3.162  0.00  0.00    +0.292 HD
ENDBRANCH   4  27
BRANCH   5  29
ATOM     29  O   UNL     1     -34.143  22.367  -0.872  0.00  0.00    -0.505 OA
ATOM     30  H   UNL     1     -33.279  22.543  -1.189  0.00  0.00    +0.292 HD
ENDBRANCH   5  29
TORSDOF 7
ENDMDL
MODEL 8
REMARK VINA RESULT:      -6.1      2.630      7.438
REMARK  Name = 5487268
REMARK  7 active torsions:
REMARK  status: ('A' for Active; 'I' for Inactive)
REMARK    1  A    between atoms: C_1  and  C_22
REMARK    2  A    between atoms: C_3  and  C_9
REMARK    3  A    between atoms: C_4  and  O_27
REMARK    4  A    between atoms: C_5  and  O_29
REMARK    5  A    between atoms: C_14  and  O_18
REMARK    6  A    between atoms: C_17  and  O_20
REMARK    7  A    between atoms: C_22  and  C_25
REMARK                            x       y       z     vdW  Elec       q    Type
REMARK                         _______ _______ _______ _____ _____    ______ ____
ROOT
ATOM      1  C   UNL     1     -34.813  24.492   3.398  0.00  0.00    +0.015 C 
ATOM      2  C   UNL     1     -35.006  23.417   2.530  0.00  0.00    +0.002 C 
ATOM      3  C   UNL     1     -35.273  22.143   3.039  0.00  0.00    +0.040 C 
ATOM      4  C   UNL     1     -34.887  24.297   4.778  0.00  0.00    +0.133 C 
ATOM      5  C   UNL     1     -35.346  21.952   4.421  0.00  0.00    +0.137 C 
ATOM      6  C   UNL     1     -35.154  23.027   5.290  0.00  0.00    +0.073 C 
ENDROOT
BRANCH   3   9
ATOM      7  O   UNL     1     -34.494  19.166   0.886  0.00  0.00    -0.450 OA
ATOM      8  O   UNL     1     -37.802  21.391   1.758  0.00  0.00    -0.286 OA
ATOM      9  C   UNL     1     -35.474  21.025   2.102  0.00  0.00    +0.080 C 
ATOM     10  C   UNL     1     -36.801  20.741   1.488  0.00  0.00    +0.205 C 
ATOM     11  C   UNL     1     -36.854  19.615   0.536  0.00  0.00    +0.107 C 
ATOM     12  C   UNL     1     -34.452  20.229   1.755  0.00  0.00    +0.183 C 
ATOM     13  C   UNL     1     -35.694  18.883   0.285  0.00  0.00    +0.154 C 
ATOM     14  C   UNL     1     -38.049  19.282  -0.105  0.00  0.00    +0.143 C 
ATOM     15  C   UNL     1     -35.724  17.812  -0.610  0.00  0.00    +0.074 C 
ATOM     16  C   UNL     1     -38.077  18.211  -1.000  0.00  0.00    +0.073 C 
ATOM     17  C   UNL     1     -36.916  17.477  -1.252  0.00  0.00    +0.140 C 
BRANCH  14  18
ATOM     18  O   UNL     1     -39.211  19.962   0.104  0.00  0.00    -0.505 OA
ATOM     19  H   UNL     1     -39.202  20.767   0.584  0.00  0.00    +0.292 HD
ENDBRANCH  14  18
BRANCH  17  20
ATOM     20  O   UNL     1     -36.947  16.435  -2.127  0.00  0.00    -0.505 OA
ATOM     21  H   UNL     1     -37.269  16.563  -2.998  0.00  0.00    +0.292 HD
ENDBRANCH  17  20
ENDBRANCH   3   9
BRANCH   1  22
ATOM     22  C   UNL     1     -34.530  25.845   2.834  0.00  0.00    +0.040 C 
ATOM     23  C   UNL     1     -33.438  26.672   3.596  0.00  0.00    +0.009 C 
ATOM     24  C   UNL     1     -33.978  25.708   1.377  0.00  0.00    +0.009 C 
BRANCH  22  25
ATOM     25  C   UNL     1     -35.786  26.744   2.897  0.00  0.00    -0.023 C 
ATOM     26  C   UNL     1     -36.941  26.611   2.231  0.00  0.00    -0.005 C 
ENDBRANCH  22  25
ENDBRANCH   1  22
BRANCH   4  27
ATOM     27  O   UNL     1     -34.704  25.337   5.638  0.00  0.00    -0.506 OA
ATOM     28  H   UNL     1     -35.417  25.910   5.841  0.00  0.00    +0.292 HD
ENDBRANCH   4  27
BRANCH   5  29
ATOM     29  O   UNL     1     -35.604  20.721   4.948  0.00  0.00    -0.505 OA
ATOM     30  H   UNL     1     -34.999  20.018   4.811  0.00  0.00    +0.292 HD
ENDBRANCH   5  29
TORSDOF 7
ENDMDL
MODEL 9
REMARK VINA RESULT:      -6.1      5.941      9.709
REMARK  Name = 5487268
REMARK  7 active torsions:
REMARK  status: ('A' for Active; 'I' for Inactive)
REMARK    1  A    between atoms: C_1  and  C_22
REMARK    2  A    between atoms: C_3  and  C_9
REMARK    3  A    between atoms: C_4  and  O_27
REMARK    4  A    between atoms: C_5  and  O_29
REMARK    5  A    between atoms: C_14  and  O_18
REMARK    6  A    between atoms: C_17  and  O_20
REMARK    7  A    between atoms: C_22  and  C_25
REMARK                            x       y       z     vdW  Elec       q    Type
REMARK                         _______ _______ _______ _____ _____    ______ ____
ROOT
ATOM      1  C   UNL     1     -29.483  29.528   5.605  0.00  0.00    +0.015 C 
ATOM      2  C   UNL     1     -30.398  28.476   5.577  0.00  0.00    +0.002 C 
ATOM      3  C   UNL     1     -31.708  28.697   5.145  0.00  0.00    +0.040 C 
ATOM      4  C   UNL     1     -29.874  30.805   5.200  0.00  0.00    +0.133 C 
ATOM      5  C   UNL     1     -32.097  29.976   4.740  0.00  0.00    +0.137 C 
ATOM      6  C   UNL     1     -31.181  31.030   4.768  0.00  0.00    +0.073 C 
ENDROOT
BRANCH   3   9
ATOM      7  O   UNL     1     -33.994  25.989   6.391  0.00  0.00    -0.450 OA
ATOM      8  O   UNL     1     -32.772  27.374   2.753  0.00  0.00    -0.286 OA
ATOM      9  C   UNL     1     -32.656  27.570   5.123  0.00  0.00    +0.080 C 
ATOM     10  C   UNL     1     -33.118  26.954   3.849  0.00  0.00    +0.205 C 
ATOM     11  C   UNL     1     -34.036  25.806   3.971  0.00  0.00    +0.107 C 
ATOM     12  C   UNL     1     -33.124  27.044   6.265  0.00  0.00    +0.183 C 
ATOM     13  C   UNL     1     -34.429  25.383   5.241  0.00  0.00    +0.154 C 
ATOM     14  C   UNL     1     -34.510  25.149   2.833  0.00  0.00    +0.143 C 
ATOM     15  C   UNL     1     -35.299  24.300   5.379  0.00  0.00    +0.074 C 
ATOM     16  C   UNL     1     -35.381  24.067   2.973  0.00  0.00    +0.073 C 
ATOM     17  C   UNL     1     -35.774  23.643   4.243  0.00  0.00    +0.140 C 
BRANCH  14  18
ATOM     18  O   UNL     1     -34.160  25.521   1.570  0.00  0.00    -0.505 OA
ATOM     19  H   UNL     1     -34.549  25.094   0.832  0.00  0.00    +0.292 HD
ENDBRANCH  14  18
BRANCH  17  20
ATOM     20  O   UNL     1     -36.622  22.586   4.376  0.00  0.00    -0.505 OA
ATOM     21  H   UNL     1     -36.280  21.731   4.552  0.00  0.00    +0.292 HD
ENDBRANCH  17  20
ENDBRANCH   3   9
BRANCH   1  22
ATOM     22  C   UNL     1     -28.087  29.270   6.069  0.00  0.00    +0.040 C 
ATOM     23  C   UNL     1     -26.959  29.779   5.108  0.00  0.00    +0.009 C 
ATOM     24  C   UNL     1     -27.828  30.021   7.417  0.00  0.00    +0.009 C 
BRANCH  22  25
ATOM     25  C   UNL     1     -27.816  27.753   6.188  0.00  0.00    -0.023 C 
ATOM     26  C   UNL     1     -27.462  27.052   7.273  0.00  0.00    -0.005 C 
ENDBRANCH  22  25
ENDBRANCH   1  22
BRANCH   4  27
ATOM     27  O   UNL     1     -28.992  31.842   5.220  0.00  0.00    -0.506 OA
ATOM     28  H   UNL     1     -29.280  32.707   5.001  0.00  0.00    +0.292 HD
ENDBRANCH   4  27
BRANCH   5  29
ATOM     29  O   UNL     1     -33.369  30.224   4.315  0.00  0.00    -0.505 OA
ATOM     30  H   UNL     1     -33.595  30.090   3.415  0.00  0.00    +0.292 HD
ENDBRANCH   5  29
TORSDOF 7
ENDMDL
