MODEL 1
REMARK VINA RESULT:      -5.8      0.000      0.000
REMARK  Name = 54109844
REMARK  9 active torsions:
REMARK  status: ('A' for Active; 'I' for Inactive)
REMARK    1  A    between atoms: N_1  and  N_3
REMARK    2  A    between atoms: C_2  and  C_10
REMARK    3  A    between atoms: C_2  and  C_18
REMARK    4  A    between atoms: N_3  and  C_6
REMARK    5  A    between atoms: C_6  and  N_7
REMARK    6  A    between atoms: C_10  and  C_11
REMARK    7  A    between atoms: C_11  and  C_14
REMARK    8  A    between atoms: C_18  and  C_19
REMARK    9  A    between atoms: C_19  and  C_22
REMARK                            x       y       z     vdW  Elec       q    Type
REMARK                         _______ _______ _______ _____ _____    ______ ____
ROOT
ATOM      1  N   UNL     1     -37.535  24.036   3.754  0.00  0.00    -0.189 NA
ATOM      2  C   UNL     1     -36.303  24.350   4.025  0.00  0.00    +0.055 C 
ENDROOT
BRANCH   1   3
ATOM      3  N   UNL     1     -38.516  24.901   4.077  0.00  0.00    -0.219 N 
ATOM      4  H   UNL     1     -38.408  25.495   4.855  0.00  0.00    +0.176 HD
BRANCH   3   6
ATOM      5  S   UNL     1     -39.920  23.942   2.034  0.00  0.00    -0.017 S 
ATOM      6  C   UNL     1     -39.666  24.965   3.330  0.00  0.00    +0.147 C 
BRANCH   6   7
ATOM      7  N   UNL     1     -40.591  25.906   3.694  0.00  0.00    -0.339 N 
ATOM      8  H   UNL     1     -41.550  25.736   3.548  0.00  0.00    +0.144 HD
ATOM      9  H   UNL     1     -40.298  26.753   4.103  0.00  0.00    +0.144 HD
ENDBRANCH   6   7
ENDBRANCH   3   6
ENDBRANCH   1   3
BRANCH   2  10
ATOM     10  C   UNL     1     -35.813  25.632   4.689  0.00  0.00    +0.048 C 
BRANCH  10  11
ATOM     11  C   UNL     1     -34.670  25.371   5.673  0.00  0.00    +0.039 C 
BRANCH  11  14
ATOM     12 BR   UNL     1     -31.094  29.660   4.258  0.00  0.00    -0.042 Br
ATOM     13  S   UNL     1     -33.236  27.305   4.278  0.00  0.00    -0.084 S 
ATOM     14  C   UNL     1     -33.649  26.479   5.721  0.00  0.00    +0.008 C 
ATOM     15  C   UNL     1     -32.954  26.959   6.809  0.00  0.00    +0.003 C 
ATOM     16  C   UNL     1     -32.071  28.020   6.454  0.00  0.00    +0.013 C 
ATOM     17  C   UNL     1     -32.124  28.309   5.108  0.00  0.00    +0.063 C 
ENDBRANCH  11  14
ENDBRANCH  10  11
ENDBRANCH   2  10
BRANCH   2  18
ATOM     18  C   UNL     1     -35.243  23.323   3.642  0.00  0.00    +0.048 C 
BRANCH  18  19
ATOM     19  C   UNL     1     -35.714  21.894   3.920  0.00  0.00    +0.039 C 
BRANCH  19  22
ATOM     20 BR   UNL     1     -37.265  19.162  -0.912  0.00  0.00    -0.042 Br
ATOM     21  S   UNL     1     -37.130  20.962   1.710  0.00  0.00    -0.084 S 
ATOM     22  C   UNL     1     -35.724  21.024   2.687  0.00  0.00    +0.008 C 
ATOM     23  C   UNL     1     -34.717  20.223   2.194  0.00  0.00    +0.003 C 
ATOM     24  C   UNL     1     -35.105  19.549   1.000  0.00  0.00    +0.013 C 
ATOM     25  C   UNL     1     -36.394  19.861   0.625  0.00  0.00    +0.063 C 
ENDBRANCH  19  22
ENDBRANCH  18  19
ENDBRANCH   2  18
TORSDOF 9
ENDMDL
MODEL 2
REMARK VINA RESULT:      -5.7      4.462      8.084
REMARK  Name = 54109844
REMARK  9 active torsions:
REMARK  status: ('A' for Active; 'I' for Inactive)
REMARK    1  A    between atoms: N_1  and  N_3
REMARK    2  A    between atoms: C_2  and  C_10
REMARK    3  A    between atoms: C_2  and  C_18
REMARK    4  A    between atoms: N_3  and  C_6
REMARK    5  A    between atoms: C_6  and  N_7
REMARK    6  A    between atoms: C_10  and  C_11
REMARK    7  A    between atoms: C_11  and  C_14
REMARK    8  A    between atoms: C_18  and  C_19
REMARK    9  A    between atoms: C_19  and  C_22
REMARK                            x       y       z     vdW  Elec       q    Type
REMARK                         _______ _______ _______ _____ _____    ______ ____
ROOT
ATOM      1  N   UNL     1     -32.990  27.992   4.826  0.00  0.00    -0.189 NA
ATOM      2  C   UNL     1     -33.947  27.116   4.754  0.00  0.00    +0.055 C 
ENDROOT
BRANCH   1   3
ATOM      3  N   UNL     1     -32.233  28.041   5.940  0.00  0.00    -0.219 N 
ATOM      4  H   UNL     1     -32.009  27.209   6.415  0.00  0.00    +0.176 HD
BRANCH   3   6
ATOM      5  S   UNL     1     -31.521  30.545   5.401  0.00  0.00    -0.017 S 
ATOM      6  C   UNL     1     -31.768  29.241   6.417  0.00  0.00    +0.147 C 
BRANCH   6   7
ATOM      7  N   UNL     1     -31.514  29.320   7.759  0.00  0.00    -0.339 N 
ATOM      8  H   UNL     1     -32.032  29.940   8.323  0.00  0.00    +0.144 HD
ATOM      9  H   UNL     1     -30.814  28.756   8.162  0.00  0.00    +0.144 HD
ENDBRANCH   6   7
ENDBRANCH   3   6
ENDBRANCH   1   3
BRANCH   2  10
ATOM     10  C   UNL     1     -34.332  26.094   5.817  0.00  0.00    +0.048 C 
BRANCH  10  11
ATOM     11  C   UNL     1     -35.684  25.438   5.525  0.00  0.00    +0.039 C 
BRANCH  11  14
ATOM     12 BR   UNL     1     -35.614  20.539   2.496  0.00  0.00    -0.042 Br
ATOM     13  S   UNL     1     -35.812  23.561   3.475  0.00  0.00    -0.084 S 
ATOM     14  C   UNL     1     -35.579  23.991   5.116  0.00  0.00    +0.008 C 
ATOM     15  C   UNL     1     -35.308  22.894   5.905  0.00  0.00    +0.003 C 
ATOM     16  C   UNL     1     -35.291  21.685   5.151  0.00  0.00    +0.013 C 
ATOM     17  C   UNL     1     -35.551  21.903   3.816  0.00  0.00    +0.063 C 
ENDBRANCH  11  14
ENDBRANCH  10  11
ENDBRANCH   2  10
BRANCH   2  18
ATOM     18  C   UNL     1     -34.772  27.120   3.470  0.00  0.00    +0.048 C 
BRANCH  18  19
ATOM     19  C   UNL     1     -34.198  28.085   2.433  0.00  0.00    +0.039 C 
BRANCH  19  22
ATOM     20 BR   UNL     1     -38.062  31.866   0.434  0.00  0.00    -0.042 Br
ATOM     21  S   UNL     1     -36.204  29.334   0.960  0.00  0.00    -0.084 S 
ATOM     22  C   UNL     1     -35.053  29.312   2.228  0.00  0.00    +0.008 C 
ATOM     23  C   UNL     1     -35.052  30.488   2.945  0.00  0.00    +0.003 C 
ATOM     24  C   UNL     1     -36.008  31.420   2.448  0.00  0.00    +0.013 C 
ATOM     25  C   UNL     1     -36.704  30.920   1.368  0.00  0.00    +0.063 C 
ENDBRANCH  19  22
ENDBRANCH  18  19
ENDBRANCH   2  18
TORSDOF 9
ENDMDL
MODEL 3
REMARK VINA RESULT:      -5.6      3.209      4.372
REMARK  Name = 54109844
REMARK  9 active torsions:
REMARK  status: ('A' for Active; 'I' for Inactive)
REMARK    1  A    between atoms: N_1  and  N_3
REMARK    2  A    between atoms: C_2  and  C_10
REMARK    3  A    between atoms: C_2  and  C_18
REMARK    4  A    between atoms: N_3  and  C_6
REMARK    5  A    between atoms: C_6  and  N_7
REMARK    6  A    between atoms: C_10  and  C_11
REMARK    7  A    between atoms: C_11  and  C_14
REMARK    8  A    between atoms: C_18  and  C_19
REMARK    9  A    between atoms: C_19  and  C_22
REMARK                            x       y       z     vdW  Elec       q    Type
REMARK                         _______ _______ _______ _____ _____    ______ ____
ROOT
ATOM      1  N   UNL     1     -35.077  27.388   3.606  0.00  0.00    -0.189 NA
ATOM      2  C   UNL     1     -33.984  26.909   4.119  0.00  0.00    +0.055 C 
ENDROOT
BRANCH   1   3
ATOM      3  N   UNL     1     -35.015  28.046   2.431  0.00  0.00    -0.219 N 
ATOM      4  H   UNL     1     -34.616  27.606   1.646  0.00  0.00    +0.176 HD
BRANCH   3   6
ATOM      5  S   UNL     1     -36.357  29.813   0.967  0.00  0.00    -0.017 S 
ATOM      6  C   UNL     1     -35.504  29.323   2.318  0.00  0.00    +0.147 C 
BRANCH   6   7
ATOM      7  N   UNL     1     -35.261  30.176   3.361  0.00  0.00    -0.339 N 
ATOM      8  H   UNL     1     -36.010  30.622   3.817  0.00  0.00    +0.144 HD
ATOM      9  H   UNL     1     -34.336  30.341   3.655  0.00  0.00    +0.144 HD
ENDBRANCH   6   7
ENDBRANCH   3   6
ENDBRANCH   1   3
BRANCH   2  10
ATOM     10  C   UNL     1     -32.581  27.003   3.529  0.00  0.00    +0.048 C 
BRANCH  10  11
ATOM     11  C   UNL     1     -32.043  28.436   3.546  0.00  0.00    +0.039 C 
BRANCH  11  14
ATOM     12 BR   UNL     1     -28.222  29.383   7.752  0.00  0.00    -0.042 Br
ATOM     13  S   UNL     1     -29.704  28.604   5.045  0.00  0.00    -0.084 S 
ATOM     14  C   UNL     1     -31.392  28.822   4.850  0.00  0.00    +0.008 C 
ATOM     15  C   UNL     1     -31.978  29.355   5.976  0.00  0.00    +0.003 C 
ATOM     16  C   UNL     1     -31.029  29.588   7.014  0.00  0.00    +0.013 C 
ATOM     17  C   UNL     1     -29.754  29.223   6.640  0.00  0.00    +0.063 C 
ENDBRANCH  11  14
ENDBRANCH  10  11
ENDBRANCH   2  10
BRANCH   2  18
ATOM     18  C   UNL     1     -34.123  26.185   5.454  0.00  0.00    +0.048 C 
BRANCH  18  19
ATOM     19  C   UNL     1     -35.478  25.486   5.579  0.00  0.00    +0.039 C 
BRANCH  19  22
ATOM     20 BR   UNL     1     -35.617  20.578   2.562  0.00  0.00    -0.042 Br
ATOM     21  S   UNL     1     -35.686  23.609   3.533  0.00  0.00    -0.084 S 
ATOM     22  C   UNL     1     -35.435  24.033   5.173  0.00  0.00    +0.008 C 
ATOM     23  C   UNL     1     -35.211  22.928   5.964  0.00  0.00    +0.003 C 
ATOM     24  C   UNL     1     -35.246  21.717   5.215  0.00  0.00    +0.013 C 
ATOM     25  C   UNL     1     -35.496  21.942   3.879  0.00  0.00    +0.063 C 
ENDBRANCH  19  22
ENDBRANCH  18  19
ENDBRANCH   2  18
TORSDOF 9
ENDMDL
MODEL 4
REMARK VINA RESULT:      -5.6      4.096      5.871
REMARK  Name = 54109844
REMARK  9 active torsions:
REMARK  status: ('A' for Active; 'I' for Inactive)
REMARK    1  A    between atoms: N_1  and  N_3
REMARK    2  A    between atoms: C_2  and  C_10
REMARK    3  A    between atoms: C_2  and  C_18
REMARK    4  A    between atoms: N_3  and  C_6
REMARK    5  A    between atoms: C_6  and  N_7
REMARK    6  A    between atoms: C_10  and  C_11
REMARK    7  A    between atoms: C_11  and  C_14
REMARK    8  A    between atoms: C_18  and  C_19
REMARK    9  A    between atoms: C_19  and  C_22
REMARK                            x       y       z     vdW  Elec       q    Type
REMARK                         _______ _______ _______ _____ _____    ______ ____
ROOT
ATOM      1  N   UNL     1     -32.869  27.362   5.840  0.00  0.00    -0.189 NA
ATOM      2  C   UNL     1     -33.250  27.099   4.626  0.00  0.00    +0.055 C 
ENDROOT
BRANCH   1   3
ATOM      3  N   UNL     1     -31.711  28.026   6.032  0.00  0.00    -0.219 N 
ATOM      4  H   UNL     1     -30.857  27.596   5.797  0.00  0.00    +0.176 HD
BRANCH   3   6
ATOM      5  S   UNL     1     -31.913  30.636   5.572  0.00  0.00    -0.017 S 
ATOM      6  C   UNL     1     -31.711  29.296   6.550  0.00  0.00    +0.147 C 
BRANCH   6   7
ATOM      7  N   UNL     1     -31.536  29.415   7.902  0.00  0.00    -0.339 N 
ATOM      8  H   UNL     1     -30.632  29.540   8.273  0.00  0.00    +0.144 HD
ATOM      9  H   UNL     1     -32.314  29.378   8.505  0.00  0.00    +0.144 HD
ENDBRANCH   6   7
ENDBRANCH   3   6
ENDBRANCH   1   3
BRANCH   2  10
ATOM     10  C   UNL     1     -32.519  27.465   3.339  0.00  0.00    +0.048 C 
BRANCH  10  11
ATOM     11  C   UNL     1     -33.482  27.896   2.231  0.00  0.00    +0.039 C 
BRANCH  11  14
ATOM     12 BR   UNL     1     -33.541  33.649   1.943  0.00  0.00    -0.042 Br
ATOM     13  S   UNL     1     -32.789  30.558   1.814  0.00  0.00    -0.084 S 
ATOM     14  C   UNL     1     -33.890  29.345   2.313  0.00  0.00    +0.008 C 
ATOM     15  C   UNL     1     -35.082  29.876   2.753  0.00  0.00    +0.003 C 
ATOM     16  C   UNL     1     -35.092  31.300   2.680  0.00  0.00    +0.013 C 
ATOM     17  C   UNL     1     -33.907  31.801   2.187  0.00  0.00    +0.063 C 
ENDBRANCH  11  14
ENDBRANCH  10  11
ENDBRANCH   2  10
BRANCH   2  18
ATOM     18  C   UNL     1     -34.563  26.337   4.479  0.00  0.00    +0.048 C 
BRANCH  18  19
ATOM     19  C   UNL     1     -34.793  25.378   5.648  0.00  0.00    +0.039 C 
BRANCH  19  22
ATOM     20 BR   UNL     1     -35.712  20.640   2.498  0.00  0.00    -0.042 Br
ATOM     21  S   UNL     1     -35.206  23.605   3.541  0.00  0.00    -0.084 S 
ATOM     22  C   UNL     1     -35.031  23.954   5.209  0.00  0.00    +0.008 C 
ATOM     23  C   UNL     1     -35.136  22.822   5.987  0.00  0.00    +0.003 C 
ATOM     24  C   UNL     1     -35.363  21.653   5.204  0.00  0.00    +0.013 C 
ATOM     25  C   UNL     1     -35.424  21.936   3.857  0.00  0.00    +0.063 C 
ENDBRANCH  19  22
ENDBRANCH  18  19
ENDBRANCH   2  18
TORSDOF 9
ENDMDL
MODEL 5
REMARK VINA RESULT:      -5.6      3.585      5.994
REMARK  Name = 54109844
REMARK  9 active torsions:
REMARK  status: ('A' for Active; 'I' for Inactive)
REMARK    1  A    between atoms: N_1  and  N_3
REMARK    2  A    between atoms: C_2  and  C_10
REMARK    3  A    between atoms: C_2  and  C_18
REMARK    4  A    between atoms: N_3  and  C_6
REMARK    5  A    between atoms: C_6  and  N_7
REMARK    6  A    between atoms: C_10  and  C_11
REMARK    7  A    between atoms: C_11  and  C_14
REMARK    8  A    between atoms: C_18  and  C_19
REMARK    9  A    between atoms: C_19  and  C_22
REMARK                            x       y       z     vdW  Elec       q    Type
REMARK                         _______ _______ _______ _____ _____    ______ ____
ROOT
ATOM      1  N   UNL     1     -36.107  23.014   4.617  0.00  0.00    -0.189 NA
ATOM      2  C   UNL     1     -36.293  22.432   3.470  0.00  0.00    +0.055 C 
ENDROOT
BRANCH   1   3
ATOM      3  N   UNL     1     -36.676  24.216   4.840  0.00  0.00    -0.219 N 
ATOM      4  H   UNL     1     -37.656  24.294   4.870  0.00  0.00    +0.176 HD
BRANCH   3   6
ATOM      5  S   UNL     1     -34.231  25.254   4.961  0.00  0.00    -0.017 S 
ATOM      6  C   UNL     1     -35.900  25.331   5.030  0.00  0.00    +0.147 C 
BRANCH   6   7
ATOM      7  N   UNL     1     -36.554  26.507   5.280  0.00  0.00    -0.339 N 
ATOM      8  H   UNL     1     -37.201  26.563   6.020  0.00  0.00    +0.144 HD
ATOM      9  H   UNL     1     -36.376  27.298   4.721  0.00  0.00    +0.144 HD
ENDBRANCH   6   7
ENDBRANCH   3   6
ENDBRANCH   1   3
BRANCH   2  10
ATOM     10  C   UNL     1     -37.112  22.964   2.298  0.00  0.00    +0.048 C 
BRANCH  10  11
ATOM     11  C   UNL     1     -38.591  22.587   2.410  0.00  0.00    +0.039 C 
BRANCH  11  14
ATOM     12 BR   UNL     1     -42.541  26.397   0.659  0.00  0.00    -0.042 Br
ATOM     13  S   UNL     1     -40.532  23.945   0.950  0.00  0.00    -0.084 S 
ATOM     14  C   UNL     1     -39.524  23.768   2.323  0.00  0.00    +0.008 C 
ATOM     15  C   UNL     1     -39.703  24.788   3.231  0.00  0.00    +0.003 C 
ATOM     16  C   UNL     1     -40.681  25.729   2.794  0.00  0.00    +0.013 C 
ATOM     17  C   UNL     1     -41.211  25.391   1.568  0.00  0.00    +0.063 C 
ENDBRANCH  11  14
ENDBRANCH  10  11
ENDBRANCH   2  10
BRANCH   2  18
ATOM     18  C   UNL     1     -35.614  21.079   3.278  0.00  0.00    +0.048 C 
BRANCH  18  19
ATOM     19  C   UNL     1     -35.663  20.625   1.819  0.00  0.00    +0.039 C 
BRANCH  19  22
ATOM     20 BR   UNL     1     -30.622  20.742  -0.972  0.00  0.00    -0.042 Br
ATOM     21  S   UNL     1     -33.488  21.385   0.254  0.00  0.00    -0.084 S 
ATOM     22  C   UNL     1     -34.305  20.269   1.264  0.00  0.00    +0.008 C 
ATOM     23  C   UNL     1     -33.576  19.115   1.455  0.00  0.00    +0.003 C 
ATOM     24  C   UNL     1     -32.331  19.148   0.763  0.00  0.00    +0.013 C 
ATOM     25  C   UNL     1     -32.156  20.326   0.070  0.00  0.00    +0.063 C 
ENDBRANCH  19  22
ENDBRANCH  18  19
ENDBRANCH   2  18
TORSDOF 9
ENDMDL
MODEL 6
REMARK VINA RESULT:      -5.5      1.023      7.485
REMARK  Name = 54109844
REMARK  9 active torsions:
REMARK  status: ('A' for Active; 'I' for Inactive)
REMARK    1  A    between atoms: N_1  and  N_3
REMARK    2  A    between atoms: C_2  and  C_10
REMARK    3  A    between atoms: C_2  and  C_18
REMARK    4  A    between atoms: N_3  and  C_6
REMARK    5  A    between atoms: C_6  and  N_7
REMARK    6  A    between atoms: C_10  and  C_11
REMARK    7  A    between atoms: C_11  and  C_14
REMARK    8  A    between atoms: C_18  and  C_19
REMARK    9  A    between atoms: C_19  and  C_22
REMARK                            x       y       z     vdW  Elec       q    Type
REMARK                         _______ _______ _______ _____ _____    ______ ____
ROOT
ATOM      1  N   UNL     1     -37.021  24.893   4.507  0.00  0.00    -0.189 NA
ATOM      2  C   UNL     1     -36.108  23.982   4.355  0.00  0.00    +0.055 C 
ENDROOT
BRANCH   1   3
ATOM      3  N   UNL     1     -38.244  24.688   3.977  0.00  0.00    -0.219 N 
ATOM      4  H   UNL     1     -38.740  23.867   4.198  0.00  0.00    +0.176 HD
BRANCH   3   6
ATOM      5  S   UNL     1     -37.956  26.239   1.837  0.00  0.00    -0.017 S 
ATOM      6  C   UNL     1     -38.805  25.614   3.134  0.00  0.00    +0.147 C 
BRANCH   6   7
ATOM      7  N   UNL     1     -40.089  26.003   3.405  0.00  0.00    -0.339 N 
ATOM      8  H   UNL     1     -40.569  26.588   2.776  0.00  0.00    +0.144 HD
ATOM      9  H   UNL     1     -40.533  25.696   4.229  0.00  0.00    +0.144 HD
ENDBRANCH   6   7
ENDBRANCH   3   6
ENDBRANCH   1   3
BRANCH   2  10
ATOM     10  C   UNL     1     -36.256  22.653   3.623  0.00  0.00    +0.048 C 
BRANCH  10  11
ATOM     11  C   UNL     1     -35.279  22.526   2.452  0.00  0.00    +0.039 C 
BRANCH  11  14
ATOM     12 BR   UNL     1     -37.326  17.936  -0.364  0.00  0.00    -0.042 Br
ATOM     13  S   UNL     1     -36.948  20.669   1.225  0.00  0.00    -0.084 S 
ATOM     14  C   UNL     1     -35.400  21.224   1.702  0.00  0.00    +0.008 C 
ATOM     15  C   UNL     1     -34.399  20.359   1.317  0.00  0.00    +0.003 C 
ATOM     16  C   UNL     1     -34.910  19.225   0.621  0.00  0.00    +0.013 C 
ATOM     17  C   UNL     1     -36.282  19.267   0.501  0.00  0.00    +0.063 C 
ENDBRANCH  11  14
ENDBRANCH  10  11
ENDBRANCH   2  10
BRANCH   2  18
ATOM     18  C   UNL     1     -34.744  24.281   4.970  0.00  0.00    +0.048 C 
BRANCH  18  19
ATOM     19  C   UNL     1     -34.825  25.409   6.000  0.00  0.00    +0.039 C 
BRANCH  19  22
ATOM     20 BR   UNL     1     -31.175  29.269   3.765  0.00  0.00    -0.042 Br
ATOM     21  S   UNL     1     -33.422  27.068   4.258  0.00  0.00    -0.084 S 
ATOM     22  C   UNL     1     -33.748  26.452   5.823  0.00  0.00    +0.008 C 
ATOM     23  C   UNL     1     -32.938  27.020   6.781  0.00  0.00    +0.003 C 
ATOM     24  C   UNL     1     -32.037  27.974   6.224  0.00  0.00    +0.013 C 
ATOM     25  C   UNL     1     -32.193  28.098   4.861  0.00  0.00    +0.063 C 
ENDBRANCH  19  22
ENDBRANCH  18  19
ENDBRANCH   2  18
TORSDOF 9
ENDMDL
MODEL 7
REMARK VINA RESULT:      -5.5      2.242      6.613
REMARK  Name = 54109844
REMARK  9 active torsions:
REMARK  status: ('A' for Active; 'I' for Inactive)
REMARK    1  A    between atoms: N_1  and  N_3
REMARK    2  A    between atoms: C_2  and  C_10
REMARK    3  A    between atoms: C_2  and  C_18
REMARK    4  A    between atoms: N_3  and  C_6
REMARK    5  A    between atoms: C_6  and  N_7
REMARK    6  A    between atoms: C_10  and  C_11
REMARK    7  A    between atoms: C_11  and  C_14
REMARK    8  A    between atoms: C_18  and  C_19
REMARK    9  A    between atoms: C_19  and  C_22
REMARK                            x       y       z     vdW  Elec       q    Type
REMARK                         _______ _______ _______ _____ _____    ______ ____
ROOT
ATOM      1  N   UNL     1     -37.485  23.682   3.898  0.00  0.00    -0.189 NA
ATOM      2  C   UNL     1     -36.614  22.805   3.497  0.00  0.00    +0.055 C 
ENDROOT
BRANCH   1   3
ATOM      3  N   UNL     1     -38.597  23.883   3.163  0.00  0.00    -0.219 N 
ATOM      4  H   UNL     1     -39.225  23.140   3.015  0.00  0.00    +0.176 HD
BRANCH   3   6
ATOM      5  S   UNL     1     -38.906  25.346   0.965  0.00  0.00    -0.017 S 
ATOM      6  C   UNL     1     -38.863  25.114   2.620  0.00  0.00    +0.147 C 
BRANCH   6   7
ATOM      7  N   UNL     1     -39.089  26.143   3.494  0.00  0.00    -0.339 N 
ATOM      8  H   UNL     1     -39.504  25.963   4.369  0.00  0.00    +0.144 HD
ATOM      9  H   UNL     1     -38.835  27.062   3.249  0.00  0.00    +0.144 HD
ENDBRANCH   6   7
ENDBRANCH   3   6
ENDBRANCH   1   3
BRANCH   2  10
ATOM     10  C   UNL     1     -36.701  21.937   2.246  0.00  0.00    +0.048 C 
BRANCH  10  11
ATOM     11  C   UNL     1     -35.565  22.226   1.263  0.00  0.00    +0.039 C 
BRANCH  11  14
ATOM     12 BR   UNL     1     -31.002  19.010  -0.161  0.00  0.00    -0.042 Br
ATOM     13  S   UNL     1     -33.195  21.299   0.138  0.00  0.00    -0.084 S 
ATOM     14  C   UNL     1     -34.557  21.110   1.159  0.00  0.00    +0.008 C 
ATOM     15  C   UNL     1     -34.561  19.889   1.795  0.00  0.00    +0.003 C 
ATOM     16  C   UNL     1     -33.431  19.096   1.440  0.00  0.00    +0.013 C 
ATOM     17  C   UNL     1     -32.606  19.743   0.545  0.00  0.00    +0.063 C 
ENDBRANCH  11  14
ENDBRANCH  10  11
ENDBRANCH   2  10
BRANCH   2  18
ATOM     18  C   UNL     1     -35.374  22.635   4.369  0.00  0.00    +0.048 C 
BRANCH  18  19
ATOM     19  C   UNL     1     -35.184  23.820   5.317  0.00  0.00    +0.039 C 
BRANCH  19  22
ATOM     20 BR   UNL     1     -32.212  28.691   4.512  0.00  0.00    -0.042 Br
ATOM     21  S   UNL     1     -33.912  26.269   5.686  0.00  0.00    -0.084 S 
ATOM     22  C   UNL     1     -34.378  24.941   4.709  0.00  0.00    +0.008 C 
ATOM     23  C   UNL     1     -33.930  25.071   3.413  0.00  0.00    +0.003 C 
ATOM     24  C   UNL     1     -33.196  26.277   3.218  0.00  0.00    +0.013 C 
ATOM     25  C   UNL     1     -33.111  27.023   4.373  0.00  0.00    +0.063 C 
ENDBRANCH  19  22
ENDBRANCH  18  19
ENDBRANCH   2  18
TORSDOF 9
ENDMDL
MODEL 8
REMARK VINA RESULT:      -5.5      2.663      3.046
REMARK  Name = 54109844
REMARK  9 active torsions:
REMARK  status: ('A' for Active; 'I' for Inactive)
REMARK    1  A    between atoms: N_1  and  N_3
REMARK    2  A    between atoms: C_2  and  C_10
REMARK    3  A    between atoms: C_2  and  C_18
REMARK    4  A    between atoms: N_3  and  C_6
REMARK    5  A    between atoms: C_6  and  N_7
REMARK    6  A    between atoms: C_10  and  C_11
REMARK    7  A    between atoms: C_11  and  C_14
REMARK    8  A    between atoms: C_18  and  C_19
REMARK    9  A    between atoms: C_19  and  C_22
REMARK                            x       y       z     vdW  Elec       q    Type
REMARK                         _______ _______ _______ _____ _____    ______ ____
ROOT
ATOM      1  N   UNL     1     -37.287  23.358   3.556  0.00  0.00    -0.189 NA
ATOM      2  C   UNL     1     -36.207  22.905   4.118  0.00  0.00    +0.055 C 
ENDROOT
BRANCH   1   3
ATOM      3  N   UNL     1     -37.883  24.452   4.072  0.00  0.00    -0.219 N 
ATOM      4  H   UNL     1     -37.689  24.722   4.998  0.00  0.00    +0.176 HD
BRANCH   3   6
ATOM      5  S   UNL     1     -38.251  25.994   1.938  0.00  0.00    -0.017 S 
ATOM      6  C   UNL     1     -38.755  25.194   3.316  0.00  0.00    +0.147 C 
BRANCH   6   7
ATOM      7  N   UNL     1     -40.054  25.251   3.744  0.00  0.00    -0.339 N 
ATOM      8  H   UNL     1     -40.396  24.573   4.371  0.00  0.00    +0.144 HD
ATOM      9  H   UNL     1     -40.646  25.971   3.426  0.00  0.00    +0.144 HD
ENDBRANCH   6   7
ENDBRANCH   3   6
ENDBRANCH   1   3
BRANCH   2  10
ATOM     10  C   UNL     1     -35.500  23.484   5.338  0.00  0.00    +0.048 C 
BRANCH  10  11
ATOM     11  C   UNL     1     -34.160  24.129   4.977  0.00  0.00    +0.039 C 
BRANCH  11  14
ATOM     12 BR   UNL     1     -35.281  28.991   2.097  0.00  0.00    -0.042 Br
ATOM     13  S   UNL     1     -35.002  26.687   4.276  0.00  0.00    -0.084 S 
ATOM     14  C   UNL     1     -34.266  25.185   3.906  0.00  0.00    +0.008 C 
ATOM     15  C   UNL     1     -33.838  25.127   2.599  0.00  0.00    +0.003 C 
ATOM     16  C   UNL     1     -34.118  26.332   1.890  0.00  0.00    +0.013 C 
ATOM     17  C   UNL     1     -34.749  27.264   2.684  0.00  0.00    +0.063 C 
ENDBRANCH  11  14
ENDBRANCH  10  11
ENDBRANCH   2  10
BRANCH   2  18
ATOM     18  C   UNL     1     -35.589  21.659   3.491  0.00  0.00    +0.048 C 
BRANCH  18  19
ATOM     19  C   UNL     1     -35.742  21.658   1.969  0.00  0.00    +0.039 C 
BRANCH  19  22
ATOM     20 BR   UNL     1     -31.353  18.455   0.047  0.00  0.00    -0.042 Br
ATOM     21  S   UNL     1     -33.948  19.578   1.509  0.00  0.00    -0.084 S 
ATOM     22  C   UNL     1     -34.505  21.177   1.250  0.00  0.00    +0.008 C 
ATOM     23  C   UNL     1     -33.706  21.864   0.363  0.00  0.00    +0.003 C 
ATOM     24  C   UNL     1     -32.623  21.069  -0.110  0.00  0.00    +0.013 C 
ATOM     25  C   UNL     1     -32.634  19.803   0.434  0.00  0.00    +0.063 C 
ENDBRANCH  19  22
ENDBRANCH  18  19
ENDBRANCH   2  18
TORSDOF 9
ENDMDL
MODEL 9
REMARK VINA RESULT:      -5.3      4.543      6.218
REMARK  Name = 54109844
REMARK  9 active torsions:
REMARK  status: ('A' for Active; 'I' for Inactive)
REMARK    1  A    between atoms: N_1  and  N_3
REMARK    2  A    between atoms: C_2  and  C_10
REMARK    3  A    between atoms: C_2  and  C_18
REMARK    4  A    between atoms: N_3  and  C_6
REMARK    5  A    between atoms: C_6  and  N_7
REMARK    6  A    between atoms: C_10  and  C_11
REMARK    7  A    between atoms: C_11  and  C_14
REMARK    8  A    between atoms: C_18  and  C_19
REMARK    9  A    between atoms: C_19  and  C_22
REMARK                            x       y       z     vdW  Elec       q    Type
REMARK                         _______ _______ _______ _____ _____    ______ ____
ROOT
ATOM      1  N   UNL     1     -35.960  19.176   0.378  0.00  0.00    -0.189 NA
ATOM      2  C   UNL     1     -35.562  19.879   1.396  0.00  0.00    +0.055 C 
ENDROOT
BRANCH   1   3
ATOM      3  N   UNL     1     -37.276  18.922   0.233  0.00  0.00    -0.219 N 
ATOM      4  H   UNL     1     -37.936  19.605   0.490  0.00  0.00    +0.176 HD
BRANCH   3   6
ATOM      5  S   UNL     1     -38.518  17.627  -1.728  0.00  0.00    -0.017 S 
ATOM      6  C   UNL     1     -37.704  17.720  -0.272  0.00  0.00    +0.147 C 
BRANCH   6   7
ATOM      7  N   UNL     1     -37.436  16.603   0.473  0.00  0.00    -0.339 N 
ATOM      8  H   UNL     1     -37.133  16.694   1.405  0.00  0.00    +0.144 HD
ATOM      9  H   UNL     1     -37.548  15.708   0.076  0.00  0.00    +0.144 HD
ENDBRANCH   6   7
ENDBRANCH   3   6
ENDBRANCH   1   3
BRANCH   2  10
ATOM     10  C   UNL     1     -36.439  20.478   2.490  0.00  0.00    +0.048 C 
BRANCH  10  11
ATOM     11  C   UNL     1     -36.536  22.002   2.382  0.00  0.00    +0.039 C 
BRANCH  11  14
ATOM     12 BR   UNL     1     -34.111  26.007   5.738  0.00  0.00    -0.042 Br
ATOM     13  S   UNL     1     -35.439  24.367   3.355  0.00  0.00    -0.084 S 
ATOM     14  C   UNL     1     -35.911  22.731   3.544  0.00  0.00    +0.008 C 
ATOM     15  C   UNL     1     -35.644  22.259   4.810  0.00  0.00    +0.003 C 
ATOM     16  C   UNL     1     -35.044  23.253   5.637  0.00  0.00    +0.013 C 
ATOM     17  C   UNL     1     -34.875  24.447   4.970  0.00  0.00    +0.063 C 
ENDBRANCH  11  14
ENDBRANCH  10  11
ENDBRANCH   2  10
BRANCH   2  18
ATOM     18  C   UNL     1     -34.060  20.121   1.506  0.00  0.00    +0.048 C 
BRANCH  18  19
ATOM     19  C   UNL     1     -33.263  18.838   1.270  0.00  0.00    +0.039 C 
BRANCH  19  22
ATOM     20 BR   UNL     1     -27.833  18.302  -0.587  0.00  0.00    -0.042 Br
ATOM     21  S   UNL     1     -30.698  17.892   0.740  0.00  0.00    -0.084 S 
ATOM     22  C   UNL     1     -31.922  19.084   0.622  0.00  0.00    +0.008 C 
ATOM     23  C   UNL     1     -31.504  20.185  -0.094  0.00  0.00    +0.003 C 
ATOM     24  C   UNL     1     -30.161  20.048  -0.551  0.00  0.00    +0.013 C 
ATOM     25  C   UNL     1     -29.604  18.848  -0.167  0.00  0.00    +0.063 C 
ENDBRANCH  19  22
ENDBRANCH  18  19
ENDBRANCH   2  18
TORSDOF 9
ENDMDL
