MODEL 1
REMARK VINA RESULT:      -6.8      0.000      0.000
REMARK  Name = 56841147
REMARK  8 active torsions:
REMARK  status: ('A' for Active; 'I' for Inactive)
REMARK    1  A    between atoms: C_6  and  C_25
REMARK    2  A    between atoms: C_13  and  O_21
REMARK    3  A    between atoms: C_14  and  O_23
REMARK    4  A    between atoms: C_25  and  C_28
REMARK    5  A    between atoms: C_25  and  C_37
REMARK    6  A    between atoms: C_32  and  C_34
REMARK    7  A    between atoms: C_34  and  O_35
REMARK    8  A    between atoms: C_37  and  O_38
REMARK                            x       y       z     vdW  Elec       q    Type
REMARK                         _______ _______ _______ _____ _____    ______ ____
ROOT
ATOM      1  O   UNL     1     -30.271  28.875   6.783  0.00  0.00    -0.291 OA
ATOM      2  C   UNL     1     -33.915  26.100   3.925  0.00  0.00    +0.000 C 
ATOM      3  C   UNL     1     -32.832  26.451   2.882  0.00  0.00    +0.000 C 
ATOM      4  C   UNL     1     -32.350  27.903   2.987  0.00  0.00    +0.003 C 
ATOM      5  C   UNL     1     -31.715  28.113   4.407  0.00  0.00    +0.009 C 
ATOM      6  C   UNL     1     -34.183  24.630   3.517  0.00  0.00    +0.006 C 
ATOM      7  C   UNL     1     -31.107  29.560   4.574  0.00  0.00    +0.080 C 
ATOM      8  C   UNL     1     -33.300  26.281   5.319  0.00  0.00    +0.000 C 
ATOM      9  C   UNL     1     -33.426  25.948   1.570  0.00  0.00    +0.000 C 
ATOM     10  C   UNL     1     -32.738  27.703   5.508  0.00  0.00    +0.001 C 
ATOM     11  C   UNL     1     -34.200  24.679   1.971  0.00  0.00    +0.000 C 
ATOM     12  C   UNL     1     -31.370  28.245   1.856  0.00  0.00    +0.032 C 
ATOM     13  C   UNL     1     -30.143  29.866   3.370  0.00  0.00    +0.123 C 
ATOM     14  C   UNL     1     -30.802  29.659   1.989  0.00  0.00    +0.136 C 
ATOM     15  C   UNL     1     -35.206  26.950   3.810  0.00  0.00    +0.000 C 
ATOM     16  C   UNL     1     -32.237  30.604   4.744  0.00  0.00    +0.010 C 
ATOM     17  C   UNL     1     -29.496  31.264   3.488  0.00  0.00    +0.056 C 
ATOM     18  C   UNL     1     -30.221  29.665   5.844  0.00  0.00    +0.174 C 
ATOM     19  C   UNL     1     -28.979  31.543   4.870  0.00  0.00    -0.021 C 
ATOM     20  C   UNL     1     -29.279  30.815   5.951  0.00  0.00    +0.033 C 
ENDROOT
BRANCH  13  21
ATOM     21  O   UNL     1     -29.012  28.960   3.412  0.00  0.00    -0.384 OA
ATOM     22  H   UNL     1     -29.310  28.062   3.202  0.00  0.00    +0.210 HD
ENDBRANCH  13  21
BRANCH  14  23
ATOM     23  O   UNL     1     -31.847  30.592   1.740  0.00  0.00    -0.382 OA
ATOM     24  H   UNL     1     -31.533  31.270   1.123  0.00  0.00    +0.210 HD
ENDBRANCH  14  23
BRANCH   6  25
ATOM     25  C   UNL     1     -35.425  23.974   4.103  0.00  0.00    +0.070 C 
BRANCH  25  28
ATOM     26  O   UNL     1     -37.630  23.550   3.275  0.00  0.00    -0.449 OA
ATOM     27  O   UNL     1     -39.755  23.262   2.578  0.00  0.00    -0.245 OA
ATOM     28  C   UNL     1     -36.239  23.297   3.011  0.00  0.00    +0.175 C 
ATOM     29  C   UNL     1     -35.992  21.799   2.977  0.00  0.00    +0.066 C 
ATOM     30  C   UNL     1     -36.941  21.165   1.998  0.00  0.00    -0.036 C 
ATOM     31  C   UNL     1     -38.582  22.902   2.554  0.00  0.00    +0.339 C 
ATOM     32  C   UNL     1     -38.148  21.717   1.757  0.00  0.00    +0.075 C 
ATOM     33  C   UNL     1     -36.427  19.902   1.366  0.00  0.00    +0.026 C 
BRANCH  32  34
ATOM     34  C   UNL     1     -39.158  21.210   0.768  0.00  0.00    +0.169 C 
BRANCH  34  35
ATOM     35  O   UNL     1     -40.345  20.846   1.446  0.00  0.00    -0.377 OA
ATOM     36  H   UNL     1     -40.970  21.588   1.425  0.00  0.00    +0.211 HD
ENDBRANCH  34  35
ENDBRANCH  32  34
ENDBRANCH  25  28
BRANCH  25  37
ATOM     37  C   UNL     1     -35.066  22.960   5.198  0.00  0.00    +0.141 C 
BRANCH  37  38
ATOM     38  O   UNL     1     -36.245  22.543   5.873  0.00  0.00    -0.382 OA
ATOM     39  H   UNL     1     -36.927  22.316   5.222  0.00  0.00    +0.210 HD
ENDBRANCH  37  38
ENDBRANCH  25  37
ENDBRANCH   6  25
TORSDOF 8
ENDMDL
MODEL 2
REMARK VINA RESULT:      -6.6      1.484      1.726
REMARK  Name = 56841147
REMARK  8 active torsions:
REMARK  status: ('A' for Active; 'I' for Inactive)
REMARK    1  A    between atoms: C_6  and  C_25
REMARK    2  A    between atoms: C_13  and  O_21
REMARK    3  A    between atoms: C_14  and  O_23
REMARK    4  A    between atoms: C_25  and  C_28
REMARK    5  A    between atoms: C_25  and  C_37
REMARK    6  A    between atoms: C_32  and  C_34
REMARK    7  A    between atoms: C_34  and  O_35
REMARK    8  A    between atoms: C_37  and  O_38
REMARK                            x       y       z     vdW  Elec       q    Type
REMARK                         _______ _______ _______ _____ _____    ______ ____
ROOT
ATOM      1  O   UNL     1     -29.585  29.301   7.131  0.00  0.00    -0.291 OA
ATOM      2  C   UNL     1     -33.185  27.192   3.703  0.00  0.00    +0.000 C 
ATOM      3  C   UNL     1     -31.834  26.962   2.992  0.00  0.00    +0.000 C 
ATOM      4  C   UNL     1     -30.913  28.188   3.047  0.00  0.00    +0.003 C 
ATOM      5  C   UNL     1     -30.599  28.504   4.552  0.00  0.00    +0.009 C 
ATOM      6  C   UNL     1     -33.846  25.819   3.427  0.00  0.00    +0.006 C 
ATOM      7  C   UNL     1     -29.581  29.701   4.704  0.00  0.00    +0.080 C 
ATOM      8  C   UNL     1     -32.893  27.482   5.181  0.00  0.00    +0.000 C 
ATOM      9  C   UNL     1     -32.238  26.385   1.638  0.00  0.00    +0.000 C 
ATOM     10  C   UNL     1     -31.931  28.674   5.343  0.00  0.00    +0.001 C 
ATOM     11  C   UNL     1     -33.479  25.529   1.952  0.00  0.00    +0.000 C 
ATOM     12  C   UNL     1     -29.638  27.961   2.223  0.00  0.00    +0.032 C 
ATOM     13  C   UNL     1     -28.317  29.429   3.810  0.00  0.00    +0.123 C 
ATOM     14  C   UNL     1     -28.660  29.131   2.335  0.00  0.00    +0.136 C 
ATOM     15  C   UNL     1     -34.030  28.344   3.102  0.00  0.00    +0.000 C 
ATOM     16  C   UNL     1     -30.281  31.047   4.396  0.00  0.00    +0.010 C 
ATOM     17  C   UNL     1     -27.268  30.558   3.935  0.00  0.00    +0.056 C 
ATOM     18  C   UNL     1     -29.041  29.812   6.155  0.00  0.00    +0.174 C 
ATOM     19  C   UNL     1     -27.029  30.966   5.360  0.00  0.00    -0.021 C 
ATOM     20  C   UNL     1     -27.811  30.619   6.387  0.00  0.00    +0.033 C 
ENDROOT
BRANCH  13  21
ATOM     21  O   UNL     1     -27.618  28.258   4.302  0.00  0.00    -0.384 OA
ATOM     22  H   UNL     1     -26.673  28.456   4.384  0.00  0.00    +0.210 HD
ENDBRANCH  13  21
BRANCH  14  23
ATOM     23  O   UNL     1     -29.221  30.256   1.670  0.00  0.00    -0.382 OA
ATOM     24  H   UNL     1     -29.052  30.186   0.718  0.00  0.00    +0.210 HD
ENDBRANCH  14  23
BRANCH   6  25
ATOM     25  C   UNL     1     -35.339  25.713   3.698  0.00  0.00    +0.070 C 
BRANCH  25  28
ATOM     26  O   UNL     1     -37.371  24.652   3.009  0.00  0.00    -0.449 OA
ATOM     27  O   UNL     1     -39.355  23.778   2.388  0.00  0.00    -0.245 OA
ATOM     28  C   UNL     1     -35.939  24.538   2.939  0.00  0.00    +0.175 C 
ATOM     29  C   UNL     1     -35.505  23.209   3.532  0.00  0.00    +0.066 C 
ATOM     30  C   UNL     1     -36.255  22.098   2.852  0.00  0.00    -0.036 C 
ATOM     31  C   UNL     1     -38.150  23.629   2.570  0.00  0.00    +0.339 C 
ATOM     32  C   UNL     1     -37.488  22.310   2.348  0.00  0.00    +0.075 C 
ATOM     33  C   UNL     1     -35.521  20.786   2.816  0.00  0.00    +0.026 C 
BRANCH  32  34
ATOM     34  C   UNL     1     -38.314  21.300   1.605  0.00  0.00    +0.169 C 
BRANCH  34  35
ATOM     35  O   UNL     1     -39.441  20.944   2.381  0.00  0.00    -0.377 OA
ATOM     36  H   UNL     1     -39.420  21.427   3.222  0.00  0.00    +0.211 HD
ENDBRANCH  34  35
ENDBRANCH  32  34
ENDBRANCH  25  28
BRANCH  25  37
ATOM     37  C   UNL     1     -35.634  25.576   5.198  0.00  0.00    +0.141 C 
BRANCH  37  38
ATOM     38  O   UNL     1     -36.683  26.463   5.565  0.00  0.00    -0.382 OA
ATOM     39  H   UNL     1     -37.535  26.013   5.464  0.00  0.00    +0.210 HD
ENDBRANCH  37  38
ENDBRANCH  25  37
ENDBRANCH   6  25
TORSDOF 8
ENDMDL
MODEL 3
REMARK VINA RESULT:      -6.5      3.303      6.088
REMARK  Name = 56841147
REMARK  8 active torsions:
REMARK  status: ('A' for Active; 'I' for Inactive)
REMARK    1  A    between atoms: C_6  and  C_25
REMARK    2  A    between atoms: C_13  and  O_21
REMARK    3  A    between atoms: C_14  and  O_23
REMARK    4  A    between atoms: C_25  and  C_28
REMARK    5  A    between atoms: C_25  and  C_37
REMARK    6  A    between atoms: C_32  and  C_34
REMARK    7  A    between atoms: C_34  and  O_35
REMARK    8  A    between atoms: C_37  and  O_38
REMARK                            x       y       z     vdW  Elec       q    Type
REMARK                         _______ _______ _______ _____ _____    ______ ____
ROOT
ATOM      1  O   UNL     1     -37.144  28.099   1.281  0.00  0.00    -0.291 OA
ATOM      2  C   UNL     1     -36.519  22.756   0.824  0.00  0.00    +0.000 C 
ATOM      3  C   UNL     1     -35.960  23.064   2.230  0.00  0.00    +0.000 C 
ATOM      4  C   UNL     1     -35.060  24.306   2.256  0.00  0.00    +0.003 C 
ATOM      5  C   UNL     1     -35.914  25.546   1.813  0.00  0.00    +0.009 C 
ATOM      6  C   UNL     1     -37.317  21.470   1.152  0.00  0.00    +0.006 C 
ATOM      7  C   UNL     1     -35.092  26.890   1.896  0.00  0.00    +0.080 C 
ATOM      8  C   UNL     1     -37.373  23.952   0.387  0.00  0.00    +0.000 C 
ATOM      9  C   UNL     1     -35.402  21.721   2.693  0.00  0.00    +0.000 C 
ATOM     10  C   UNL     1     -36.569  25.266   0.427  0.00  0.00    +0.001 C 
ATOM     11  C   UNL     1     -36.372  20.686   2.094  0.00  0.00    +0.000 C 
ATOM     12  C   UNL     1     -34.426  24.502   3.640  0.00  0.00    +0.032 C 
ATOM     13  C   UNL     1     -34.438  27.016   3.321  0.00  0.00    +0.123 C 
ATOM     14  C   UNL     1     -33.598  25.786   3.722  0.00  0.00    +0.136 C 
ATOM     15  C   UNL     1     -35.431  22.474  -0.244  0.00  0.00    +0.000 C 
ATOM     16  C   UNL     1     -34.071  26.972   0.736  0.00  0.00    +0.010 C 
ATOM     17  C   UNL     1     -33.637  28.328   3.474  0.00  0.00    +0.056 C 
ATOM     18  C   UNL     1     -36.011  28.133   1.756  0.00  0.00    +0.174 C 
ATOM     19  C   UNL     1     -34.382  29.522   2.951  0.00  0.00    -0.021 C 
ATOM     20  C   UNL     1     -35.477  29.455   2.187  0.00  0.00    +0.033 C 
ENDROOT
BRANCH  13  21
ATOM     21  O   UNL     1     -35.479  27.132   4.323  0.00  0.00    -0.384 OA
ATOM     22  H   UNL     1     -36.226  26.563   4.081  0.00  0.00    +0.210 HD
ENDBRANCH  13  21
BRANCH  14  23
ATOM     23  O   UNL     1     -32.441  25.630   2.909  0.00  0.00    -0.382 OA
ATOM     24  H   UNL     1     -31.769  25.129   3.397  0.00  0.00    +0.210 HD
ENDBRANCH  14  23
BRANCH   6  25
ATOM     25  C   UNL     1     -37.794  20.641  -0.032  0.00  0.00    +0.070 C 
BRANCH  25  28
ATOM     26  O   UNL     1     -36.028  19.145  -0.640  0.00  0.00    -0.449 OA
ATOM     27  O   UNL     1     -34.281  17.852  -1.242  0.00  0.00    -0.245 OA
ATOM     28  C   UNL     1     -37.277  19.214   0.070  0.00  0.00    +0.175 C 
ATOM     29  C   UNL     1     -38.258  18.221  -0.528  0.00  0.00    +0.066 C 
ATOM     30  C   UNL     1     -37.625  16.856  -0.551  0.00  0.00    -0.036 C 
ATOM     31  C   UNL     1     -35.445  17.938  -0.862  0.00  0.00    +0.339 C 
ATOM     32  C   UNL     1     -36.287  16.723  -0.655  0.00  0.00    +0.075 C 
ATOM     33  C   UNL     1     -38.603  15.718  -0.468  0.00  0.00    +0.026 C 
BRANCH  32  34
ATOM     34  C   UNL     1     -35.535  15.423  -0.638  0.00  0.00    +0.169 C 
BRANCH  34  35
ATOM     35  O   UNL     1     -34.578  15.442   0.404  0.00  0.00    -0.377 OA
ATOM     36  H   UNL     1     -34.026  16.235   0.321  0.00  0.00    +0.211 HD
ENDBRANCH  34  35
ENDBRANCH  32  34
ENDBRANCH  25  28
BRANCH  25  37
ATOM     37  C   UNL     1     -39.325  20.640  -0.140  0.00  0.00    +0.141 C 
BRANCH  37  38
ATOM     38  O   UNL     1     -39.899  20.826   1.147  0.00  0.00    -0.382 OA
ATOM     39  H   UNL     1     -39.362  21.456   1.651  0.00  0.00    +0.210 HD
ENDBRANCH  37  38
ENDBRANCH  25  37
ENDBRANCH   6  25
TORSDOF 8
ENDMDL
MODEL 4
REMARK VINA RESULT:      -6.5      6.280      8.551
REMARK  Name = 56841147
REMARK  8 active torsions:
REMARK  status: ('A' for Active; 'I' for Inactive)
REMARK    1  A    between atoms: C_6  and  C_25
REMARK    2  A    between atoms: C_13  and  O_21
REMARK    3  A    between atoms: C_14  and  O_23
REMARK    4  A    between atoms: C_25  and  C_28
REMARK    5  A    between atoms: C_25  and  C_37
REMARK    6  A    between atoms: C_32  and  C_34
REMARK    7  A    between atoms: C_34  and  O_35
REMARK    8  A    between atoms: C_37  and  O_38
REMARK                            x       y       z     vdW  Elec       q    Type
REMARK                         _______ _______ _______ _____ _____    ______ ____
ROOT
ATOM      1  O   UNL     1     -41.624  27.883   4.309  0.00  0.00    -0.291 OA
ATOM      2  C   UNL     1     -38.782  23.916   1.998  0.00  0.00    +0.000 C 
ATOM      3  C   UNL     1     -38.909  24.969   0.875  0.00  0.00    +0.000 C 
ATOM      4  C   UNL     1     -40.322  25.557   0.764  0.00  0.00    +0.003 C 
ATOM      5  C   UNL     1     -40.668  26.274   2.116  0.00  0.00    +0.009 C 
ATOM      6  C   UNL     1     -37.296  23.526   1.803  0.00  0.00    +0.006 C 
ATOM      7  C   UNL     1     -42.073  26.989   2.062  0.00  0.00    +0.080 C 
ATOM      8  C   UNL     1     -39.098  24.611   3.328  0.00  0.00    +0.000 C 
ATOM      9  C   UNL     1     -38.285  24.277  -0.333  0.00  0.00    +0.000 C 
ATOM     10  C   UNL     1     -40.486  25.280   3.302  0.00  0.00    +0.001 C 
ATOM     11  C   UNL     1     -37.143  23.436   0.266  0.00  0.00    +0.000 C 
ATOM     12  C   UNL     1     -40.436  26.501  -0.441  0.00  0.00    +0.032 C 
ATOM     13  C   UNL     1     -42.144  27.912   0.791  0.00  0.00    +0.123 C 
ATOM     14  C   UNL     1     -41.808  27.173  -0.522  0.00  0.00    +0.136 C 
ATOM     15  C   UNL     1     -39.706  22.684   1.820  0.00  0.00    +0.000 C 
ATOM     16  C   UNL     1     -43.214  25.946   2.134  0.00  0.00    +0.010 C 
ATOM     17  C   UNL     1     -43.491  28.661   0.694  0.00  0.00    +0.056 C 
ATOM     18  C   UNL     1     -42.277  27.942   3.271  0.00  0.00    +0.174 C 
ATOM     19  C   UNL     1     -43.910  29.263   2.004  0.00  0.00    -0.021 C 
ATOM     20  C   UNL     1     -43.355  28.966   3.184  0.00  0.00    +0.033 C 
ENDROOT
BRANCH  13  21
ATOM     21  O   UNL     1     -41.168  28.977   0.910  0.00  0.00    -0.384 OA
ATOM     22  H   UNL     1     -40.912  29.079   1.840  0.00  0.00    +0.210 HD
ENDBRANCH  13  21
BRANCH  14  23
ATOM     23  O   UNL     1     -42.776  26.186  -0.853  0.00  0.00    -0.382 OA
ATOM     24  H   UNL     1     -43.463  26.582  -1.412  0.00  0.00    +0.210 HD
ENDBRANCH  14  23
BRANCH   6  25
ATOM     25  C   UNL     1     -36.820  22.271   2.520  0.00  0.00    +0.070 C 
BRANCH  25  28
ATOM     26  O   UNL     1     -37.223  20.329   1.181  0.00  0.00    -0.449 OA
ATOM     27  O   UNL     1     -37.746  18.523  -0.065  0.00  0.00    -0.245 OA
ATOM     28  C   UNL     1     -36.211  21.287   1.532  0.00  0.00    +0.175 C 
ATOM     29  C   UNL     1     -35.013  20.568   2.128  0.00  0.00    +0.066 C 
ATOM     30  C   UNL     1     -34.558  19.497   1.175  0.00  0.00    -0.036 C 
ATOM     31  C   UNL     1     -36.888  19.230   0.456  0.00  0.00    +0.339 C 
ATOM     32  C   UNL     1     -35.437  18.900   0.344  0.00  0.00    +0.075 C 
ATOM     33  C   UNL     1     -33.093  19.172   1.262  0.00  0.00    +0.026 C 
BRANCH  32  34
ATOM     34  C   UNL     1     -35.098  17.859  -0.683  0.00  0.00    +0.169 C 
BRANCH  34  35
ATOM     35  O   UNL     1     -35.396  16.573  -0.174  0.00  0.00    -0.377 OA
ATOM     36  H   UNL     1     -34.986  15.899  -0.738  0.00  0.00    +0.211 HD
ENDBRANCH  34  35
ENDBRANCH  32  34
ENDBRANCH  25  28
BRANCH  25  37
ATOM     37  C   UNL     1     -35.809  22.602   3.626  0.00  0.00    +0.141 C 
BRANCH  37  38
ATOM     38  O   UNL     1     -36.434  22.491   4.899  0.00  0.00    -0.382 OA
ATOM     39  H   UNL     1     -37.260  22.997   4.897  0.00  0.00    +0.210 HD
ENDBRANCH  37  38
ENDBRANCH  25  37
ENDBRANCH   6  25
TORSDOF 8
ENDMDL
MODEL 5
REMARK VINA RESULT:      -6.5      1.942      3.354
REMARK  Name = 56841147
REMARK  8 active torsions:
REMARK  status: ('A' for Active; 'I' for Inactive)
REMARK    1  A    between atoms: C_6  and  C_25
REMARK    2  A    between atoms: C_13  and  O_21
REMARK    3  A    between atoms: C_14  and  O_23
REMARK    4  A    between atoms: C_25  and  C_28
REMARK    5  A    between atoms: C_25  and  C_37
REMARK    6  A    between atoms: C_32  and  C_34
REMARK    7  A    between atoms: C_34  and  O_35
REMARK    8  A    between atoms: C_37  and  O_38
REMARK                            x       y       z     vdW  Elec       q    Type
REMARK                         _______ _______ _______ _____ _____    ______ ____
ROOT
ATOM      1  O   UNL     1     -33.022  32.055   2.883  0.00  0.00    -0.291 OA
ATOM      2  C   UNL     1     -34.962  27.019   2.741  0.00  0.00    +0.000 C 
ATOM      3  C   UNL     1     -34.340  27.124   4.150  0.00  0.00    +0.000 C 
ATOM      4  C   UNL     1     -32.964  27.804   4.147  0.00  0.00    +0.003 C 
ATOM      5  C   UNL     1     -33.135  29.265   3.602  0.00  0.00    +0.009 C 
ATOM      6  C   UNL     1     -36.272  26.277   3.105  0.00  0.00    +0.006 C 
ATOM      7  C   UNL     1     -31.781  30.074   3.647  0.00  0.00    +0.080 C 
ATOM      8  C   UNL     1     -35.153  28.443   2.205  0.00  0.00    +0.000 C 
ATOM      9  C   UNL     1     -34.479  25.711   4.708  0.00  0.00    +0.000 C 
ATOM     10  C   UNL     1     -33.829  29.231   2.207  0.00  0.00    +0.001 C 
ATOM     11  C   UNL     1     -35.814  25.209   4.127  0.00  0.00    +0.000 C 
ATOM     12  C   UNL     1     -32.328  27.775   5.543  0.00  0.00    +0.032 C 
ATOM     13  C   UNL     1     -31.160  29.977   5.089  0.00  0.00    +0.123 C 
ATOM     14  C   UNL     1     -30.997  28.526   5.590  0.00  0.00    +0.136 C 
ATOM     15  C   UNL     1     -34.120  26.192   1.736  0.00  0.00    +0.000 C 
ATOM     16  C   UNL     1     -30.827  29.593   2.528  0.00  0.00    +0.010 C 
ATOM     17  C   UNL     1     -29.840  30.772   5.204  0.00  0.00    +0.056 C 
ATOM     18  C   UNL     1     -32.011  31.590   3.402  0.00  0.00    +0.174 C 
ATOM     19  C   UNL     1     -29.935  32.137   4.587  0.00  0.00    -0.021 C 
ATOM     20  C   UNL     1     -30.925  32.536   3.783  0.00  0.00    +0.033 C 
ENDROOT
BRANCH  13  21
ATOM     21  O   UNL     1     -32.037  30.631   6.039  0.00  0.00    -0.384 OA
ATOM     22  H   UNL     1     -32.670  29.987   6.392  0.00  0.00    +0.210 HD
ENDBRANCH  13  21
BRANCH  14  23
ATOM     23  O   UNL     1     -30.038  27.796   4.835  0.00  0.00    -0.382 OA
ATOM     24  H   UNL     1     -29.311  27.522   5.416  0.00  0.00    +0.210 HD
ENDBRANCH  14  23
BRANCH   6  25
ATOM     25  C   UNL     1     -37.068  25.689   1.949  0.00  0.00    +0.070 C 
BRANCH  25  28
ATOM     26  O   UNL     1     -36.071  23.664   1.152  0.00  0.00    -0.449 OA
ATOM     27  O   UNL     1     -35.019  21.836   0.356  0.00  0.00    -0.245 OA
ATOM     28  C   UNL     1     -37.090  24.170   2.032  0.00  0.00    +0.175 C 
ATOM     29  C   UNL     1     -38.441  23.608   1.623  0.00  0.00    +0.066 C 
ATOM     30  C   UNL     1     -38.353  22.108   1.564  0.00  0.00    -0.036 C 
ATOM     31  C   UNL     1     -36.003  22.332   0.897  0.00  0.00    +0.339 C 
ATOM     32  C   UNL     1     -37.185  21.501   1.273  0.00  0.00    +0.075 C 
ATOM     33  C   UNL     1     -39.651  21.401   1.834  0.00  0.00    +0.026 C 
BRANCH  32  34
ATOM     34  C   UNL     1     -36.958  20.017   1.234  0.00  0.00    +0.169 C 
BRANCH  34  35
ATOM     35  O   UNL     1     -36.698  19.541   2.541  0.00  0.00    -0.377 OA
ATOM     36  H   UNL     1     -35.882  19.945   2.875  0.00  0.00    +0.211 HD
ENDBRANCH  34  35
ENDBRANCH  32  34
ENDBRANCH  25  28
BRANCH  25  37
ATOM     37  C   UNL     1     -38.501  26.236   1.913  0.00  0.00    +0.141 C 
BRANCH  37  38
ATOM     38  O   UNL     1     -38.925  26.564   3.230  0.00  0.00    -0.382 OA
ATOM     39  H   UNL     1     -39.660  27.195   3.184  0.00  0.00    +0.210 HD
ENDBRANCH  37  38
ENDBRANCH  25  37
ENDBRANCH   6  25
TORSDOF 8
ENDMDL
MODEL 6
REMARK VINA RESULT:      -6.5      6.060      9.972
REMARK  Name = 56841147
REMARK  8 active torsions:
REMARK  status: ('A' for Active; 'I' for Inactive)
REMARK    1  A    between atoms: C_6  and  C_25
REMARK    2  A    between atoms: C_13  and  O_21
REMARK    3  A    between atoms: C_14  and  O_23
REMARK    4  A    between atoms: C_25  and  C_28
REMARK    5  A    between atoms: C_25  and  C_37
REMARK    6  A    between atoms: C_32  and  C_34
REMARK    7  A    between atoms: C_34  and  O_35
REMARK    8  A    between atoms: C_37  and  O_38
REMARK                            x       y       z     vdW  Elec       q    Type
REMARK                         _______ _______ _______ _____ _____    ______ ____
ROOT
ATOM      1  O   UNL     1     -32.203  17.617   1.493  0.00  0.00    -0.291 OA
ATOM      2  C   UNL     1     -36.115  21.314   1.070  0.00  0.00    +0.000 C 
ATOM      3  C   UNL     1     -36.847  19.983   0.794  0.00  0.00    +0.000 C 
ATOM      4  C   UNL     1     -36.066  19.055  -0.145  0.00  0.00    +0.003 C 
ATOM      5  C   UNL     1     -34.697  18.701   0.534  0.00  0.00    +0.009 C 
ATOM      6  C   UNL     1     -37.167  21.989   1.985  0.00  0.00    +0.006 C 
ATOM      7  C   UNL     1     -33.860  17.674  -0.323  0.00  0.00    +0.080 C 
ATOM      8  C   UNL     1     -34.782  20.983   1.753  0.00  0.00    +0.000 C 
ATOM      9  C   UNL     1     -38.257  20.425   0.413  0.00  0.00    +0.000 C 
ATOM     10  C   UNL     1     -33.939  20.011   0.906  0.00  0.00    +0.001 C 
ATOM     11  C   UNL     1     -38.512  21.662   1.295  0.00  0.00    +0.000 C 
ATOM     12  C   UNL     1     -36.883  17.803  -0.493  0.00  0.00    +0.032 C 
ATOM     13  C   UNL     1     -34.759  16.433  -0.678  0.00  0.00    +0.123 C 
ATOM     14  C   UNL     1     -36.093  16.816  -1.354  0.00  0.00    +0.136 C 
ATOM     15  C   UNL     1     -35.853  22.169  -0.197  0.00  0.00    +0.000 C 
ATOM     16  C   UNL     1     -33.252  18.373  -1.563  0.00  0.00    +0.010 C 
ATOM     17  C   UNL     1     -33.987  15.377  -1.499  0.00  0.00    +0.056 C 
ATOM     18  C   UNL     1     -32.665  17.096   0.481  0.00  0.00    +0.174 C 
ATOM     19  C   UNL     1     -32.621  15.099  -0.941  0.00  0.00    -0.021 C 
ATOM     20  C   UNL     1     -32.012  15.856  -0.023  0.00  0.00    +0.033 C 
ENDROOT
BRANCH  13  21
ATOM     21  O   UNL     1     -35.114  15.729   0.538  0.00  0.00    -0.384 OA
ATOM     22  H   UNL     1     -35.593  14.916   0.312  0.00  0.00    +0.210 HD
ENDBRANCH  13  21
BRANCH  14  23
ATOM     23  O   UNL     1     -35.905  17.388  -2.642  0.00  0.00    -0.382 OA
ATOM     24  H   UNL     1     -35.089  17.912  -2.646  0.00  0.00    +0.210 HD
ENDBRANCH  14  23
BRANCH   6  25
ATOM     25  C   UNL     1     -36.985  23.476   2.253  0.00  0.00    +0.070 C 
BRANCH  25  28
ATOM     26  O   UNL     1     -37.808  25.182   0.791  0.00  0.00    -0.449 OA
ATOM     27  O   UNL     1     -38.463  26.774  -0.667  0.00  0.00    -0.245 OA
ATOM     28  C   UNL     1     -38.215  24.255   1.812  0.00  0.00    +0.175 C 
ATOM     29  C   UNL     1     -38.840  25.014   2.969  0.00  0.00    +0.066 C 
ATOM     30  C   UNL     1     -39.944  25.890   2.444  0.00  0.00    -0.036 C 
ATOM     31  C   UNL     1     -38.679  26.130   0.356  0.00  0.00    +0.339 C 
ATOM     32  C   UNL     1     -39.894  26.376   1.187  0.00  0.00    +0.075 C 
ATOM     33  C   UNL     1     -41.041  26.165   3.434  0.00  0.00    +0.026 C 
BRANCH  32  34
ATOM     34  C   UNL     1     -40.953  27.216   0.533  0.00  0.00    +0.169 C 
BRANCH  34  35
ATOM     35  O   UNL     1     -40.506  28.554   0.436  0.00  0.00    -0.377 OA
ATOM     36  H   UNL     1     -39.904  28.748   1.171  0.00  0.00    +0.211 HD
ENDBRANCH  34  35
ENDBRANCH  32  34
ENDBRANCH  25  28
BRANCH  25  37
ATOM     37  C   UNL     1     -36.691  23.751   3.734  0.00  0.00    +0.141 C 
BRANCH  37  38
ATOM     38  O   UNL     1     -36.595  22.522   4.442  0.00  0.00    -0.382 OA
ATOM     39  H   UNL     1     -36.128  22.668   5.280  0.00  0.00    +0.210 HD
ENDBRANCH  37  38
ENDBRANCH  25  37
ENDBRANCH   6  25
TORSDOF 8
ENDMDL
MODEL 7
REMARK VINA RESULT:      -6.4      2.141      9.761
REMARK  Name = 56841147
REMARK  8 active torsions:
REMARK  status: ('A' for Active; 'I' for Inactive)
REMARK    1  A    between atoms: C_6  and  C_25
REMARK    2  A    between atoms: C_13  and  O_21
REMARK    3  A    between atoms: C_14  and  O_23
REMARK    4  A    between atoms: C_25  and  C_28
REMARK    5  A    between atoms: C_25  and  C_37
REMARK    6  A    between atoms: C_32  and  C_34
REMARK    7  A    between atoms: C_34  and  O_35
REMARK    8  A    between atoms: C_37  and  O_38
REMARK                            x       y       z     vdW  Elec       q    Type
REMARK                         _______ _______ _______ _____ _____    ______ ____
ROOT
ATOM      1  O   UNL     1     -40.387  25.245  -0.456  0.00  0.00    -0.291 OA
ATOM      2  C   UNL     1     -36.000  25.914   2.619  0.00  0.00    +0.000 C 
ATOM      3  C   UNL     1     -35.708  24.604   1.857  0.00  0.00    +0.000 C 
ATOM      4  C   UNL     1     -36.916  23.660   1.807  0.00  0.00    +0.003 C 
ATOM      5  C   UNL     1     -38.082  24.388   1.050  0.00  0.00    +0.009 C 
ATOM      6  C   UNL     1     -34.605  26.580   2.509  0.00  0.00    +0.006 C 
ATOM      7  C   UNL     1     -39.343  23.456   0.870  0.00  0.00    +0.080 C 
ATOM      8  C   UNL     1     -37.125  26.647   1.877  0.00  0.00    +0.000 C 
ATOM      9  C   UNL     1     -34.399  24.118   2.474  0.00  0.00    +0.000 C 
ATOM     10  C   UNL     1     -38.376  25.760   1.730  0.00  0.00    +0.001 C 
ATOM     11  C   UNL     1     -33.624  25.414   2.776  0.00  0.00    +0.000 C 
ATOM     12  C   UNL     1     -36.547  22.321   1.153  0.00  0.00    +0.032 C 
ATOM     13  C   UNL     1     -38.897  22.090   0.233  0.00  0.00    +0.123 C 
ATOM     14  C   UNL     1     -37.756  21.395   1.006  0.00  0.00    +0.136 C 
ATOM     15  C   UNL     1     -36.399  25.711   4.103  0.00  0.00    +0.000 C 
ATOM     16  C   UNL     1     -40.093  23.297   2.214  0.00  0.00    +0.010 C 
ATOM     17  C   UNL     1     -40.094  21.139   0.008  0.00  0.00    +0.056 C 
ATOM     18  C   UNL     1     -40.364  24.060  -0.131  0.00  0.00    +0.174 C 
ATOM     19  C   UNL     1     -41.272  21.834  -0.610  0.00  0.00    -0.021 C 
ATOM     20  C   UNL     1     -41.404  23.161  -0.703  0.00  0.00    +0.033 C 
ENDROOT
BRANCH  13  21
ATOM     21  O   UNL     1     -38.388  22.322  -1.105  0.00  0.00    -0.384 OA
ATOM     22  H   UNL     1     -37.604  22.889  -1.058  0.00  0.00    +0.210 HD
ENDBRANCH  13  21
BRANCH  14  23
ATOM     23  O   UNL     1     -38.159  20.968   2.301  0.00  0.00    -0.382 OA
ATOM     24  H   UNL     1     -38.232  21.737   2.887  0.00  0.00    +0.210 HD
ENDBRANCH  14  23
BRANCH   6  25
ATOM     25  C   UNL     1     -34.351  27.785   3.402  0.00  0.00    +0.070 C 
BRANCH  25  28
ATOM     26  O   UNL     1     -32.991  28.420   5.266  0.00  0.00    -0.449 OA
ATOM     27  O   UNL     1     -31.832  29.043   7.098  0.00  0.00    -0.245 OA
ATOM     28  C   UNL     1     -32.959  27.714   4.013  0.00  0.00    +0.175 C 
ATOM     29  C   UNL     1     -31.917  28.340   3.103  0.00  0.00    +0.066 C 
ATOM     30  C   UNL     1     -30.599  28.391   3.825  0.00  0.00    -0.036 C 
ATOM     31  C   UNL     1     -31.831  28.667   5.929  0.00  0.00    +0.339 C 
ATOM     32  C   UNL     1     -30.558  28.492   5.170  0.00  0.00    +0.075 C 
ATOM     33  C   UNL     1     -29.397  28.339   2.925  0.00  0.00    +0.026 C 
BRANCH  32  34
ATOM     34  C   UNL     1     -29.311  28.501   6.007  0.00  0.00    +0.169 C 
BRANCH  34  35
ATOM     35  O   UNL     1     -29.316  27.387   6.878  0.00  0.00    -0.377 OA
ATOM     36  H   UNL     1     -29.949  26.727   6.556  0.00  0.00    +0.211 HD
ENDBRANCH  34  35
ENDBRANCH  32  34
ENDBRANCH  25  28
BRANCH  25  37
ATOM     37  C   UNL     1     -34.523  29.103   2.636  0.00  0.00    +0.141 C 
BRANCH  37  38
ATOM     38  O   UNL     1     -35.188  30.054   3.457  0.00  0.00    -0.382 OA
ATOM     39  H   UNL     1     -34.536  30.522   4.002  0.00  0.00    +0.210 HD
ENDBRANCH  37  38
ENDBRANCH  25  37
ENDBRANCH   6  25
TORSDOF 8
ENDMDL
MODEL 8
REMARK VINA RESULT:      -6.4      4.984     10.620
REMARK  Name = 56841147
REMARK  8 active torsions:
REMARK  status: ('A' for Active; 'I' for Inactive)
REMARK    1  A    between atoms: C_6  and  C_25
REMARK    2  A    between atoms: C_13  and  O_21
REMARK    3  A    between atoms: C_14  and  O_23
REMARK    4  A    between atoms: C_25  and  C_28
REMARK    5  A    between atoms: C_25  and  C_37
REMARK    6  A    between atoms: C_32  and  C_34
REMARK    7  A    between atoms: C_34  and  O_35
REMARK    8  A    between atoms: C_37  and  O_38
REMARK                            x       y       z     vdW  Elec       q    Type
REMARK                         _______ _______ _______ _____ _____    ______ ____
ROOT
ATOM      1  O   UNL     1     -31.858  15.728   0.429  0.00  0.00    -0.291 OA
ATOM      2  C   UNL     1     -34.928  20.101   1.207  0.00  0.00    +0.000 C 
ATOM      3  C   UNL     1     -35.913  19.072   0.612  0.00  0.00    +0.000 C 
ATOM      4  C   UNL     1     -35.327  18.302  -0.579  0.00  0.00    +0.003 C 
ATOM      5  C   UNL     1     -34.067  17.509  -0.084  0.00  0.00    +0.009 C 
ATOM      6  C   UNL     1     -35.830  20.694   2.317  0.00  0.00    +0.006 C 
ATOM      7  C   UNL     1     -33.448  16.613  -1.226  0.00  0.00    +0.080 C 
ATOM      8  C   UNL     1     -33.699  19.336   1.713  0.00  0.00    +0.000 C 
ATOM      9  C   UNL     1     -37.199  19.874   0.431  0.00  0.00    +0.000 C 
ATOM     10  C   UNL     1     -33.062  18.487   0.596  0.00  0.00    +0.001 C 
ATOM     11  C   UNL     1     -37.206  20.844   1.626  0.00  0.00    +0.000 C 
ATOM     12  C   UNL     1     -36.379  17.384  -1.217  0.00  0.00    +0.032 C 
ATOM     13  C   UNL     1     -34.577  15.724  -1.864  0.00  0.00    +0.123 C 
ATOM     14  C   UNL     1     -35.797  16.536  -2.349  0.00  0.00    +0.136 C 
ATOM     15  C   UNL     1     -34.482  21.203   0.211  0.00  0.00    +0.000 C 
ATOM     16  C   UNL     1     -32.695  17.491  -2.254  0.00  0.00    +0.010 C 
ATOM     17  C   UNL     1     -34.028  14.803  -2.976  0.00  0.00    +0.056 C 
ATOM     18  C   UNL     1     -32.405  15.609  -0.664  0.00  0.00    +0.174 C 
ATOM     19  C   UNL     1     -32.754  14.115  -2.577  0.00  0.00    -0.021 C 
ATOM     20  C   UNL     1     -32.013  14.452  -1.516  0.00  0.00    +0.033 C 
ENDROOT
BRANCH  13  21
ATOM     21  O   UNL     1     -35.083  14.797  -0.872  0.00  0.00    -0.384 OA
ATOM     22  H   UNL     1     -34.578  13.971  -0.913  0.00  0.00    +0.210 HD
ENDBRANCH  13  21
BRANCH  14  23
ATOM     23  O   UNL     1     -35.481  17.392  -3.439  0.00  0.00    -0.382 OA
ATOM     24  H   UNL     1     -34.776  18.003  -3.176  0.00  0.00    +0.210 HD
ENDBRANCH  14  23
BRANCH   6  25
ATOM     25  C   UNL     1     -35.352  21.981   2.972  0.00  0.00    +0.070 C 
BRANCH  25  28
ATOM     26  O   UNL     1     -35.098  24.189   2.085  0.00  0.00    -0.449 OA
ATOM     27  O   UNL     1     -34.717  26.241   1.229  0.00  0.00    -0.245 OA
ATOM     28  C   UNL     1     -36.079  23.183   2.387  0.00  0.00    +0.175 C 
ATOM     29  C   UNL     1     -37.101  23.744   3.360  0.00  0.00    +0.066 C 
ATOM     30  C   UNL     1     -37.666  25.020   2.799  0.00  0.00    -0.036 C 
ATOM     31  C   UNL     1     -35.501  25.435   1.723  0.00  0.00    +0.339 C 
ATOM     32  C   UNL     1     -36.926  25.795   1.980  0.00  0.00    +0.075 C 
ATOM     33  C   UNL     1     -39.068  25.327   3.247  0.00  0.00    +0.026 C 
BRANCH  32  34
ATOM     34  C   UNL     1     -37.393  27.060   1.318  0.00  0.00    +0.169 C 
BRANCH  34  35
ATOM     35  O   UNL     1     -36.798  28.176   1.952  0.00  0.00    -0.377 OA
ATOM     36  H   UNL     1     -37.388  28.942   1.878  0.00  0.00    +0.211 HD
ENDBRANCH  34  35
ENDBRANCH  32  34
ENDBRANCH  25  28
BRANCH  25  37
ATOM     37  C   UNL     1     -35.536  21.944   4.495  0.00  0.00    +0.141 C 
BRANCH  37  38
ATOM     38  O   UNL     1     -35.112  20.684   5.001  0.00  0.00    -0.382 OA
ATOM     39  H   UNL     1     -34.278  20.796   5.484  0.00  0.00    +0.210 HD
ENDBRANCH  37  38
ENDBRANCH  25  37
ENDBRANCH   6  25
TORSDOF 8
ENDMDL
MODEL 9
REMARK VINA RESULT:      -6.4      2.257      9.551
REMARK  Name = 56841147
REMARK  8 active torsions:
REMARK  status: ('A' for Active; 'I' for Inactive)
REMARK    1  A    between atoms: C_6  and  C_25
REMARK    2  A    between atoms: C_13  and  O_21
REMARK    3  A    between atoms: C_14  and  O_23
REMARK    4  A    between atoms: C_25  and  C_28
REMARK    5  A    between atoms: C_25  and  C_37
REMARK    6  A    between atoms: C_32  and  C_34
REMARK    7  A    between atoms: C_34  and  O_35
REMARK    8  A    between atoms: C_37  and  O_38
REMARK                            x       y       z     vdW  Elec       q    Type
REMARK                         _______ _______ _______ _____ _____    ______ ____
ROOT
ATOM      1  O   UNL     1     -33.918  22.223  -1.407  0.00  0.00    -0.291 OA
ATOM      2  C   UNL     1     -34.728  24.973   3.169  0.00  0.00    +0.000 C 
ATOM      3  C   UNL     1     -34.785  23.498   3.622  0.00  0.00    +0.000 C 
ATOM      4  C   UNL     1     -35.608  22.614   2.676  0.00  0.00    +0.003 C 
ATOM      5  C   UNL     1     -34.934  22.641   1.260  0.00  0.00    +0.009 C 
ATOM      6  C   UNL     1     -33.883  25.554   4.329  0.00  0.00    +0.006 C 
ATOM      7  C   UNL     1     -35.664  21.684   0.239  0.00  0.00    +0.080 C 
ATOM      8  C   UNL     1     -34.052  25.015   1.793  0.00  0.00    +0.000 C 
ATOM      9  C   UNL     1     -35.174  23.592   5.094  0.00  0.00    +0.000 C 
ATOM     10  C   UNL     1     -34.780  24.115   0.777  0.00  0.00    +0.001 C 
ATOM     11  C   UNL     1     -34.471  24.870   5.586  0.00  0.00    +0.000 C 
ATOM     12  C   UNL     1     -35.744  21.188   3.228  0.00  0.00    +0.032 C 
ATOM     13  C   UNL     1     -35.806  20.252   0.874  0.00  0.00    +0.123 C 
ATOM     14  C   UNL     1     -36.482  20.260   2.261  0.00  0.00    +0.136 C 
ATOM     15  C   UNL     1     -36.112  25.667   3.091  0.00  0.00    +0.000 C 
ATOM     16  C   UNL     1     -37.011  22.299  -0.209  0.00  0.00    +0.010 C 
ATOM     17  C   UNL     1     -36.494  19.259  -0.089  0.00  0.00    +0.056 C 
ATOM     18  C   UNL     1     -34.828  21.478  -1.052  0.00  0.00    +0.174 C 
ATOM     19  C   UNL     1     -35.950  19.341  -1.486  0.00  0.00    -0.021 C 
ATOM     20  C   UNL     1     -35.172  20.330  -1.937  0.00  0.00    +0.033 C 
ENDROOT
BRANCH  13  21
ATOM     21  O   UNL     1     -34.490  19.678   1.074  0.00  0.00    -0.384 OA
ATOM     22  H   UNL     1     -33.967  19.778   0.264  0.00  0.00    +0.210 HD
ENDBRANCH  13  21
BRANCH  14  23
ATOM     23  O   UNL     1     -37.844  20.662   2.200  0.00  0.00    -0.382 OA
ATOM     24  H   UNL     1     -37.939  21.386   1.561  0.00  0.00    +0.210 HD
ENDBRANCH  14  23
BRANCH   6  25
ATOM     25  C   UNL     1     -33.836  27.071   4.447  0.00  0.00    +0.070 C 
BRANCH  25  28
ATOM     26  O   UNL     1     -32.694  28.450   6.036  0.00  0.00    -0.449 OA
ATOM     27  O   UNL     1     -31.742  29.754   7.610  0.00  0.00    -0.245 OA
ATOM     28  C   UNL     1     -32.476  27.527   4.954  0.00  0.00    +0.175 C 
ATOM     29  C   UNL     1     -31.672  28.207   3.860  0.00  0.00    +0.066 C 
ATOM     30  C   UNL     1     -30.416  28.781   4.456  0.00  0.00    -0.036 C 
ATOM     31  C   UNL     1     -31.648  29.150   6.546  0.00  0.00    +0.339 C 
ATOM     32  C   UNL     1     -30.388  29.179   5.745  0.00  0.00    +0.075 C 
ATOM     33  C   UNL     1     -29.262  28.875   3.498  0.00  0.00    +0.026 C 
BRANCH  32  34
ATOM     34  C   UNL     1     -29.187  29.718   6.467  0.00  0.00    +0.169 C 
BRANCH  34  35
ATOM     35  O   UNL     1     -28.981  28.986   7.660  0.00  0.00    -0.377 OA
ATOM     36  H   UNL     1     -29.435  29.430   8.393  0.00  0.00    +0.211 HD
ENDBRANCH  34  35
ENDBRANCH  32  34
ENDBRANCH  25  28
BRANCH  25  37
ATOM     37  C   UNL     1     -34.155  27.752   3.110  0.00  0.00    +0.141 C 
BRANCH  37  38
ATOM     38  O   UNL     1     -35.056  28.832   3.322  0.00  0.00    -0.382 OA
ATOM     39  H   UNL     1     -34.578  29.578   3.715  0.00  0.00    +0.210 HD
ENDBRANCH  37  38
ENDBRANCH  25  37
ENDBRANCH   6  25
TORSDOF 8
ENDMDL
