MODEL 1
REMARK VINA RESULT:      -4.6      0.000      0.000
REMARK  Name = 196050
REMARK  11 active torsions:
REMARK  status: ('A' for Active; 'I' for Inactive)
REMARK    1  A    between atoms: S_1  and  C_2
REMARK    2  A    between atoms: S_1  and  S_13
REMARK    3  A    between atoms: C_2  and  C_6
REMARK    4  A    between atoms: N_5  and  C_8
REMARK    5  A    between atoms: C_8  and  C_10
REMARK    6  A    between atoms: C_10  and  O_11
REMARK    7  A    between atoms: S_13  and  C_14
REMARK    8  A    between atoms: C_14  and  C_15
REMARK    9  A    between atoms: C_15  and  N_16
REMARK   10  A    between atoms: C_15  and  C_21
REMARK   11  A    between atoms: C_21  and  O_22
REMARK                            x       y       z     vdW  Elec       q    Type
REMARK                         _______ _______ _______ _____ _____    ______ ____
ROOT
ATOM      1  S   UNK     1     -35.916  24.592   5.384  0.00  0.00    -0.074 S 
ENDROOT
BRANCH   1   2
ATOM      2  C   UNK     1     -35.175  22.961   5.042  0.00  0.00    +0.134 C 
ATOM      3  C   UNK     1     -35.224  22.101   6.297  0.00  0.00    +0.022 C 
BRANCH   2   6
ATOM      4  O   UNK     1     -35.568  21.318   3.312  0.00  0.00    -0.274 OA
ATOM      5  N   UNK     1     -37.127  23.009   3.612  0.00  0.00    -0.294 N 
ATOM      6  C   UNK     1     -35.952  22.329   3.896  0.00  0.00    +0.233 C 
ATOM      7  H   UNK     1     -37.348  23.812   4.138  0.00  0.00    +0.150 HD
BRANCH   5   8
ATOM      8  C   UNK     1     -38.041  22.587   2.576  0.00  0.00    +0.200 C 
BRANCH   8  10
ATOM      9  O   UNK     1     -40.285  23.086   1.861  0.00  0.00    -0.248 OA
ATOM     10  C   UNK     1     -39.332  23.364   2.579  0.00  0.00    +0.334 C 
BRANCH  10  11
ATOM     11  O   UNK     1     -39.338  24.400   3.450  0.00  0.00    -0.479 OA
ATOM     12  H   UNK     1     -39.961  25.093   3.350  0.00  0.00    +0.295 HD
ENDBRANCH  10  11
ENDBRANCH   8  10
ENDBRANCH   5   8
ENDBRANCH   2   6
ENDBRANCH   1   2
BRANCH   1  13
ATOM     13  S   UNK     1     -34.335  25.843   4.998  0.00  0.00    -0.083 S 
BRANCH  13  14
ATOM     14  C   UNK     1     -34.257  25.794   3.191  0.00  0.00    +0.058 C 
BRANCH  14  15
ATOM     15  C   UNK     1     -35.182  26.831   2.551  0.00  0.00    +0.047 C 
BRANCH  15  16
ATOM     16  N   UNK     1     -35.413  27.939   3.481  0.00  0.00    +0.389 N 
ATOM     17  H   UNK     1     -36.325  28.354   3.296  0.00  0.00    -0.088 HD
ATOM     18  H   UNK     1     -34.687  28.645   3.356  0.00  0.00    -0.088 HD
ATOM     19  H   UNK     1     -35.386  27.589   4.439  0.00  0.00    -0.088 HD
ENDBRANCH  15  16
BRANCH  15  21
ATOM     20  O   UNK     1     -36.698  25.428   1.293  0.00  0.00    -0.253 OA
ATOM     21  C   UNK     1     -36.535  26.248   2.189  0.00  0.00    +0.294 C 
BRANCH  21  22
ATOM     22  O   UNK     1     -37.560  26.744   2.927  0.00  0.00    -0.482 OA
ATOM     23  H   UNK     1     -37.616  27.665   3.094  0.00  0.00    +0.295 HD
ENDBRANCH  21  22
ENDBRANCH  15  21
ENDBRANCH  14  15
ENDBRANCH  13  14
ENDBRANCH   1  13
TORSDOF 11
ENDMDL
MODEL 2
REMARK VINA RESULT:      -4.6      2.995      5.533
REMARK  Name = 196050
REMARK  11 active torsions:
REMARK  status: ('A' for Active; 'I' for Inactive)
REMARK    1  A    between atoms: S_1  and  C_2
REMARK    2  A    between atoms: S_1  and  S_13
REMARK    3  A    between atoms: C_2  and  C_6
REMARK    4  A    between atoms: N_5  and  C_8
REMARK    5  A    between atoms: C_8  and  C_10
REMARK    6  A    between atoms: C_10  and  O_11
REMARK    7  A    between atoms: S_13  and  C_14
REMARK    8  A    between atoms: C_14  and  C_15
REMARK    9  A    between atoms: C_15  and  N_16
REMARK   10  A    between atoms: C_15  and  C_21
REMARK   11  A    between atoms: C_21  and  O_22
REMARK                            x       y       z     vdW  Elec       q    Type
REMARK                         _______ _______ _______ _____ _____    ______ ____
ROOT
ATOM      1  S   UNK     1     -37.301  25.126   1.253  0.00  0.00    -0.074 S 
ENDROOT
BRANCH   1   2
ATOM      2  C   UNK     1     -38.186  25.307   2.836  0.00  0.00    +0.134 C 
ATOM      3  C   UNK     1     -39.459  24.471   2.812  0.00  0.00    +0.022 C 
BRANCH   2   6
ATOM      4  O   UNK     1     -37.014  23.685   4.194  0.00  0.00    -0.274 OA
ATOM      5  N   UNK     1     -36.682  25.941   4.623  0.00  0.00    -0.294 N 
ATOM      6  C   UNK     1     -37.245  24.867   3.949  0.00  0.00    +0.233 C 
ATOM      7  H   UNK     1     -36.931  26.853   4.351  0.00  0.00    +0.150 HD
BRANCH   5   8
ATOM      8  C   UNK     1     -35.742  25.773   5.708  0.00  0.00    +0.200 C 
BRANCH   8  10
ATOM      9  O   UNK     1     -33.695  24.921   4.772  0.00  0.00    -0.248 OA
ATOM     10  C   UNK     1     -34.306  25.864   5.260  0.00  0.00    +0.334 C 
BRANCH  10  11
ATOM     11  O   UNK     1     -33.756  27.086   5.449  0.00  0.00    -0.479 OA
ATOM     12  H   UNK     1     -34.167  27.846   5.085  0.00  0.00    +0.295 HD
ENDBRANCH  10  11
ENDBRANCH   8  10
ENDBRANCH   5   8
ENDBRANCH   2   6
ENDBRANCH   1   2
BRANCH   1  13
ATOM     13  S   UNK     1     -37.921  23.263   0.653  0.00  0.00    -0.083 S 
BRANCH  13  14
ATOM     14  C   UNK     1     -36.442  22.266   0.955  0.00  0.00    +0.058 C 
BRANCH  14  15
ATOM     15  C   UNK     1     -36.769  20.971   1.703  0.00  0.00    +0.047 C 
BRANCH  15  16
ATOM     16  N   UNK     1     -37.993  21.142   2.489  0.00  0.00    +0.389 N 
ATOM     17  H   UNK     1     -38.387  20.228   2.707  0.00  0.00    -0.088 HD
ATOM     18  H   UNK     1     -38.669  21.684   1.951  0.00  0.00    -0.088 HD
ATOM     19  H   UNK     1     -37.774  21.634   3.356  0.00  0.00    -0.088 HD
ENDBRANCH  15  16
BRANCH  15  21
ATOM     20  O   UNK     1     -34.695  19.893   2.324  0.00  0.00    -0.253 OA
ATOM     21  C   UNK     1     -35.664  20.565   2.659  0.00  0.00    +0.294 C 
BRANCH  21  22
ATOM     22  O   UNK     1     -35.861  20.985   3.934  0.00  0.00    -0.482 OA
ATOM     23  H   UNK     1     -36.667  20.793   4.372  0.00  0.00    +0.295 HD
ENDBRANCH  21  22
ENDBRANCH  15  21
ENDBRANCH  14  15
ENDBRANCH  13  14
ENDBRANCH   1  13
TORSDOF 11
ENDMDL
MODEL 3
REMARK VINA RESULT:      -4.5      2.940      5.506
REMARK  Name = 196050
REMARK  11 active torsions:
REMARK  status: ('A' for Active; 'I' for Inactive)
REMARK    1  A    between atoms: S_1  and  C_2
REMARK    2  A    between atoms: S_1  and  S_13
REMARK    3  A    between atoms: C_2  and  C_6
REMARK    4  A    between atoms: N_5  and  C_8
REMARK    5  A    between atoms: C_8  and  C_10
REMARK    6  A    between atoms: C_10  and  O_11
REMARK    7  A    between atoms: S_13  and  C_14
REMARK    8  A    between atoms: C_14  and  C_15
REMARK    9  A    between atoms: C_15  and  N_16
REMARK   10  A    between atoms: C_15  and  C_21
REMARK   11  A    between atoms: C_21  and  O_22
REMARK                            x       y       z     vdW  Elec       q    Type
REMARK                         _______ _______ _______ _____ _____    ______ ____
ROOT
ATOM      1  S   UNK     1     -36.842  24.429   1.512  0.00  0.00    -0.074 S 
ENDROOT
BRANCH   1   2
ATOM      2  C   UNK     1     -37.542  25.176   3.021  0.00  0.00    +0.134 C 
ATOM      3  C   UNK     1     -38.941  24.625   3.265  0.00  0.00    +0.022 C 
BRANCH   2   6
ATOM      4  O   UNK     1     -36.517  25.570   5.175  0.00  0.00    -0.274 OA
ATOM      5  N   UNK     1     -35.887  23.688   3.972  0.00  0.00    -0.294 N 
ATOM      6  C   UNK     1     -36.603  24.859   4.176  0.00  0.00    +0.233 C 
ATOM      7  H   UNK     1     -36.027  23.188   3.136  0.00  0.00    +0.150 HD
BRANCH   5   8
ATOM      8  C   UNK     1     -34.946  23.172   4.939  0.00  0.00    +0.200 C 
BRANCH   8  10
ATOM      9  O   UNK     1     -36.078  22.045   6.738  0.00  0.00    -0.248 OA
ATOM     10  C   UNK     1     -35.466  21.968   5.681  0.00  0.00    +0.334 C 
BRANCH  10  11
ATOM     11  O   UNK     1     -35.190  20.794   5.066  0.00  0.00    -0.479 OA
ATOM     12  H   UNK     1     -35.521  19.992   5.420  0.00  0.00    +0.295 HD
ENDBRANCH  10  11
ENDBRANCH   8  10
ENDBRANCH   5   8
ENDBRANCH   2   6
ENDBRANCH   1   2
BRANCH   1  13
ATOM     13  S   UNK     1     -38.081  22.814   1.247  0.00  0.00    -0.083 S 
BRANCH  13  14
ATOM     14  C   UNK     1     -37.208  21.884  -0.036  0.00  0.00    +0.058 C 
BRANCH  14  15
ATOM     15  C   UNK     1     -36.785  20.497   0.452  0.00  0.00    +0.047 C 
BRANCH  15  16
ATOM     16  N   UNK     1     -37.948  19.608   0.502  0.00  0.00    +0.389 N 
ATOM     17  H   UNK     1     -38.798  20.151   0.361  0.00  0.00    -0.088 HD
ATOM     18  H   UNK     1     -37.985  19.148   1.412  0.00  0.00    -0.088 HD
ATOM     19  H   UNK     1     -37.869  18.904  -0.233  0.00  0.00    -0.088 HD
ENDBRANCH  15  16
BRANCH  15  21
ATOM     20  O   UNK     1     -35.169  21.172   2.119  0.00  0.00    -0.253 OA
ATOM     21  C   UNK     1     -36.179  20.536   1.841  0.00  0.00    +0.294 C 
BRANCH  21  22
ATOM     22  O   UNK     1     -36.840  19.773   2.748  0.00  0.00    -0.482 OA
ATOM     23  H   UNK     1     -37.055  20.125   3.590  0.00  0.00    +0.295 HD
ENDBRANCH  21  22
ENDBRANCH  15  21
ENDBRANCH  14  15
ENDBRANCH  13  14
ENDBRANCH   1  13
TORSDOF 11
ENDMDL
MODEL 4
REMARK VINA RESULT:      -4.5      2.608      3.974
REMARK  Name = 196050
REMARK  11 active torsions:
REMARK  status: ('A' for Active; 'I' for Inactive)
REMARK    1  A    between atoms: S_1  and  C_2
REMARK    2  A    between atoms: S_1  and  S_13
REMARK    3  A    between atoms: C_2  and  C_6
REMARK    4  A    between atoms: N_5  and  C_8
REMARK    5  A    between atoms: C_8  and  C_10
REMARK    6  A    between atoms: C_10  and  O_11
REMARK    7  A    between atoms: S_13  and  C_14
REMARK    8  A    between atoms: C_14  and  C_15
REMARK    9  A    between atoms: C_15  and  N_16
REMARK   10  A    between atoms: C_15  and  C_21
REMARK   11  A    between atoms: C_21  and  O_22
REMARK                            x       y       z     vdW  Elec       q    Type
REMARK                         _______ _______ _______ _____ _____    ______ ____
ROOT
ATOM      1  S   UNK     1     -34.897  23.187   1.621  0.00  0.00    -0.074 S 
ENDROOT
BRANCH   1   2
ATOM      2  C   UNK     1     -35.852  22.062   2.690  0.00  0.00    +0.134 C 
ATOM      3  C   UNK     1     -35.430  20.622   2.428  0.00  0.00    +0.022 C 
BRANCH   2   6
ATOM      4  O   UNK     1     -35.317  21.655   5.013  0.00  0.00    -0.274 OA
ATOM      5  N   UNK     1     -35.714  23.837   4.329  0.00  0.00    -0.294 N 
ATOM      6  C   UNK     1     -35.602  22.467   4.135  0.00  0.00    +0.233 C 
ATOM      7  H   UNK     1     -35.947  24.405   3.560  0.00  0.00    +0.150 HD
BRANCH   5   8
ATOM      8  C   UNK     1     -35.502  24.462   5.614  0.00  0.00    +0.200 C 
BRANCH   8  10
ATOM      9  O   UNK     1     -34.303  26.547   5.694  0.00  0.00    -0.248 OA
ATOM     10  C   UNK     1     -35.364  25.960   5.523  0.00  0.00    +0.334 C 
BRANCH  10  11
ATOM     11  O   UNK     1     -36.525  26.594   5.236  0.00  0.00    -0.479 OA
ATOM     12  H   UNK     1     -36.865  26.575   4.364  0.00  0.00    +0.295 HD
ENDBRANCH  10  11
ENDBRANCH   8  10
ENDBRANCH   5   8
ENDBRANCH   2   6
ENDBRANCH   1   2
BRANCH   1  13
ATOM     13  S   UNK     1     -36.354  23.868   0.345  0.00  0.00    -0.083 S 
BRANCH  13  14
ATOM     14  C   UNK     1     -37.763  24.061   1.463  0.00  0.00    +0.058 C 
BRANCH  14  15
ATOM     15  C   UNK     1     -38.045  25.532   1.778  0.00  0.00    +0.047 C 
BRANCH  15  16
ATOM     16  N   UNK     1     -36.795  26.226   2.090  0.00  0.00    +0.389 N 
ATOM     17  H   UNK     1     -36.801  27.150   1.658  0.00  0.00    -0.088 HD
ATOM     18  H   UNK     1     -36.007  25.688   1.727  0.00  0.00    -0.088 HD
ATOM     19  H   UNK     1     -36.703  26.324   3.101  0.00  0.00    -0.088 HD
ENDBRANCH  15  16
BRANCH  15  21
ATOM     20  O   UNK     1     -39.890  26.504   3.003  0.00  0.00    -0.253 OA
ATOM     21  C   UNK     1     -38.969  25.696   2.970  0.00  0.00    +0.294 C 
BRANCH  21  22
ATOM     22  O   UNK     1     -38.663  24.888   4.016  0.00  0.00    -0.482 OA
ATOM     23  H   UNK     1     -38.277  25.249   4.790  0.00  0.00    +0.295 HD
ENDBRANCH  21  22
ENDBRANCH  15  21
ENDBRANCH  14  15
ENDBRANCH  13  14
ENDBRANCH   1  13
TORSDOF 11
ENDMDL
MODEL 5
REMARK VINA RESULT:      -4.4      2.754      4.373
REMARK  Name = 196050
REMARK  11 active torsions:
REMARK  status: ('A' for Active; 'I' for Inactive)
REMARK    1  A    between atoms: S_1  and  C_2
REMARK    2  A    between atoms: S_1  and  S_13
REMARK    3  A    between atoms: C_2  and  C_6
REMARK    4  A    between atoms: N_5  and  C_8
REMARK    5  A    between atoms: C_8  and  C_10
REMARK    6  A    between atoms: C_10  and  O_11
REMARK    7  A    between atoms: S_13  and  C_14
REMARK    8  A    between atoms: C_14  and  C_15
REMARK    9  A    between atoms: C_15  and  N_16
REMARK   10  A    between atoms: C_15  and  C_21
REMARK   11  A    between atoms: C_21  and  O_22
REMARK                            x       y       z     vdW  Elec       q    Type
REMARK                         _______ _______ _______ _____ _____    ______ ____
ROOT
ATOM      1  S   UNK     1     -36.110  23.186   1.496  0.00  0.00    -0.074 S 
ENDROOT
BRANCH   1   2
ATOM      2  C   UNK     1     -36.287  22.279   3.068  0.00  0.00    +0.134 C 
ATOM      3  C   UNK     1     -35.432  21.019   3.034  0.00  0.00    +0.022 C 
BRANCH   2   6
ATOM      4  O   UNK     1     -36.314  23.122   5.335  0.00  0.00    -0.274 OA
ATOM      5  N   UNK     1     -34.924  24.147   3.785  0.00  0.00    -0.294 N 
ATOM      6  C   UNK     1     -35.866  23.214   4.194  0.00  0.00    +0.233 C 
ATOM      7  H   UNK     1     -34.627  24.139   2.846  0.00  0.00    +0.150 HD
BRANCH   5   8
ATOM      8  C   UNK     1     -34.359  25.129   4.682  0.00  0.00    +0.200 C 
BRANCH   8  10
ATOM      9  O   UNK     1     -34.740  27.426   4.076  0.00  0.00    -0.248 OA
ATOM     10  C   UNK     1     -35.118  26.430   4.680  0.00  0.00    +0.334 C 
BRANCH  10  11
ATOM     11  O   UNK     1     -36.257  26.394   5.411  0.00  0.00    -0.479 OA
ATOM     12  H   UNK     1     -36.258  26.709   6.293  0.00  0.00    +0.295 HD
ENDBRANCH  10  11
ENDBRANCH   8  10
ENDBRANCH   5   8
ENDBRANCH   2   6
ENDBRANCH   1   2
BRANCH   1  13
ATOM     13  S   UNK     1     -38.044  23.179   0.806  0.00  0.00    -0.083 S 
BRANCH  13  14
ATOM     14  C   UNK     1     -38.980  23.473   2.327  0.00  0.00    +0.058 C 
BRANCH  14  15
ATOM     15  C   UNK     1     -38.961  24.948   2.733  0.00  0.00    +0.047 C 
BRANCH  15  16
ATOM     16  N   UNK     1     -38.478  25.082   4.109  0.00  0.00    +0.389 N 
ATOM     17  H   UNK     1     -38.936  24.389   4.700  0.00  0.00    -0.088 HD
ATOM     18  H   UNK     1     -38.692  26.018   4.455  0.00  0.00    -0.088 HD
ATOM     19  H   UNK     1     -37.469  24.934   4.131  0.00  0.00    -0.088 HD
ENDBRANCH  15  16
BRANCH  15  21
ATOM     20  O   UNK     1     -41.214  25.211   1.894  0.00  0.00    -0.253 OA
ATOM     21  C   UNK     1     -40.339  25.579   2.669  0.00  0.00    +0.294 C 
BRANCH  21  22
ATOM     22  O   UNK     1     -40.506  26.617   3.526  0.00  0.00    -0.482 OA
ATOM     23  H   UNK     1     -40.086  27.439   3.357  0.00  0.00    +0.295 HD
ENDBRANCH  21  22
ENDBRANCH  15  21
ENDBRANCH  14  15
ENDBRANCH  13  14
ENDBRANCH   1  13
TORSDOF 11
ENDMDL
MODEL 6
REMARK VINA RESULT:      -4.4      1.599      1.996
REMARK  Name = 196050
REMARK  11 active torsions:
REMARK  status: ('A' for Active; 'I' for Inactive)
REMARK    1  A    between atoms: S_1  and  C_2
REMARK    2  A    between atoms: S_1  and  S_13
REMARK    3  A    between atoms: C_2  and  C_6
REMARK    4  A    between atoms: N_5  and  C_8
REMARK    5  A    between atoms: C_8  and  C_10
REMARK    6  A    between atoms: C_10  and  O_11
REMARK    7  A    between atoms: S_13  and  C_14
REMARK    8  A    between atoms: C_14  and  C_15
REMARK    9  A    between atoms: C_15  and  N_16
REMARK   10  A    between atoms: C_15  and  C_21
REMARK   11  A    between atoms: C_21  and  O_22
REMARK                            x       y       z     vdW  Elec       q    Type
REMARK                         _______ _______ _______ _____ _____    ______ ____
ROOT
ATOM      1  S   UNK     1     -36.089  24.361   4.837  0.00  0.00    -0.074 S 
ENDROOT
BRANCH   1   2
ATOM      2  C   UNK     1     -35.300  22.719   4.920  0.00  0.00    +0.134 C 
ATOM      3  C   UNK     1     -35.521  22.111   6.299  0.00  0.00    +0.022 C 
BRANCH   2   6
ATOM      4  O   UNK     1     -35.405  20.792   3.463  0.00  0.00    -0.274 OA
ATOM      5  N   UNK     1     -37.070  22.400   3.301  0.00  0.00    -0.294 N 
ATOM      6  C   UNK     1     -35.904  21.856   3.822  0.00  0.00    +0.233 C 
ATOM      7  H   UNK     1     -37.389  23.261   3.656  0.00  0.00    +0.150 HD
BRANCH   5   8
ATOM      8  C   UNK     1     -37.834  21.753   2.259  0.00  0.00    +0.200 C 
BRANCH   8  10
ATOM      9  O   UNK     1     -39.692  23.275   2.418  0.00  0.00    -0.248 OA
ATOM     10  C   UNK     1     -39.294  22.124   2.286  0.00  0.00    +0.334 C 
BRANCH  10  11
ATOM     11  O   UNK     1     -40.124  21.063   2.151  0.00  0.00    -0.479 OA
ATOM     12  H   UNK     1     -41.046  21.171   2.277  0.00  0.00    +0.295 HD
ENDBRANCH  10  11
ENDBRANCH   8  10
ENDBRANCH   5   8
ENDBRANCH   2   6
ENDBRANCH   1   2
BRANCH   1  13
ATOM     13  S   UNK     1     -34.495  25.595   5.226  0.00  0.00    -0.083 S 
BRANCH  13  14
ATOM     14  C   UNK     1     -33.976  26.065   3.557  0.00  0.00    +0.058 C 
BRANCH  14  15
ATOM     15  C   UNK     1     -33.590  27.544   3.474  0.00  0.00    +0.047 C 
BRANCH  15  16
ATOM     16  N   UNK     1     -33.067  27.998   4.764  0.00  0.00    +0.389 N 
ATOM     17  H   UNK     1     -32.119  28.351   4.642  0.00  0.00    -0.088 HD
ATOM     18  H   UNK     1     -33.057  27.217   5.421  0.00  0.00    -0.088 HD
ATOM     19  H   UNK     1     -33.663  28.741   5.130  0.00  0.00    -0.088 HD
ENDBRANCH  15  16
BRANCH  15  21
ATOM     20  O   UNK     1     -34.763  29.646   3.249  0.00  0.00    -0.253 OA
ATOM     21  C   UNK     1     -34.771  28.427   3.122  0.00  0.00    +0.294 C 
BRANCH  21  22
ATOM     22  O   UNK     1     -35.856  27.741   2.683  0.00  0.00    -0.482 OA
ATOM     23  H   UNK     1     -36.130  26.962   3.126  0.00  0.00    +0.295 HD
ENDBRANCH  21  22
ENDBRANCH  15  21
ENDBRANCH  14  15
ENDBRANCH  13  14
ENDBRANCH   1  13
TORSDOF 11
ENDMDL
MODEL 7
REMARK VINA RESULT:      -4.3      2.996      5.367
REMARK  Name = 196050
REMARK  11 active torsions:
REMARK  status: ('A' for Active; 'I' for Inactive)
REMARK    1  A    between atoms: S_1  and  C_2
REMARK    2  A    between atoms: S_1  and  S_13
REMARK    3  A    between atoms: C_2  and  C_6
REMARK    4  A    between atoms: N_5  and  C_8
REMARK    5  A    between atoms: C_8  and  C_10
REMARK    6  A    between atoms: C_10  and  O_11
REMARK    7  A    between atoms: S_13  and  C_14
REMARK    8  A    between atoms: C_14  and  C_15
REMARK    9  A    between atoms: C_15  and  N_16
REMARK   10  A    between atoms: C_15  and  C_21
REMARK   11  A    between atoms: C_21  and  O_22
REMARK                            x       y       z     vdW  Elec       q    Type
REMARK                         _______ _______ _______ _____ _____    ______ ____
ROOT
ATOM      1  S   UNK     1     -38.015  24.472   0.926  0.00  0.00    -0.074 S 
ENDROOT
BRANCH   1   2
ATOM      2  C   UNK     1     -38.485  25.438   2.399  0.00  0.00    +0.134 C 
ATOM      3  C   UNK     1     -39.566  24.699   3.176  0.00  0.00    +0.022 C 
BRANCH   2   6
ATOM      4  O   UNK     1     -36.264  26.289   2.837  0.00  0.00    -0.274 OA
ATOM      5  N   UNK     1     -37.326  25.052   4.488  0.00  0.00    -0.294 N 
ATOM      6  C   UNK     1     -37.232  25.647   3.238  0.00  0.00    +0.233 C 
ATOM      7  H   UNK     1     -38.146  24.558   4.716  0.00  0.00    +0.150 HD
BRANCH   5   8
ATOM      8  C   UNK     1     -36.268  25.129   5.469  0.00  0.00    +0.200 C 
BRANCH   8  10
ATOM      9  O   UNK     1     -35.849  22.847   6.107  0.00  0.00    -0.248 OA
ATOM     10  C   UNK     1     -35.452  23.865   5.554  0.00  0.00    +0.334 C 
BRANCH  10  11
ATOM     11  O   UNK     1     -34.239  23.963   4.961  0.00  0.00    -0.479 OA
ATOM     12  H   UNK     1     -33.659  24.661   5.195  0.00  0.00    +0.295 HD
ENDBRANCH  10  11
ENDBRANCH   8  10
ENDBRANCH   5   8
ENDBRANCH   2   6
ENDBRANCH   1   2
BRANCH   1  13
ATOM     13  S   UNK     1     -38.296  22.552   1.596  0.00  0.00    -0.083 S 
BRANCH  13  14
ATOM     14  C   UNK     1     -37.083  21.637   0.613  0.00  0.00    +0.058 C 
BRANCH  14  15
ATOM     15  C   UNK     1     -36.172  20.775   1.489  0.00  0.00    +0.047 C 
BRANCH  15  16
ATOM     16  N   UNK     1     -36.949  19.706   2.121  0.00  0.00    +0.389 N 
ATOM     17  H   UNK     1     -37.132  19.948   3.094  0.00  0.00    -0.088 HD
ATOM     18  H   UNK     1     -36.422  18.833   2.081  0.00  0.00    -0.088 HD
ATOM     19  H   UNK     1     -37.834  19.592   1.626  0.00  0.00    -0.088 HD
ENDBRANCH  15  16
BRANCH  15  21
ATOM     20  O   UNK     1     -35.002  22.676   2.418  0.00  0.00    -0.253 OA
ATOM     21  C   UNK     1     -35.512  21.576   2.595  0.00  0.00    +0.294 C 
BRANCH  21  22
ATOM     22  O   UNK     1     -35.507  20.947   3.797  0.00  0.00    -0.482 OA
ATOM     23  H   UNK     1     -35.548  21.448   4.589  0.00  0.00    +0.295 HD
ENDBRANCH  21  22
ENDBRANCH  15  21
ENDBRANCH  14  15
ENDBRANCH  13  14
ENDBRANCH   1  13
TORSDOF 11
ENDMDL
MODEL 8
REMARK VINA RESULT:      -4.3      3.904      6.882
REMARK  Name = 196050
REMARK  11 active torsions:
REMARK  status: ('A' for Active; 'I' for Inactive)
REMARK    1  A    between atoms: S_1  and  C_2
REMARK    2  A    between atoms: S_1  and  S_13
REMARK    3  A    between atoms: C_2  and  C_6
REMARK    4  A    between atoms: N_5  and  C_8
REMARK    5  A    between atoms: C_8  and  C_10
REMARK    6  A    between atoms: C_10  and  O_11
REMARK    7  A    between atoms: S_13  and  C_14
REMARK    8  A    between atoms: C_14  and  C_15
REMARK    9  A    between atoms: C_15  and  N_16
REMARK   10  A    between atoms: C_15  and  C_21
REMARK   11  A    between atoms: C_21  and  O_22
REMARK                            x       y       z     vdW  Elec       q    Type
REMARK                         _______ _______ _______ _____ _____    ______ ____
ROOT
ATOM      1  S   UNK     1     -34.861  24.998   3.130  0.00  0.00    -0.074 S 
ENDROOT
BRANCH   1   2
ATOM      2  C   UNK     1     -34.651  26.399   4.277  0.00  0.00    +0.134 C 
ATOM      3  C   UNK     1     -34.804  25.916   5.713  0.00  0.00    +0.022 C 
BRANCH   2   6
ATOM      4  O   UNK     1     -32.584  26.701   3.060  0.00  0.00    -0.274 OA
ATOM      5  N   UNK     1     -32.917  27.924   5.003  0.00  0.00    -0.294 N 
ATOM      6  C   UNK     1     -33.276  27.002   4.030  0.00  0.00    +0.233 C 
ATOM      7  H   UNK     1     -33.543  28.097   5.743  0.00  0.00    +0.150 HD
BRANCH   5   8
ATOM      8  C   UNK     1     -31.664  28.642   4.972  0.00  0.00    +0.200 C 
BRANCH   8  10
ATOM      9  O   UNK     1     -30.759  29.655   6.959  0.00  0.00    -0.248 OA
ATOM     10  C   UNK     1     -30.954  28.640   6.302  0.00  0.00    +0.334 C 
BRANCH  10  11
ATOM     11  O   UNK     1     -30.551  27.410   6.698  0.00  0.00    -0.479 OA
ATOM     12  H   UNK     1     -31.097  26.666   6.542  0.00  0.00    +0.295 HD
ENDBRANCH  10  11
ENDBRANCH   8  10
ENDBRANCH   5   8
ENDBRANCH   2   6
ENDBRANCH   1   2
BRANCH   1  13
ATOM     13  S   UNK     1     -36.878  24.651   3.280  0.00  0.00    -0.083 S 
BRANCH  13  14
ATOM     14  C   UNK     1     -36.939  22.844   3.346  0.00  0.00    +0.058 C 
BRANCH  14  15
ATOM     15  C   UNK     1     -35.605  22.244   3.797  0.00  0.00    +0.047 C 
BRANCH  15  16
ATOM     16  N   UNK     1     -35.334  21.011   3.055  0.00  0.00    +0.389 N 
ATOM     17  H   UNK     1     -35.623  21.127   2.084  0.00  0.00    -0.088 HD
ATOM     18  H   UNK     1     -35.855  20.240   3.474  0.00  0.00    -0.088 HD
ATOM     19  H   UNK     1     -34.335  20.805   3.091  0.00  0.00    -0.088 HD
ENDBRANCH  15  16
BRANCH  15  21
ATOM     20  O   UNK     1     -35.917  22.693   6.153  0.00  0.00    -0.253 OA
ATOM     21  C   UNK     1     -35.601  21.899   5.274  0.00  0.00    +0.294 C 
BRANCH  21  22
ATOM     22  O   UNK     1     -35.180  20.637   5.540  0.00  0.00    -0.482 OA
ATOM     23  H   UNK     1     -34.514  20.490   6.183  0.00  0.00    +0.295 HD
ENDBRANCH  21  22
ENDBRANCH  15  21
ENDBRANCH  14  15
ENDBRANCH  13  14
ENDBRANCH   1  13
TORSDOF 11
ENDMDL
MODEL 9
REMARK VINA RESULT:      -4.3      3.805      5.164
REMARK  Name = 196050
REMARK  11 active torsions:
REMARK  status: ('A' for Active; 'I' for Inactive)
REMARK    1  A    between atoms: S_1  and  C_2
REMARK    2  A    between atoms: S_1  and  S_13
REMARK    3  A    between atoms: C_2  and  C_6
REMARK    4  A    between atoms: N_5  and  C_8
REMARK    5  A    between atoms: C_8  and  C_10
REMARK    6  A    between atoms: C_10  and  O_11
REMARK    7  A    between atoms: S_13  and  C_14
REMARK    8  A    between atoms: C_14  and  C_15
REMARK    9  A    between atoms: C_15  and  N_16
REMARK   10  A    between atoms: C_15  and  C_21
REMARK   11  A    between atoms: C_21  and  O_22
REMARK                            x       y       z     vdW  Elec       q    Type
REMARK                         _______ _______ _______ _____ _____    ______ ____
ROOT
ATOM      1  S   UNK     1     -34.073  25.726   3.200  0.00  0.00    -0.074 S 
ENDROOT
BRANCH   1   2
ATOM      2  C   UNK     1     -35.881  25.693   2.971  0.00  0.00    +0.134 C 
ATOM      3  C   UNK     1     -36.214  25.838   1.492  0.00  0.00    +0.022 C 
BRANCH   2   6
ATOM      4  O   UNK     1     -37.556  24.231   3.924  0.00  0.00    -0.274 OA
ATOM      5  N   UNK     1     -35.428  23.386   3.546  0.00  0.00    -0.294 N 
ATOM      6  C   UNK     1     -36.398  24.378   3.538  0.00  0.00    +0.233 C 
ATOM      7  H   UNK     1     -34.527  23.603   3.215  0.00  0.00    +0.150 HD
BRANCH   5   8
ATOM      8  C   UNK     1     -35.688  22.047   4.022  0.00  0.00    +0.200 C 
BRANCH   8  10
ATOM      9  O   UNK     1     -35.055  22.779   6.225  0.00  0.00    -0.248 OA
ATOM     10  C   UNK     1     -35.303  21.851   5.466  0.00  0.00    +0.334 C 
BRANCH  10  11
ATOM     11  O   UNK     1     -35.257  20.552   5.842  0.00  0.00    -0.479 OA
ATOM     12  H   UNK     1     -35.047  20.328   6.728  0.00  0.00    +0.295 HD
ENDBRANCH  10  11
ENDBRANCH   8  10
ENDBRANCH   5   8
ENDBRANCH   2   6
ENDBRANCH   1   2
BRANCH   1  13
ATOM     13  S   UNK     1     -33.924  26.323   5.159  0.00  0.00    -0.083 S 
BRANCH  13  14
ATOM     14  C   UNK     1     -32.767  27.707   5.037  0.00  0.00    +0.058 C 
BRANCH  14  15
ATOM     15  C   UNK     1     -31.922  27.860   6.304  0.00  0.00    +0.047 C 
BRANCH  15  16
ATOM     16  N   UNK     1     -32.601  27.229   7.437  0.00  0.00    +0.389 N 
ATOM     17  H   UNK     1     -32.204  27.577   8.309  0.00  0.00    -0.088 HD
ATOM     18  H   UNK     1     -32.477  26.217   7.388  0.00  0.00    -0.088 HD
ATOM     19  H   UNK     1     -33.596  27.451   7.404  0.00  0.00    -0.088 HD
ENDBRANCH  15  16
BRANCH  15  21
ATOM     20  O   UNK     1     -32.271  30.247   6.127  0.00  0.00    -0.253 OA
ATOM     21  C   UNK     1     -31.685  29.314   6.664  0.00  0.00    +0.294 C 
BRANCH  21  22
ATOM     22  O   UNK     1     -30.736  29.494   7.617  0.00  0.00    -0.482 OA
ATOM     23  H   UNK     1     -30.916  30.030   8.365  0.00  0.00    +0.295 HD
ENDBRANCH  21  22
ENDBRANCH  15  21
ENDBRANCH  14  15
ENDBRANCH  13  14
ENDBRANCH   1  13
TORSDOF 11
ENDMDL
