MODEL 1
REMARK VINA RESULT:      -6.6      0.000      0.000
REMARK  Name = 1936439
REMARK  3 active torsions:
REMARK  status: ('A' for Active; 'I' for Inactive)
REMARK    1  A    between atoms: C_7  and  C_28
REMARK    2  A    between atoms: C_10  and  N_19
REMARK    3  A    between atoms: C_20  and  C_23
REMARK                            x       y       z     vdW  Elec       q    Type
REMARK                         _______ _______ _______ _____ _____    ______ ____
ROOT
ATOM      1  N   UNL     1     -33.271  29.852   3.297  0.00  0.00    -0.278 N 
ATOM      2  N   UNL     1     -32.201  32.038   3.317  0.00  0.00    -0.383 NA
ATOM      3  N   UNL     1     -34.480  32.794   1.787  0.00  0.00    -0.399 NA
ATOM      4  C   UNL     1     -34.452  29.352   2.750  0.00  0.00    +0.080 A 
ATOM      5  C   UNL     1     -33.185  31.189   2.979  0.00  0.00    +0.229 A 
ATOM      6  C   UNL     1     -34.301  31.533   2.237  0.00  0.00    +0.188 A 
ATOM      7  C   UNL     1     -35.100  30.377   2.092  0.00  0.00    +0.118 A 
ATOM      8  C   UNL     1     -34.741  27.971   2.961  0.00  0.00    +0.033 C 
ATOM      9  C   UNL     1     -32.381  29.065   4.029  0.00  0.00    +0.084 C 
ATOM     10  C   UNL     1     -33.884  27.206   3.668  0.00  0.00    +0.054 C 
ATOM     11  C   UNL     1     -32.659  27.766   4.225  0.00  0.00    +0.034 C 
ATOM     12  C   UNL     1     -32.381  33.287   2.868  0.00  0.00    +0.141 C 
ATOM     13  C   UNL     1     -33.513  33.664   2.108  0.00  0.00    +0.139 C 
ATOM     14  C   UNL     1     -31.419  34.249   3.160  0.00  0.00    +0.087 C 
ATOM     15  C   UNL     1     -33.627  34.982   1.677  0.00  0.00    +0.087 C 
ATOM     16  C   UNL     1     -31.545  35.566   2.723  0.00  0.00    -0.023 C 
ATOM     17  C   UNL     1     -32.655  35.934   1.979  0.00  0.00    -0.023 C 
ENDROOT
BRANCH  10  19
ATOM     18  O   UNL     1     -35.600  26.162   5.643  0.00  0.00    -0.269 OA
ATOM     19  N   UNL     1     -34.133  25.881   3.887  0.00  0.00    -0.280 N 
ATOM     20  C   UNL     1     -34.992  25.410   4.880  0.00  0.00    +0.256 C 
ATOM     21  H   UNL     1     -33.680  25.221   3.313  0.00  0.00    +0.155 HD
BRANCH  20  23
ATOM     22  S   UNL     1     -35.463  23.133   3.488  0.00  0.00    -0.082 S 
ATOM     23  C   UNL     1     -35.153  23.949   4.936  0.00  0.00    +0.083 C 
ATOM     24  C   UNL     1     -35.082  23.157   6.029  0.00  0.00    +0.012 C 
ATOM     25  C   UNL     1     -35.292  21.793   5.673  0.00  0.00    +0.008 C 
ATOM     26  C   UNL     1     -35.512  21.638   4.322  0.00  0.00    +0.036 C 
ENDBRANCH  20  23
ENDBRANCH  10  19
BRANCH   7  28
ATOM     27  N   UNL     1     -37.360  30.182   0.836  0.00  0.00    -0.191 NA
ATOM     28  C   UNL     1     -36.342  30.270   1.402  0.00  0.00    +0.105 C 
ENDBRANCH   7  28
TORSDOF 3
ENDMDL
MODEL 2
REMARK VINA RESULT:      -6.6      4.248      8.133
REMARK  Name = 1936439
REMARK  3 active torsions:
REMARK  status: ('A' for Active; 'I' for Inactive)
REMARK    1  A    between atoms: C_7  and  C_28
REMARK    2  A    between atoms: C_10  and  N_19
REMARK    3  A    between atoms: C_20  and  C_23
REMARK                            x       y       z     vdW  Elec       q    Type
REMARK                         _______ _______ _______ _____ _____    ______ ____
ROOT
ATOM      1  N   UNL     1     -35.585  26.843   3.120  0.00  0.00    -0.278 N 
ATOM      2  N   UNL     1     -37.708  26.868   1.930  0.00  0.00    -0.383 NA
ATOM      3  N   UNL     1     -38.225  24.543   3.490  0.00  0.00    -0.399 NA
ATOM      4  C   UNL     1     -35.022  26.013   4.089  0.00  0.00    +0.080 A 
ATOM      5  C   UNL     1     -36.837  26.357   2.816  0.00  0.00    +0.229 A 
ATOM      6  C   UNL     1     -37.066  25.229   3.584  0.00  0.00    +0.188 A 
ATOM      7  C   UNL     1     -35.924  25.011   4.387  0.00  0.00    +0.118 A 
ATOM      8  C   UNL     1     -33.713  26.337   4.553  0.00  0.00    +0.033 C 
ATOM      9  C   UNL     1     -34.924  27.956   2.599  0.00  0.00    +0.084 C 
ATOM     10  C   UNL     1     -33.070  27.412   4.052  0.00  0.00    +0.054 C 
ATOM     11  C   UNL     1     -33.692  28.257   3.040  0.00  0.00    +0.034 C 
ATOM     12  C   UNL     1     -38.856  26.184   1.839  0.00  0.00    +0.141 C 
ATOM     13  C   UNL     1     -39.114  25.030   2.614  0.00  0.00    +0.139 C 
ATOM     14  C   UNL     1     -39.830  26.627   0.949  0.00  0.00    +0.087 C 
ATOM     15  C   UNL     1     -40.332  24.374   2.461  0.00  0.00    +0.087 C 
ATOM     16  C   UNL     1     -41.045  25.961   0.805  0.00  0.00    -0.023 C 
ATOM     17  C   UNL     1     -41.298  24.830   1.566  0.00  0.00    -0.023 C 
ENDROOT
BRANCH  10  19
ATOM     18  O   UNL     1     -32.467  29.024   6.283  0.00  0.00    -0.269 OA
ATOM     19  N   UNL     1     -31.816  27.748   4.476  0.00  0.00    -0.280 N 
ATOM     20  C   UNL     1     -31.566  28.551   5.589  0.00  0.00    +0.256 C 
ATOM     21  H   UNL     1     -31.046  27.405   3.968  0.00  0.00    +0.155 HD
BRANCH  20  23
ATOM     22  S   UNL     1     -28.996  28.182   4.811  0.00  0.00    -0.082 S 
ATOM     23  C   UNL     1     -30.145  28.773   5.902  0.00  0.00    +0.083 C 
ATOM     24  C   UNL     1     -29.632  29.406   6.980  0.00  0.00    +0.012 C 
ATOM     25  C   UNL     1     -28.208  29.416   6.923  0.00  0.00    +0.008 C 
ATOM     26  C   UNL     1     -27.730  28.783   5.797  0.00  0.00    +0.036 C 
ENDBRANCH  20  23
ENDBRANCH  10  19
BRANCH   7  28
ATOM     27  N   UNL     1     -35.558  23.105   6.105  0.00  0.00    -0.191 NA
ATOM     28  C   UNL     1     -35.722  23.963   5.331  0.00  0.00    +0.105 C 
ENDBRANCH   7  28
TORSDOF 3
ENDMDL
MODEL 3
REMARK VINA RESULT:      -6.5      1.065      2.832
REMARK  Name = 1936439
REMARK  3 active torsions:
REMARK  status: ('A' for Active; 'I' for Inactive)
REMARK    1  A    between atoms: C_7  and  C_28
REMARK    2  A    between atoms: C_10  and  N_19
REMARK    3  A    between atoms: C_20  and  C_23
REMARK                            x       y       z     vdW  Elec       q    Type
REMARK                         _______ _______ _______ _____ _____    ______ ____
ROOT
ATOM      1  N   UNL     1     -33.654  29.962   3.049  0.00  0.00    -0.278 N 
ATOM      2  N   UNL     1     -33.925  32.254   2.274  0.00  0.00    -0.383 NA
ATOM      3  N   UNL     1     -31.447  32.646   3.622  0.00  0.00    -0.399 NA
ATOM      4  C   UNL     1     -32.684  29.296   3.796  0.00  0.00    +0.080 A 
ATOM      5  C   UNL     1     -33.267  31.277   2.922  0.00  0.00    +0.229 A 
ATOM      6  C   UNL     1     -32.064  31.444   3.584  0.00  0.00    +0.188 A 
ATOM      7  C   UNL     1     -31.695  30.197   4.135  0.00  0.00    +0.118 A 
ATOM      8  C   UNL     1     -32.888  27.907   4.051  0.00  0.00    +0.033 C 
ATOM      9  C   UNL     1     -34.794  29.330   2.551  0.00  0.00    +0.084 C 
ATOM     10  C   UNL     1     -33.988  27.291   3.572  0.00  0.00    +0.054 C 
ATOM     11  C   UNL     1     -34.980  28.023   2.793  0.00  0.00    +0.034 C 
ATOM     12  C   UNL     1     -33.311  33.444   2.315  0.00  0.00    +0.141 C 
ATOM     13  C   UNL     1     -32.081  33.639   2.984  0.00  0.00    +0.139 C 
ATOM     14  C   UNL     1     -33.907  34.526   1.676  0.00  0.00    +0.087 C 
ATOM     15  C   UNL     1     -31.506  34.907   2.982  0.00  0.00    +0.087 C 
ATOM     16  C   UNL     1     -33.322  35.791   1.681  0.00  0.00    -0.023 C 
ATOM     17  C   UNL     1     -32.115  35.981   2.336  0.00  0.00    -0.023 C 
ENDROOT
BRANCH  10  19
ATOM     18  O   UNL     1     -35.581  26.221   5.634  0.00  0.00    -0.269 OA
ATOM     19  N   UNL     1     -34.212  25.964   3.798  0.00  0.00    -0.280 N 
ATOM     20  C   UNL     1     -35.009  25.480   4.835  0.00  0.00    +0.256 C 
ATOM     21  H   UNL     1     -33.785  25.311   3.196  0.00  0.00    +0.155 HD
BRANCH  20  23
ATOM     22  S   UNL     1     -35.435  23.193   3.443  0.00  0.00    -0.082 S 
ATOM     23  C   UNL     1     -35.152  24.016   4.893  0.00  0.00    +0.083 C 
ATOM     24  C   UNL     1     -35.082  23.228   5.988  0.00  0.00    +0.012 C 
ATOM     25  C   UNL     1     -35.271  21.860   5.634  0.00  0.00    +0.008 C 
ATOM     26  C   UNL     1     -35.474  21.700   4.281  0.00  0.00    +0.036 C 
ENDBRANCH  20  23
ENDBRANCH  10  19
BRANCH   7  28
ATOM     27  N   UNL     1     -29.570  29.665   5.522  0.00  0.00    -0.191 NA
ATOM     28  C   UNL     1     -30.527  29.904   4.897  0.00  0.00    +0.105 C 
ENDBRANCH   7  28
TORSDOF 3
ENDMDL
MODEL 4
REMARK VINA RESULT:      -6.3      4.629      7.339
REMARK  Name = 1936439
REMARK  3 active torsions:
REMARK  status: ('A' for Active; 'I' for Inactive)
REMARK    1  A    between atoms: C_7  and  C_28
REMARK    2  A    between atoms: C_10  and  N_19
REMARK    3  A    between atoms: C_20  and  C_23
REMARK                            x       y       z     vdW  Elec       q    Type
REMARK                         _______ _______ _______ _____ _____    ______ ____
ROOT
ATOM      1  N   UNL     1     -34.708  24.261   2.635  0.00  0.00    -0.278 N 
ATOM      2  N   UNL     1     -33.485  26.305   3.136  0.00  0.00    -0.383 NA
ATOM      3  N   UNL     1     -33.855  25.467   5.832  0.00  0.00    -0.399 NA
ATOM      4  C   UNL     1     -35.268  23.247   3.412  0.00  0.00    +0.080 A 
ATOM      5  C   UNL     1     -34.130  25.179   3.483  0.00  0.00    +0.229 A 
ATOM      6  C   UNL     1     -34.323  24.752   4.785  0.00  0.00    +0.188 A 
ATOM      7  C   UNL     1     -35.039  23.535   4.742  0.00  0.00    +0.118 A 
ATOM      8  C   UNL     1     -35.926  22.182   2.728  0.00  0.00    +0.033 C 
ATOM      9  C   UNL     1     -34.767  24.268   1.241  0.00  0.00    +0.084 C 
ATOM     10  C   UNL     1     -35.986  22.185   1.380  0.00  0.00    +0.054 C 
ATOM     11  C   UNL     1     -35.387  23.263   0.603  0.00  0.00    +0.034 C 
ATOM     12  C   UNL     1     -33.023  27.012   4.176  0.00  0.00    +0.141 C 
ATOM     13  C   UNL     1     -33.207  26.596   5.515  0.00  0.00    +0.139 C 
ATOM     14  C   UNL     1     -32.339  28.197   3.929  0.00  0.00    +0.087 C 
ATOM     15  C   UNL     1     -32.698  27.386   6.542  0.00  0.00    +0.087 C 
ATOM     16  C   UNL     1     -31.834  28.980   4.965  0.00  0.00    -0.023 C 
ATOM     17  C   UNL     1     -32.014  28.571   6.278  0.00  0.00    -0.023 C 
ENDROOT
BRANCH  10  19
ATOM     18  O   UNL     1     -34.969  19.586   0.996  0.00  0.00    -0.269 OA
ATOM     19  N   UNL     1     -36.608  21.180   0.697  0.00  0.00    -0.280 N 
ATOM     20  C   UNL     1     -36.064  19.906   0.532  0.00  0.00    +0.256 C 
ATOM     21  H   UNL     1     -37.489  21.364   0.298  0.00  0.00    +0.155 HD
BRANCH  20  23
ATOM     22  S   UNL     1     -36.188  17.511  -0.732  0.00  0.00    -0.082 S 
ATOM     23  C   UNL     1     -36.904  18.951  -0.209  0.00  0.00    +0.083 C 
ATOM     24  C   UNL     1     -38.209  19.086  -0.532  0.00  0.00    +0.012 C 
ATOM     25  C   UNL     1     -38.666  17.945  -1.253  0.00  0.00    +0.008 C 
ATOM     26  C   UNL     1     -37.668  17.012  -1.433  0.00  0.00    +0.036 C 
ENDBRANCH  20  23
ENDBRANCH  10  19
BRANCH   7  28
ATOM     27  N   UNL     1     -35.796  22.091   6.757  0.00  0.00    -0.191 NA
ATOM     28  C   UNL     1     -35.455  22.741   5.850  0.00  0.00    +0.105 C 
ENDBRANCH   7  28
TORSDOF 3
ENDMDL
MODEL 5
REMARK VINA RESULT:      -6.3      4.338      7.141
REMARK  Name = 1936439
REMARK  3 active torsions:
REMARK  status: ('A' for Active; 'I' for Inactive)
REMARK    1  A    between atoms: C_7  and  C_28
REMARK    2  A    between atoms: C_10  and  N_19
REMARK    3  A    between atoms: C_20  and  C_23
REMARK                            x       y       z     vdW  Elec       q    Type
REMARK                         _______ _______ _______ _____ _____    ______ ____
ROOT
ATOM      1  N   UNL     1     -35.229  24.916   2.771  0.00  0.00    -0.278 N 
ATOM      2  N   UNL     1     -33.899  26.860   3.382  0.00  0.00    -0.383 NA
ATOM      3  N   UNL     1     -33.839  25.597   5.934  0.00  0.00    -0.399 NA
ATOM      4  C   UNL     1     -35.676  23.787   3.457  0.00  0.00    +0.080 A 
ATOM      5  C   UNL     1     -34.502  25.689   3.647  0.00  0.00    +0.229 A 
ATOM      6  C   UNL     1     -34.487  25.057   4.878  0.00  0.00    +0.188 A 
ATOM      7  C   UNL     1     -35.226  23.859   4.760  0.00  0.00    +0.118 A 
ATOM      8  C   UNL     1     -36.458  22.841   2.730  0.00  0.00    +0.033 C 
ATOM      9  C   UNL     1     -35.516  25.147   1.425  0.00  0.00    +0.084 C 
ATOM     10  C   UNL     1     -36.738  23.061   1.429  0.00  0.00    +0.054 C 
ATOM     11  C   UNL     1     -36.253  24.254   0.746  0.00  0.00    +0.034 C 
ATOM     12  C   UNL     1     -33.259  27.393   4.431  0.00  0.00    +0.141 C 
ATOM     13  C   UNL     1     -33.228  26.766   5.698  0.00  0.00    +0.139 C 
ATOM     14  C   UNL     1     -32.600  28.607   4.267  0.00  0.00    +0.087 C 
ATOM     15  C   UNL     1     -32.542  27.384   6.740  0.00  0.00    +0.087 C 
ATOM     16  C   UNL     1     -31.916  29.215   5.317  0.00  0.00    -0.023 C 
ATOM     17  C   UNL     1     -31.886  28.600   6.559  0.00  0.00    -0.023 C 
ENDROOT
BRANCH  10  19
ATOM     18  O   UNL     1     -39.552  23.001   1.304  0.00  0.00    -0.269 OA
ATOM     19  N   UNL     1     -37.484  22.175   0.706  0.00  0.00    -0.280 N 
ATOM     20  C   UNL     1     -38.879  22.183   0.675  0.00  0.00    +0.256 C 
ATOM     21  H   UNL     1     -37.012  21.491   0.178  0.00  0.00    +0.155 HD
BRANCH  20  23
ATOM     22  S   UNL     1     -38.581  19.802  -0.584  0.00  0.00    -0.082 S 
ATOM     23  C   UNL     1     -39.498  21.166  -0.189  0.00  0.00    +0.083 C 
ATOM     24  C   UNL     1     -40.741  21.187  -0.719  0.00  0.00    +0.012 C 
ATOM     25  C   UNL     1     -40.971  20.018  -1.501  0.00  0.00    +0.008 C 
ATOM     26  C   UNL     1     -39.878  19.180  -1.514  0.00  0.00    +0.036 C 
ENDBRANCH  20  23
ENDBRANCH  10  19
BRANCH   7  28
ATOM     27  N   UNL     1     -35.670  22.104   6.615  0.00  0.00    -0.191 NA
ATOM     28  C   UNL     1     -35.470  22.894   5.780  0.00  0.00    +0.105 C 
ENDBRANCH   7  28
TORSDOF 3
ENDMDL
MODEL 6
REMARK VINA RESULT:      -6.3      8.090      9.863
REMARK  Name = 1936439
REMARK  3 active torsions:
REMARK  status: ('A' for Active; 'I' for Inactive)
REMARK    1  A    between atoms: C_7  and  C_28
REMARK    2  A    between atoms: C_10  and  N_19
REMARK    3  A    between atoms: C_20  and  C_23
REMARK                            x       y       z     vdW  Elec       q    Type
REMARK                         _______ _______ _______ _____ _____    ______ ____
ROOT
ATOM      1  N   UNL     1     -36.905  21.543   1.392  0.00  0.00    -0.278 N 
ATOM      2  N   UNL     1     -38.913  22.869   1.033  0.00  0.00    -0.383 NA
ATOM      3  N   UNL     1     -38.194  24.021   3.536  0.00  0.00    -0.399 NA
ATOM      4  C   UNL     1     -35.945  21.484   2.402  0.00  0.00    +0.080 A 
ATOM      5  C   UNL     1     -37.830  22.503   1.737  0.00  0.00    +0.229 A 
ATOM      6  C   UNL     1     -37.461  23.047   2.954  0.00  0.00    +0.188 A 
ATOM      7  C   UNL     1     -36.274  22.406   3.375  0.00  0.00    +0.118 A 
ATOM      8  C   UNL     1     -34.883  20.545   2.246  0.00  0.00    +0.033 C 
ATOM      9  C   UNL     1     -36.862  20.732   0.258  0.00  0.00    +0.084 C 
ATOM     10  C   UNL     1     -34.837  19.758   1.151  0.00  0.00    +0.054 C 
ATOM     11  C   UNL     1     -35.860  19.850   0.116  0.00  0.00    +0.034 C 
ATOM     12  C   UNL     1     -39.639  23.834   1.614  0.00  0.00    +0.141 C 
ATOM     13  C   UNL     1     -39.283  24.406   2.856  0.00  0.00    +0.139 C 
ATOM     14  C   UNL     1     -40.786  24.289   0.969  0.00  0.00    +0.087 C 
ATOM     15  C   UNL     1     -40.089  25.404   3.395  0.00  0.00    +0.087 C 
ATOM     16  C   UNL     1     -41.585  25.289   1.519  0.00  0.00    -0.023 C 
ATOM     17  C   UNL     1     -41.235  25.850   2.737  0.00  0.00    -0.023 C 
ENDROOT
BRANCH  10  19
ATOM     18  O   UNL     1     -32.214  20.352   0.314  0.00  0.00    -0.269 OA
ATOM     19  N   UNL     1     -33.833  18.850   0.974  0.00  0.00    -0.280 N 
ATOM     20  C   UNL     1     -32.547  19.191   0.556  0.00  0.00    +0.256 C 
ATOM     21  H   UNL     1     -34.028  17.901   1.149  0.00  0.00    +0.155 HD
BRANCH  20  23
ATOM     22  S   UNL     1     -32.186  16.585  -0.094  0.00  0.00    -0.082 S 
ATOM     23  C   UNL     1     -31.597  18.072   0.454  0.00  0.00    +0.083 C 
ATOM     24  C   UNL     1     -30.280  18.086   0.752  0.00  0.00    +0.012 C 
ATOM     25  C   UNL     1     -29.701  16.803   0.521  0.00  0.00    +0.008 C 
ATOM     26  C   UNL     1     -30.627  15.893   0.061  0.00  0.00    +0.036 C 
ENDBRANCH  20  23
ENDBRANCH  10  19
BRANCH   7  28
ATOM     27  N   UNL     1     -34.939  22.855   5.551  0.00  0.00    -0.191 NA
ATOM     28  C   UNL     1     -35.540  22.653   4.571  0.00  0.00    +0.105 C 
ENDBRANCH   7  28
TORSDOF 3
ENDMDL
MODEL 7
REMARK VINA RESULT:      -6.2      6.833      9.113
REMARK  Name = 1936439
REMARK  3 active torsions:
REMARK  status: ('A' for Active; 'I' for Inactive)
REMARK    1  A    between atoms: C_7  and  C_28
REMARK    2  A    between atoms: C_10  and  N_19
REMARK    3  A    between atoms: C_20  and  C_23
REMARK                            x       y       z     vdW  Elec       q    Type
REMARK                         _______ _______ _______ _____ _____    ______ ____
ROOT
ATOM      1  N   UNL     1     -38.710  23.110   1.801  0.00  0.00    -0.278 N 
ATOM      2  N   UNL     1     -40.912  24.089   1.460  0.00  0.00    -0.383 NA
ATOM      3  N   UNL     1     -39.957  26.043   3.298  0.00  0.00    -0.399 NA
ATOM      4  C   UNL     1     -37.599  23.457   2.569  0.00  0.00    +0.080 A 
ATOM      5  C   UNL     1     -39.688  24.056   2.012  0.00  0.00    +0.229 A 
ATOM      6  C   UNL     1     -39.203  24.993   2.907  0.00  0.00    +0.188 A 
ATOM      7  C   UNL     1     -37.887  24.617   3.259  0.00  0.00    +0.118 A 
ATOM      8  C   UNL     1     -36.459  22.603   2.499  0.00  0.00    +0.033 C 
ATOM      9  C   UNL     1     -38.743  21.980   0.983  0.00  0.00    +0.084 C 
ATOM     10  C   UNL     1     -36.486  21.509   1.710  0.00  0.00    +0.054 C 
ATOM     11  C   UNL     1     -37.667  21.180   0.921  0.00  0.00    +0.034 C 
ATOM     12  C   UNL     1     -41.658  25.131   1.851  0.00  0.00    +0.141 C 
ATOM     13  C   UNL     1     -41.184  26.102   2.763  0.00  0.00    +0.139 C 
ATOM     14  C   UNL     1     -42.945  25.262   1.340  0.00  0.00    +0.087 C 
ATOM     15  C   UNL     1     -42.020  27.156   3.121  0.00  0.00    +0.087 C 
ATOM     16  C   UNL     1     -43.773  26.322   1.706  0.00  0.00    -0.023 C 
ATOM     17  C   UNL     1     -43.307  27.273   2.600  0.00  0.00    -0.023 C 
ENDROOT
BRANCH  10  19
ATOM     18  O   UNL     1     -34.332  21.786  -0.084  0.00  0.00    -0.269 OA
ATOM     19  N   UNL     1     -35.411  20.672   1.622  0.00  0.00    -0.280 N 
ATOM     20  C   UNL     1     -34.366  20.850   0.716  0.00  0.00    +0.256 C 
ATOM     21  H   UNL     1     -35.371  19.900   2.232  0.00  0.00    +0.155 HD
BRANCH  20  23
ATOM     22  S   UNL     1     -31.865  20.163  -0.073  0.00  0.00    -0.082 S 
ATOM     23  C   UNL     1     -33.282  19.858   0.798  0.00  0.00    +0.083 C 
ATOM     24  C   UNL     1     -33.277  18.705   1.502  0.00  0.00    +0.012 C 
ATOM     25  C   UNL     1     -32.042  18.016   1.327  0.00  0.00    +0.008 C 
ATOM     26  C   UNL     1     -31.183  18.698   0.493  0.00  0.00    +0.036 C 
ENDBRANCH  20  23
ENDBRANCH  10  19
BRANCH   7  28
ATOM     27  N   UNL     1     -36.287  25.850   4.884  0.00  0.00    -0.191 NA
ATOM     28  C   UNL     1     -37.008  25.294   4.152  0.00  0.00    +0.105 C 
ENDBRANCH   7  28
TORSDOF 3
ENDMDL
MODEL 8
REMARK VINA RESULT:      -6.1      7.109     10.221
REMARK  Name = 1936439
REMARK  3 active torsions:
REMARK  status: ('A' for Active; 'I' for Inactive)
REMARK    1  A    between atoms: C_7  and  C_28
REMARK    2  A    between atoms: C_10  and  N_19
REMARK    3  A    between atoms: C_20  and  C_23
REMARK                            x       y       z     vdW  Elec       q    Type
REMARK                         _______ _______ _______ _____ _____    ______ ____
ROOT
ATOM      1  N   UNL     1     -35.684  20.803   1.838  0.00  0.00    -0.278 N 
ATOM      2  N   UNL     1     -34.812  22.567   3.271  0.00  0.00    -0.383 NA
ATOM      3  N   UNL     1     -37.543  23.369   3.375  0.00  0.00    -0.399 NA
ATOM      4  C   UNL     1     -36.954  20.467   1.372  0.00  0.00    +0.080 A 
ATOM      5  C   UNL     1     -35.802  21.923   2.630  0.00  0.00    +0.229 A 
ATOM      6  C   UNL     1     -37.135  22.294   2.666  0.00  0.00    +0.188 A 
ATOM      7  C   UNL     1     -37.862  21.378   1.874  0.00  0.00    +0.118 A 
ATOM      8  C   UNL     1     -37.063  19.325   0.524  0.00  0.00    +0.033 C 
ATOM      9  C   UNL     1     -34.539  20.076   1.510  0.00  0.00    +0.084 C 
ATOM     10  C   UNL     1     -35.959  18.619   0.204  0.00  0.00    +0.054 C 
ATOM     11  C   UNL     1     -34.647  19.002   0.712  0.00  0.00    +0.034 C 
ATOM     12  C   UNL     1     -35.221  23.634   3.972  0.00  0.00    +0.141 C 
ATOM     13  C   UNL     1     -36.576  24.032   4.024  0.00  0.00    +0.139 C 
ATOM     14  C   UNL     1     -34.275  24.375   4.674  0.00  0.00    +0.087 C 
ATOM     15  C   UNL     1     -36.921  25.152   4.775  0.00  0.00    +0.087 C 
ATOM     16  C   UNL     1     -34.633  25.494   5.422  0.00  0.00    -0.023 C 
ATOM     17  C   UNL     1     -35.963  25.884   5.473  0.00  0.00    -0.023 C 
ENDROOT
BRANCH  10  19
ATOM     18  O   UNL     1     -35.611  18.614  -2.592  0.00  0.00    -0.269 OA
ATOM     19  N   UNL     1     -36.030  17.522  -0.605  0.00  0.00    -0.280 N 
ATOM     20  C   UNL     1     -35.852  17.568  -1.988  0.00  0.00    +0.256 C 
ATOM     21  H   UNL     1     -36.219  16.649  -0.190  0.00  0.00    +0.155 HD
BRANCH  20  23
ATOM     22  S   UNL     1     -35.842  14.869  -1.741  0.00  0.00    -0.082 S 
ATOM     23  C   UNL     1     -35.936  16.272  -2.680  0.00  0.00    +0.083 C 
ATOM     24  C   UNL     1     -36.083  16.059  -4.006  0.00  0.00    +0.012 C 
ATOM     25  C   UNL     1     -36.123  14.662  -4.287  0.00  0.00    +0.008 C 
ATOM     26  C   UNL     1     -36.002  13.901  -3.145  0.00  0.00    +0.036 C 
ENDBRANCH  20  23
ENDBRANCH  10  19
BRANCH   7  28
ATOM     27  N   UNL     1     -40.416  21.375   1.428  0.00  0.00    -0.191 NA
ATOM     28  C   UNL     1     -39.266  21.376   1.629  0.00  0.00    +0.105 C 
ENDBRANCH   7  28
TORSDOF 3
ENDMDL
MODEL 9
REMARK VINA RESULT:      -6.1      7.749     11.070
REMARK  Name = 1936439
REMARK  3 active torsions:
REMARK  status: ('A' for Active; 'I' for Inactive)
REMARK    1  A    between atoms: C_7  and  C_28
REMARK    2  A    between atoms: C_10  and  N_19
REMARK    3  A    between atoms: C_20  and  C_23
REMARK                            x       y       z     vdW  Elec       q    Type
REMARK                         _______ _______ _______ _____ _____    ______ ____
ROOT
ATOM      1  N   UNL     1     -37.761  21.867   1.555  0.00  0.00    -0.278 N 
ATOM      2  N   UNL     1     -36.612  20.024   0.455  0.00  0.00    -0.383 NA
ATOM      3  N   UNL     1     -34.623  20.529   2.429  0.00  0.00    -0.399 NA
ATOM      4  C   UNL     1     -37.462  22.692   2.638  0.00  0.00    +0.080 A 
ATOM      5  C   UNL     1     -36.717  20.985   1.388  0.00  0.00    +0.229 A 
ATOM      6  C   UNL     1     -35.764  21.249   2.356  0.00  0.00    +0.188 A 
ATOM      7  C   UNL     1     -36.232  22.324   3.144  0.00  0.00    +0.118 A 
ATOM      8  C   UNL     1     -38.419  23.690   2.989  0.00  0.00    +0.033 C 
ATOM      9  C   UNL     1     -38.940  21.981   0.818  0.00  0.00    +0.084 C 
ATOM     10  C   UNL     1     -39.561  23.804   2.279  0.00  0.00    +0.054 C 
ATOM     11  C   UNL     1     -39.838  22.921   1.153  0.00  0.00    +0.034 C 
ATOM     12  C   UNL     1     -35.479  19.313   0.530  0.00  0.00    +0.141 C 
ATOM     13  C   UNL     1     -34.491  19.563   1.510  0.00  0.00    +0.139 C 
ATOM     14  C   UNL     1     -35.269  18.291  -0.390  0.00  0.00    +0.087 C 
ATOM     15  C   UNL     1     -33.341  18.781   1.522  0.00  0.00    +0.087 C 
ATOM     16  C   UNL     1     -34.112  17.514  -0.368  0.00  0.00    -0.023 C 
ATOM     17  C   UNL     1     -33.144  17.760   0.594  0.00  0.00    -0.023 C 
ENDROOT
BRANCH  10  19
ATOM     18  O   UNL     1     -39.442  26.529   1.573  0.00  0.00    -0.269 OA
ATOM     19  N   UNL     1     -40.496  24.749   2.590  0.00  0.00    -0.280 N 
ATOM     20  C   UNL     1     -40.394  26.089   2.219  0.00  0.00    +0.256 C 
ATOM     21  H   UNL     1     -41.286  24.468   3.107  0.00  0.00    +0.155 HD
BRANCH  20  23
ATOM     22  S   UNL     1     -42.291  27.854   1.423  0.00  0.00    -0.082 S 
ATOM     23  C   UNL     1     -41.521  26.945   2.623  0.00  0.00    +0.083 C 
ATOM     24  C   UNL     1     -42.031  27.098   3.865  0.00  0.00    +0.012 C 
ATOM     25  C   UNL     1     -43.122  28.015   3.849  0.00  0.00    +0.008 C 
ATOM     26  C   UNL     1     -43.370  28.502   2.585  0.00  0.00    +0.036 C 
ENDBRANCH  20  23
ENDBRANCH  10  19
BRANCH   7  28
ATOM     27  N   UNL     1     -35.035  23.421   5.165  0.00  0.00    -0.191 NA
ATOM     28  C   UNL     1     -35.574  22.927   4.255  0.00  0.00    +0.105 C 
ENDBRANCH   7  28
TORSDOF 3
ENDMDL
