MODEL 1
REMARK VINA RESULT:      -6.3      0.000      0.000
REMARK  Name = 194240
REMARK  6 active torsions:
REMARK  status: ('A' for Active; 'I' for Inactive)
REMARK    1  A    between atoms: C_8  and  O_21
REMARK    2  A    between atoms: C_8  and  C_28
REMARK    3  A    between atoms: C_12  and  O_23
REMARK    4  A    between atoms: C_20  and  O_25
REMARK    5  A    between atoms: C_28  and  C_29
REMARK    6  A    between atoms: C_29  and  O_30
REMARK                            x       y       z     vdW  Elec       q    Type
REMARK                         _______ _______ _______ _____ _____    ______ ____
ROOT
ATOM      1  O   UNL     1     -35.078  25.259   0.433  0.00  0.00    -0.296 OA
ATOM      2  C   UNL     1     -34.843  24.397   3.893  0.00  0.00    +0.009 C 
ATOM      3  C   UNL     1     -33.796  25.457   4.269  0.00  0.00    +0.004 C 
ATOM      4  C   UNL     1     -34.585  23.920   2.430  0.00  0.00    +0.058 C 
ATOM      5  C   UNL     1     -33.829  26.700   3.346  0.00  0.00    +0.036 C 
ATOM      6  C   UNL     1     -35.582  22.792   1.985  0.00  0.00    +0.009 C 
ATOM      7  C   UNL     1     -35.464  21.622   3.025  0.00  0.00    +0.030 C 
ATOM      8  C   UNL     1     -32.773  27.582   4.060  0.00  0.00    +0.142 C 
ATOM      9  C   UNL     1     -34.811  23.216   4.869  0.00  0.00    +0.030 C 
ATOM     10  C   UNL     1     -33.848  26.054   5.673  0.00  0.00    +0.003 C 
ATOM     11  C   UNL     1     -33.490  26.232   1.926  0.00  0.00    +0.067 C 
ATOM     12  C   UNL     1     -35.759  22.089   4.462  0.00  0.00    +0.111 C 
ATOM     13  C   UNL     1     -34.473  25.149   1.498  0.00  0.00    +0.150 C 
ATOM     14  C   UNL     1     -33.062  27.375   5.562  0.00  0.00    +0.034 C 
ATOM     15  C   UNL     1     -35.175  22.218   0.596  0.00  0.00    +0.003 C 
ATOM     16  C   UNL     1     -36.295  20.383   2.625  0.00  0.00    +0.032 C 
ATOM     17  C   UNL     1     -35.209  27.417   3.326  0.00  0.00    +0.003 C 
ATOM     18  C   UNL     1     -37.032  23.336   1.907  0.00  0.00    +0.001 C 
ATOM     19  C   UNL     1     -35.978  20.980   0.180  0.00  0.00    +0.029 C 
ATOM     20  C   UNL     1     -35.934  19.875   1.229  0.00  0.00    +0.111 C 
ENDROOT
BRANCH   8  21
ATOM     21  O   UNL     1     -31.440  27.150   3.806  0.00  0.00    -0.380 OA
ATOM     22  H   UNL     1     -31.214  27.325   2.880  0.00  0.00    +0.211 HD
ENDBRANCH   8  21
BRANCH  12  23
ATOM     23  O   UNL     1     -35.562  21.025   5.392  0.00  0.00    -0.384 OA
ATOM     24  H   UNL     1     -35.582  21.377   6.295  0.00  0.00    +0.210 HD
ENDBRANCH  12  23
BRANCH  20  25
ATOM     25  O   UNL     1     -34.621  19.317   1.276  0.00  0.00    -0.384 OA
ATOM     26  H   UNL     1     -34.404  18.925   0.416  0.00  0.00    +0.210 HD
ENDBRANCH  20  25
BRANCH   8  28
ATOM     27  O   UNL     1     -33.303  29.879   4.405  0.00  0.00    -0.291 OA
ATOM     28  C   UNL     1     -32.780  29.033   3.681  0.00  0.00    +0.204 C 
BRANCH  28  29
ATOM     29  C   UNL     1     -32.112  29.387   2.370  0.00  0.00    +0.204 C 
BRANCH  29  30
ATOM     30  O   UNL     1     -30.751  29.698   2.572  0.00  0.00    -0.375 OA
ATOM     31  H   UNL     1     -30.236  28.877   2.624  0.00  0.00    +0.211 HD
ENDBRANCH  29  30
ENDBRANCH  28  29
ENDBRANCH   8  28
TORSDOF 6
ENDMDL
MODEL 2
REMARK VINA RESULT:      -6.1      4.021      7.131
REMARK  Name = 194240
REMARK  6 active torsions:
REMARK  status: ('A' for Active; 'I' for Inactive)
REMARK    1  A    between atoms: C_8  and  O_21
REMARK    2  A    between atoms: C_8  and  C_28
REMARK    3  A    between atoms: C_12  and  O_23
REMARK    4  A    between atoms: C_20  and  O_25
REMARK    5  A    between atoms: C_28  and  C_29
REMARK    6  A    between atoms: C_29  and  O_30
REMARK                            x       y       z     vdW  Elec       q    Type
REMARK                         _______ _______ _______ _____ _____    ______ ____
ROOT
ATOM      1  O   UNL     1     -37.640  26.347   2.965  0.00  0.00    -0.296 OA
ATOM      2  C   UNL     1     -38.375  23.144   1.562  0.00  0.00    +0.009 C 
ATOM      3  C   UNL     1     -39.809  23.470   1.115  0.00  0.00    +0.004 C 
ATOM      4  C   UNL     1     -38.056  23.930   2.870  0.00  0.00    +0.058 C 
ATOM      5  C   UNL     1     -40.032  24.978   0.838  0.00  0.00    +0.036 C 
ATOM      6  C   UNL     1     -36.622  23.609   3.426  0.00  0.00    +0.009 C 
ATOM      7  C   UNL     1     -36.532  22.054   3.624  0.00  0.00    +0.030 C 
ATOM      8  C   UNL     1     -41.488  24.931   0.309  0.00  0.00    +0.142 C 
ATOM      9  C   UNL     1     -38.188  21.637   1.766  0.00  0.00    +0.030 C 
ATOM     10  C   UNL     1     -40.343  22.792  -0.144  0.00  0.00    +0.003 C 
ATOM     11  C   UNL     1     -39.798  25.731   2.151  0.00  0.00    +0.067 C 
ATOM     12  C   UNL     1     -36.808  21.284   2.320  0.00  0.00    +0.111 C 
ATOM     13  C   UNL     1     -38.399  25.425   2.673  0.00  0.00    +0.150 C 
ATOM     14  C   UNL     1     -41.526  23.676  -0.588  0.00  0.00    +0.034 C 
ATOM     15  C   UNL     1     -36.416  24.266   4.822  0.00  0.00    +0.003 C 
ATOM     16  C   UNL     1     -35.215  21.615   4.301  0.00  0.00    +0.032 C 
ATOM     17  C   UNL     1     -39.080  25.551  -0.250  0.00  0.00    +0.003 C 
ATOM     18  C   UNL     1     -35.527  24.120   2.454  0.00  0.00    +0.001 C 
ATOM     19  C   UNL     1     -35.120  23.838   5.520  0.00  0.00    +0.029 C 
ATOM     20  C   UNL     1     -34.991  22.323   5.637  0.00  0.00    +0.111 C 
ENDROOT
BRANCH   8  21
ATOM     21  O   UNL     1     -42.441  24.753   1.352  0.00  0.00    -0.380 OA
ATOM     22  H   UNL     1     -43.232  25.281   1.163  0.00  0.00    +0.211 HD
ENDBRANCH   8  21
BRANCH  12  23
ATOM     23  O   UNL     1     -36.802  19.876   2.551  0.00  0.00    -0.384 OA
ATOM     24  H   UNL     1     -37.141  19.693   3.440  0.00  0.00    +0.210 HD
ENDBRANCH  12  23
BRANCH  20  25
ATOM     25  O   UNL     1     -35.952  21.835   6.574  0.00  0.00    -0.384 OA
ATOM     26  H   UNL     1     -36.635  21.333   6.104  0.00  0.00    +0.210 HD
ENDBRANCH  20  25
BRANCH   8  28
ATOM     27  O   UNL     1     -42.033  26.177  -1.648  0.00  0.00    -0.291 OA
ATOM     28  C   UNL     1     -41.950  26.157  -0.420  0.00  0.00    +0.204 C 
BRANCH  28  29
ATOM     29  C   UNL     1     -42.305  27.354   0.435  0.00  0.00    +0.204 C 
BRANCH  29  30
ATOM     30  O   UNL     1     -43.665  27.317   0.807  0.00  0.00    -0.375 OA
ATOM     31  H   UNL     1     -44.136  28.053   0.386  0.00  0.00    +0.211 HD
ENDBRANCH  29  30
ENDBRANCH  28  29
ENDBRANCH   8  28
TORSDOF 6
ENDMDL
MODEL 3
REMARK VINA RESULT:      -6.0      2.708      3.881
REMARK  Name = 194240
REMARK  6 active torsions:
REMARK  status: ('A' for Active; 'I' for Inactive)
REMARK    1  A    between atoms: C_8  and  O_21
REMARK    2  A    between atoms: C_8  and  C_28
REMARK    3  A    between atoms: C_12  and  O_23
REMARK    4  A    between atoms: C_20  and  O_25
REMARK    5  A    between atoms: C_28  and  C_29
REMARK    6  A    between atoms: C_29  and  O_30
REMARK                            x       y       z     vdW  Elec       q    Type
REMARK                         _______ _______ _______ _____ _____    ______ ____
ROOT
ATOM      1  O   UNL     1     -37.843  27.181   1.870  0.00  0.00    -0.296 OA
ATOM      2  C   UNL     1     -37.028  23.914   3.068  0.00  0.00    +0.009 C 
ATOM      3  C   UNL     1     -35.590  24.238   3.504  0.00  0.00    +0.004 C 
ATOM      4  C   UNL     1     -37.387  24.770   1.814  0.00  0.00    +0.058 C 
ATOM      5  C   UNL     1     -35.386  25.731   3.865  0.00  0.00    +0.036 C 
ATOM      6  C   UNL     1     -38.826  24.457   1.270  0.00  0.00    +0.009 C 
ATOM      7  C   UNL     1     -38.896  22.915   0.982  0.00  0.00    +0.030 C 
ATOM      8  C   UNL     1     -33.917  25.679   4.361  0.00  0.00    +0.142 C 
ATOM      9  C   UNL     1     -37.195  22.419   2.779  0.00  0.00    +0.030 C 
ATOM     10  C   UNL     1     -35.019  23.497   4.710  0.00  0.00    +0.003 C 
ATOM     11  C   UNL     1     -35.659  26.556   2.603  0.00  0.00    +0.067 C 
ATOM     12  C   UNL     1     -38.580  22.075   2.234  0.00  0.00    +0.111 C 
ATOM     13  C   UNL     1     -37.064  26.257   2.093  0.00  0.00    +0.150 C 
ATOM     14  C   UNL     1     -33.841  24.374   5.181  0.00  0.00    +0.034 C 
ATOM     15  C   UNL     1     -39.073  25.190  -0.081  0.00  0.00    +0.003 C 
ATOM     16  C   UNL     1     -40.220  22.494   0.308  0.00  0.00    +0.032 C 
ATOM     17  C   UNL     1     -36.324  26.223   5.004  0.00  0.00    +0.003 C 
ATOM     18  C   UNL     1     -39.909  24.891   2.291  0.00  0.00    +0.001 C 
ATOM     19  C   UNL     1     -40.376  24.782  -0.776  0.00  0.00    +0.029 C 
ATOM     20  C   UNL     1     -40.483  23.275  -0.980  0.00  0.00    +0.111 C 
ENDROOT
BRANCH   8  21
ATOM     21  O   UNL     1     -32.985  25.578   3.290  0.00  0.00    -0.380 OA
ATOM     22  H   UNL     1     -33.382  25.931   2.479  0.00  0.00    +0.211 HD
ENDBRANCH   8  21
BRANCH  12  23
ATOM     23  O   UNL     1     -38.569  20.683   1.920  0.00  0.00    -0.384 OA
ATOM     24  H   UNL     1     -37.953  20.521   1.189  0.00  0.00    +0.210 HD
ENDBRANCH  12  23
BRANCH  20  25
ATOM     25  O   UNL     1     -39.535  22.859  -1.962  0.00  0.00    -0.384 OA
ATOM     26  H   UNL     1     -38.636  23.021  -1.635  0.00  0.00    +0.210 HD
ENDBRANCH  20  25
BRANCH   8  28
ATOM     27  O   UNL     1     -33.285  27.962   4.616  0.00  0.00    -0.291 OA
ATOM     28  C   UNL     1     -33.460  26.867   5.151  0.00  0.00    +0.204 C 
BRANCH  28  29
ATOM     29  C   UNL     1     -33.230  26.642   6.631  0.00  0.00    +0.204 C 
BRANCH  29  30
ATOM     30  O   UNL     1     -31.924  27.030   6.997  0.00  0.00    -0.375 OA
ATOM     31  H   UNL     1     -31.329  26.265   6.932  0.00  0.00    +0.211 HD
ENDBRANCH  29  30
ENDBRANCH  28  29
ENDBRANCH   8  28
TORSDOF 6
ENDMDL
MODEL 4
REMARK VINA RESULT:      -6.0      3.012      4.867
REMARK  Name = 194240
REMARK  6 active torsions:
REMARK  status: ('A' for Active; 'I' for Inactive)
REMARK    1  A    between atoms: C_8  and  O_21
REMARK    2  A    between atoms: C_8  and  C_28
REMARK    3  A    between atoms: C_12  and  O_23
REMARK    4  A    between atoms: C_20  and  O_25
REMARK    5  A    between atoms: C_28  and  C_29
REMARK    6  A    between atoms: C_29  and  O_30
REMARK                            x       y       z     vdW  Elec       q    Type
REMARK                         _______ _______ _______ _____ _____    ______ ____
ROOT
ATOM      1  O   UNL     1     -33.423  23.152   0.388  0.00  0.00    -0.296 OA
ATOM      2  C   UNL     1     -36.450  21.356   1.001  0.00  0.00    +0.009 C 
ATOM      3  C   UNL     1     -37.023  22.325   2.048  0.00  0.00    +0.004 C 
ATOM      4  C   UNL     1     -34.896  21.332   1.123  0.00  0.00    +0.058 C 
ATOM      5  C   UNL     1     -36.504  23.775   1.883  0.00  0.00    +0.036 C 
ATOM      6  C   UNL     1     -34.234  20.321   0.120  0.00  0.00    +0.009 C 
ATOM      7  C   UNL     1     -34.877  18.912   0.379  0.00  0.00    +0.030 C 
ATOM      8  C   UNL     1     -37.347  24.477   2.979  0.00  0.00    +0.142 C 
ATOM      9  C   UNL     1     -37.037  19.951   1.168  0.00  0.00    +0.030 C 
ATOM     10  C   UNL     1     -38.538  22.493   2.122  0.00  0.00    +0.003 C 
ATOM     11  C   UNL     1     -34.986  23.751   2.089  0.00  0.00    +0.067 C 
ATOM     12  C   UNL     1     -36.408  18.932   0.217  0.00  0.00    +0.111 C 
ATOM     13  C   UNL     1     -34.352  22.780   1.101  0.00  0.00    +0.150 C 
ATOM     14  C   UNL     1     -38.744  23.835   2.852  0.00  0.00    +0.034 C 
ATOM     15  C   UNL     1     -32.708  20.191   0.400  0.00  0.00    +0.003 C 
ATOM     16  C   UNL     1     -34.211  17.792  -0.451  0.00  0.00    +0.032 C 
ATOM     17  C   UNL     1     -36.816  24.386   0.487  0.00  0.00    +0.003 C 
ATOM     18  C   UNL     1     -34.446  20.779  -1.346  0.00  0.00    +0.001 C 
ATOM     19  C   UNL     1     -32.025  19.078  -0.403  0.00  0.00    +0.029 C 
ATOM     20  C   UNL     1     -32.701  17.725  -0.219  0.00  0.00    +0.111 C 
ENDROOT
BRANCH   8  21
ATOM     21  O   UNL     1     -36.861  24.214   4.292  0.00  0.00    -0.380 OA
ATOM     22  H   UNL     1     -37.256  23.393   4.624  0.00  0.00    +0.211 HD
ENDBRANCH   8  21
BRANCH  12  23
ATOM     23  O   UNL     1     -36.969  17.661   0.540  0.00  0.00    -0.384 OA
ATOM     24  H   UNL     1     -37.877  17.780   0.859  0.00  0.00    +0.210 HD
ENDBRANCH  12  23
BRANCH  20  25
ATOM     25  O   UNL     1     -32.469  17.253   1.108  0.00  0.00    -0.384 OA
ATOM     26  H   UNL     1     -33.302  16.938   1.491  0.00  0.00    +0.210 HD
ENDBRANCH  20  25
BRANCH   8  28
ATOM     27  O   UNL     1     -38.436  26.552   2.548  0.00  0.00    -0.291 OA
ATOM     28  C   UNL     1     -37.405  25.973   2.890  0.00  0.00    +0.204 C 
BRANCH  28  29
ATOM     29  C   UNL     1     -36.135  26.717   3.241  0.00  0.00    +0.204 C 
BRANCH  29  30
ATOM     30  O   UNL     1     -36.055  26.937   4.633  0.00  0.00    -0.375 OA
ATOM     31  H   UNL     1     -36.222  27.875   4.822  0.00  0.00    +0.211 HD
ENDBRANCH  29  30
ENDBRANCH  28  29
ENDBRANCH   8  28
TORSDOF 6
ENDMDL
MODEL 5
REMARK VINA RESULT:      -5.9      1.829      7.106
REMARK  Name = 194240
REMARK  6 active torsions:
REMARK  status: ('A' for Active; 'I' for Inactive)
REMARK    1  A    between atoms: C_8  and  O_21
REMARK    2  A    between atoms: C_8  and  C_28
REMARK    3  A    between atoms: C_12  and  O_23
REMARK    4  A    between atoms: C_20  and  O_25
REMARK    5  A    between atoms: C_28  and  C_29
REMARK    6  A    between atoms: C_29  and  O_30
REMARK                            x       y       z     vdW  Elec       q    Type
REMARK                         _______ _______ _______ _____ _____    ______ ____
ROOT
ATOM      1  O   UNL     1     -35.479  26.275   0.270  0.00  0.00    -0.296 OA
ATOM      2  C   UNL     1     -34.261  25.535   3.547  0.00  0.00    +0.009 C 
ATOM      3  C   UNL     1     -35.204  24.353   3.825  0.00  0.00    +0.004 C 
ATOM      4  C   UNL     1     -35.000  26.581   2.658  0.00  0.00    +0.058 C 
ATOM      5  C   UNL     1     -35.681  23.639   2.535  0.00  0.00    +0.036 C 
ATOM      6  C   UNL     1     -34.120  27.850   2.373  0.00  0.00    +0.009 C 
ATOM      7  C   UNL     1     -33.686  28.444   3.760  0.00  0.00    +0.030 C 
ATOM      8  C   UNL     1     -36.480  22.470   3.167  0.00  0.00    +0.142 C 
ATOM      9  C   UNL     1     -33.771  26.170   4.852  0.00  0.00    +0.030 C 
ATOM     10  C   UNL     1     -34.691  23.211   4.697  0.00  0.00    +0.003 C 
ATOM     11  C   UNL     1     -36.478  24.654   1.710  0.00  0.00    +0.067 C 
ATOM     12  C   UNL     1     -32.921  27.418   4.617  0.00  0.00    +0.111 C 
ATOM     13  C   UNL     1     -35.610  25.874   1.425  0.00  0.00    +0.150 C 
ATOM     14  C   UNL     1     -35.614  22.023   4.364  0.00  0.00    +0.034 C 
ATOM     15  C   UNL     1     -34.956  28.943   1.644  0.00  0.00    +0.003 C 
ATOM     16  C   UNL     1     -32.928  29.782   3.624  0.00  0.00    +0.032 C 
ATOM     17  C   UNL     1     -34.512  23.088   1.668  0.00  0.00    +0.003 C 
ATOM     18  C   UNL     1     -32.889  27.485   1.503  0.00  0.00    +0.001 C 
ATOM     19  C   UNL     1     -34.229  30.286   1.506  0.00  0.00    +0.029 C 
ATOM     20  C   UNL     1     -33.732  30.822   2.843  0.00  0.00    +0.111 C 
ENDROOT
BRANCH   8  21
ATOM     21  O   UNL     1     -37.745  22.887   3.672  0.00  0.00    -0.380 OA
ATOM     22  H   UNL     1     -38.453  22.446   3.177  0.00  0.00    +0.211 HD
ENDBRANCH   8  21
BRANCH  12  23
ATOM     23  O   UNL     1     -32.615  27.959   5.901  0.00  0.00    -0.384 OA
ATOM     24  H   UNL     1     -32.042  27.344   6.383  0.00  0.00    +0.210 HD
ENDBRANCH  12  23
BRANCH  20  25
ATOM     25  O   UNL     1     -34.847  31.222   3.640  0.00  0.00    -0.384 OA
ATOM     26  H   UNL     1     -35.600  30.639   3.459  0.00  0.00    +0.210 HD
ENDBRANCH  20  25
BRANCH   8  28
ATOM     27  O   UNL     1     -36.050  20.357   2.153  0.00  0.00    -0.291 OA
ATOM     28  C   UNL     1     -36.797  21.331   2.245  0.00  0.00    +0.204 C 
BRANCH  28  29
ATOM     29  C   UNL     1     -38.076  21.451   1.444  0.00  0.00    +0.204 C 
BRANCH  29  30
ATOM     30  O   UNL     1     -39.183  21.020   2.205  0.00  0.00    -0.375 OA
ATOM     31  H   UNL     1     -39.446  20.130   1.919  0.00  0.00    +0.211 HD
ENDBRANCH  29  30
ENDBRANCH  28  29
ENDBRANCH   8  28
TORSDOF 6
ENDMDL
MODEL 6
REMARK VINA RESULT:      -5.9      2.754      4.619
REMARK  Name = 194240
REMARK  6 active torsions:
REMARK  status: ('A' for Active; 'I' for Inactive)
REMARK    1  A    between atoms: C_8  and  O_21
REMARK    2  A    between atoms: C_8  and  C_28
REMARK    3  A    between atoms: C_12  and  O_23
REMARK    4  A    between atoms: C_20  and  O_25
REMARK    5  A    between atoms: C_28  and  C_29
REMARK    6  A    between atoms: C_29  and  O_30
REMARK                            x       y       z     vdW  Elec       q    Type
REMARK                         _______ _______ _______ _____ _____    ______ ____
ROOT
ATOM      1  O   UNL     1     -33.327  25.129   4.545  0.00  0.00    -0.296 OA
ATOM      2  C   UNL     1     -34.559  27.915   2.677  0.00  0.00    +0.009 C 
ATOM      3  C   UNL     1     -33.757  28.996   3.419  0.00  0.00    +0.004 C 
ATOM      4  C   UNL     1     -34.927  26.775   3.676  0.00  0.00    +0.058 C 
ATOM      5  C   UNL     1     -32.444  28.459   4.041  0.00  0.00    +0.036 C 
ATOM      6  C   UNL     1     -35.798  25.653   3.006  0.00  0.00    +0.009 C 
ATOM      7  C   UNL     1     -37.068  26.345   2.394  0.00  0.00    +0.030 C 
ATOM      8  C   UNL     1     -31.850  29.786   4.580  0.00  0.00    +0.142 C 
ATOM      9  C   UNL     1     -35.816  28.506   2.030  0.00  0.00    +0.030 C 
ATOM     10  C   UNL     1     -33.304  30.224   2.634  0.00  0.00    +0.003 C 
ATOM     11  C   UNL     1     -32.822  27.399   5.082  0.00  0.00    +0.067 C 
ATOM     12  C   UNL     1     -36.699  27.443   1.379  0.00  0.00    +0.111 C 
ATOM     13  C   UNL     1     -33.653  26.308   4.419  0.00  0.00    +0.150 C 
ATOM     14  C   UNL     1     -32.149  30.813   3.467  0.00  0.00    +0.034 C 
ATOM     15  C   UNL     1     -36.296  24.636   4.075  0.00  0.00    +0.003 C 
ATOM     16  C   UNL     1     -38.083  25.330   1.824  0.00  0.00    +0.032 C 
ATOM     17  C   UNL     1     -31.483  27.821   2.998  0.00  0.00    +0.003 C 
ATOM     18  C   UNL     1     -34.987  24.897   1.922  0.00  0.00    +0.001 C 
ATOM     19  C   UNL     1     -37.314  23.624   3.536  0.00  0.00    +0.029 C 
ATOM     20  C   UNL     1     -38.507  24.295   2.866  0.00  0.00    +0.111 C 
ENDROOT
BRANCH   8  21
ATOM     21  O   UNL     1     -32.497  30.228   5.769  0.00  0.00    -0.380 OA
ATOM     22  H   UNL     1     -33.346  30.639   5.543  0.00  0.00    +0.211 HD
ENDBRANCH   8  21
BRANCH  12  23
ATOM     23  O   UNL     1     -37.869  28.108   0.904  0.00  0.00    -0.384 OA
ATOM     24  H   UNL     1     -38.600  27.474   0.848  0.00  0.00    +0.210 HD
ENDBRANCH  12  23
BRANCH  20  25
ATOM     25  O   UNL     1     -39.304  24.948   3.854  0.00  0.00    -0.384 OA
ATOM     26  H   UNL     1     -38.729  25.448   4.454  0.00  0.00    +0.210 HD
ENDBRANCH  20  25
BRANCH   8  28
ATOM     27  O   UNL     1     -29.569  30.423   4.319  0.00  0.00    -0.291 OA
ATOM     28  C   UNL     1     -30.394  29.746   4.933  0.00  0.00    +0.204 C 
BRANCH  28  29
ATOM     29  C   UNL     1     -30.004  28.834   6.077  0.00  0.00    +0.204 C 
BRANCH  29  30
ATOM     30  O   UNL     1     -30.400  29.388   7.313  0.00  0.00    -0.375 OA
ATOM     31  H   UNL     1     -30.056  30.292   7.387  0.00  0.00    +0.211 HD
ENDBRANCH  29  30
ENDBRANCH  28  29
ENDBRANCH   8  28
TORSDOF 6
ENDMDL
MODEL 7
REMARK VINA RESULT:      -5.8      2.392      7.508
REMARK  Name = 194240
REMARK  6 active torsions:
REMARK  status: ('A' for Active; 'I' for Inactive)
REMARK    1  A    between atoms: C_8  and  O_21
REMARK    2  A    between atoms: C_8  and  C_28
REMARK    3  A    between atoms: C_12  and  O_23
REMARK    4  A    between atoms: C_20  and  O_25
REMARK    5  A    between atoms: C_28  and  C_29
REMARK    6  A    between atoms: C_29  and  O_30
REMARK                            x       y       z     vdW  Elec       q    Type
REMARK                         _______ _______ _______ _____ _____    ______ ____
ROOT
ATOM      1  O   UNL     1     -33.329  28.013   1.117  0.00  0.00    -0.296 OA
ATOM      2  C   UNL     1     -33.064  27.174   4.581  0.00  0.00    +0.009 C 
ATOM      3  C   UNL     1     -34.455  26.536   4.716  0.00  0.00    +0.004 C 
ATOM      4  C   UNL     1     -33.133  28.336   3.542  0.00  0.00    +0.058 C 
ATOM      5  C   UNL     1     -34.992  25.958   3.383  0.00  0.00    +0.036 C 
ATOM      6  C   UNL     1     -31.759  29.080   3.386  0.00  0.00    +0.009 C 
ATOM      7  C   UNL     1     -31.327  29.576   4.811  0.00  0.00    +0.030 C 
ATOM      8  C   UNL     1     -36.304  25.308   3.891  0.00  0.00    +0.142 C 
ATOM      9  C   UNL     1     -32.552  27.677   5.934  0.00  0.00    +0.030 C 
ATOM     10  C   UNL     1     -34.626  25.381   5.700  0.00  0.00    +0.003 C 
ATOM     11  C   UNL     1     -35.136  27.123   2.397  0.00  0.00    +0.067 C 
ATOM     12  C   UNL     1     -31.221  28.420   5.822  0.00  0.00    +0.111 C 
ATOM     13  C   UNL     1     -33.794  27.827   2.240  0.00  0.00    +0.150 C 
ATOM     14  C   UNL     1     -35.910  24.665   5.238  0.00  0.00    +0.034 C 
ATOM     15  C   UNL     1     -31.918  30.340   2.486  0.00  0.00    +0.003 C 
ATOM     16  C   UNL     1     -30.053  30.449   4.777  0.00  0.00    +0.032 C 
ATOM     17  C   UNL     1     -34.060  24.880   2.759  0.00  0.00    +0.003 C 
ATOM     18  C   UNL     1     -30.691  28.142   2.765  0.00  0.00    +0.001 C 
ATOM     19  C   UNL     1     -30.670  31.230   2.444  0.00  0.00    +0.029 C 
ATOM     20  C   UNL     1     -30.200  31.643   3.833  0.00  0.00    +0.111 C 
ENDROOT
BRANCH   8  21
ATOM     21  O   UNL     1     -37.325  26.268   4.146  0.00  0.00    -0.380 OA
ATOM     22  H   UNL     1     -37.898  26.345   3.368  0.00  0.00    +0.211 HD
ENDBRANCH   8  21
BRANCH  12  23
ATOM     23  O   UNL     1     -30.909  28.912   7.124  0.00  0.00    -0.384 OA
ATOM     24  H   UNL     1     -29.966  28.776   7.305  0.00  0.00    +0.210 HD
ENDBRANCH  12  23
BRANCH  20  25
ATOM     25  O   UNL     1     -31.138  32.556   4.402  0.00  0.00    -0.384 OA
ATOM     26  H   UNL     1     -30.710  33.063   5.109  0.00  0.00    +0.210 HD
ENDBRANCH  20  25
BRANCH   8  28
ATOM     27  O   UNL     1     -37.551  24.686   1.958  0.00  0.00    -0.291 OA
ATOM     28  C   UNL     1     -36.938  24.318   2.960  0.00  0.00    +0.204 C 
BRANCH  28  29
ATOM     29  C   UNL     1     -36.779  22.857   3.323  0.00  0.00    +0.204 C 
BRANCH  29  30
ATOM     30  O   UNL     1     -37.904  22.114   2.906  0.00  0.00    -0.375 OA
ATOM     31  H   UNL     1     -37.980  21.312   3.445  0.00  0.00    +0.211 HD
ENDBRANCH  29  30
ENDBRANCH  28  29
ENDBRANCH   8  28
TORSDOF 6
ENDMDL
MODEL 8
REMARK VINA RESULT:      -5.7      3.498      7.155
REMARK  Name = 194240
REMARK  6 active torsions:
REMARK  status: ('A' for Active; 'I' for Inactive)
REMARK    1  A    between atoms: C_8  and  O_21
REMARK    2  A    between atoms: C_8  and  C_28
REMARK    3  A    between atoms: C_12  and  O_23
REMARK    4  A    between atoms: C_20  and  O_25
REMARK    5  A    between atoms: C_28  and  C_29
REMARK    6  A    between atoms: C_29  and  O_30
REMARK                            x       y       z     vdW  Elec       q    Type
REMARK                         _______ _______ _______ _____ _____    ______ ____
ROOT
ATOM      1  O   UNL     1     -35.273  23.701  -0.694  0.00  0.00    -0.296 OA
ATOM      2  C   UNL     1     -34.828  21.477   2.067  0.00  0.00    +0.009 C 
ATOM      3  C   UNL     1     -34.727  20.185   1.241  0.00  0.00    +0.004 C 
ATOM      4  C   UNL     1     -35.806  22.463   1.357  0.00  0.00    +0.058 C 
ATOM      5  C   UNL     1     -34.208  20.423  -0.199  0.00  0.00    +0.036 C 
ATOM      6  C   UNL     1     -36.009  23.791   2.170  0.00  0.00    +0.009 C 
ATOM      7  C   UNL     1     -36.499  23.394   3.607  0.00  0.00    +0.030 C 
ATOM      8  C   UNL     1     -34.115  18.955  -0.687  0.00  0.00    +0.142 C 
ATOM      9  C   UNL     1     -35.288  21.183   3.499  0.00  0.00    +0.030 C 
ATOM     10  C   UNL     1     -33.831  19.065   1.762  0.00  0.00    +0.003 C 
ATOM     11  C   UNL     1     -35.221  21.325  -0.914  0.00  0.00    +0.067 C 
ATOM     12  C   UNL     1     -35.510  22.453   4.320  0.00  0.00    +0.111 C 
ATOM     13  C   UNL     1     -35.397  22.617  -0.127  0.00  0.00    +0.150 C 
ATOM     14  C   UNL     1     -33.547  18.189   0.526  0.00  0.00    +0.034 C 
ATOM     15  C   UNL     1     -37.126  24.663   1.525  0.00  0.00    +0.003 C 
ATOM     16  C   UNL     1     -36.871  24.620   4.470  0.00  0.00    +0.032 C 
ATOM     17  C   UNL     1     -32.808  21.099  -0.246  0.00  0.00    +0.003 C 
ATOM     18  C   UNL     1     -34.693  24.610   2.226  0.00  0.00    +0.001 C 
ATOM     19  C   UNL     1     -37.522  25.881   2.367  0.00  0.00    +0.029 C 
ATOM     20  C   UNL     1     -37.917  25.505   3.790  0.00  0.00    +0.111 C 
ENDROOT
BRANCH   8  21
ATOM     21  O   UNL     1     -35.390  18.402  -0.997  0.00  0.00    -0.380 OA
ATOM     22  H   UNL     1     -35.745  18.832  -1.790  0.00  0.00    +0.211 HD
ENDBRANCH   8  21
BRANCH  12  23
ATOM     23  O   UNL     1     -36.022  22.044   5.587  0.00  0.00    -0.384 OA
ATOM     24  H   UNL     1     -35.286  21.889   6.198  0.00  0.00    +0.210 HD
ENDBRANCH  12  23
BRANCH  20  25
ATOM     25  O   UNL     1     -39.159  24.801   3.769  0.00  0.00    -0.384 OA
ATOM     26  H   UNL     1     -38.998  23.866   3.570  0.00  0.00    +0.210 HD
ENDBRANCH  20  25
BRANCH   8  28
ATOM     27  O   UNL     1     -33.612  19.245  -2.998  0.00  0.00    -0.291 OA
ATOM     28  C   UNL     1     -33.295  18.736  -1.924  0.00  0.00    +0.204 C 
BRANCH  28  29
ATOM     29  C   UNL     1     -32.069  17.861  -1.771  0.00  0.00    +0.204 C 
BRANCH  29  30
ATOM     30  O   UNL     1     -30.893  18.640  -1.813  0.00  0.00    -0.375 OA
ATOM     31  H   UNL     1     -30.836  19.183  -1.011  0.00  0.00    +0.211 HD
ENDBRANCH  29  30
ENDBRANCH  28  29
ENDBRANCH   8  28
TORSDOF 6
ENDMDL
MODEL 9
REMARK VINA RESULT:      -5.6      1.659      2.419
REMARK  Name = 194240
REMARK  6 active torsions:
REMARK  status: ('A' for Active; 'I' for Inactive)
REMARK    1  A    between atoms: C_8  and  O_21
REMARK    2  A    between atoms: C_8  and  C_28
REMARK    3  A    between atoms: C_12  and  O_23
REMARK    4  A    between atoms: C_20  and  O_25
REMARK    5  A    between atoms: C_28  and  C_29
REMARK    6  A    between atoms: C_29  and  O_30
REMARK                            x       y       z     vdW  Elec       q    Type
REMARK                         _______ _______ _______ _____ _____    ______ ____
ROOT
ATOM      1  O   UNL     1     -33.436  24.156  -0.482  0.00  0.00    -0.296 OA
ATOM      2  C   UNL     1     -35.592  23.142   2.181  0.00  0.00    +0.009 C 
ATOM      3  C   UNL     1     -35.154  24.220   3.185  0.00  0.00    +0.004 C 
ATOM      4  C   UNL     1     -34.373  22.744   1.293  0.00  0.00    +0.058 C 
ATOM      5  C   UNL     1     -34.615  25.502   2.504  0.00  0.00    +0.036 C 
ATOM      6  C   UNL     1     -34.724  21.603   0.273  0.00  0.00    +0.009 C 
ATOM      7  C   UNL     1     -35.285  20.390   1.097  0.00  0.00    +0.030 C 
ATOM      8  C   UNL     1     -34.392  26.387   3.758  0.00  0.00    +0.142 C 
ATOM      9  C   UNL     1     -36.171  21.919   2.899  0.00  0.00    +0.030 C 
ATOM     10  C   UNL     1     -36.190  24.748   4.173  0.00  0.00    +0.003 C 
ATOM     11  C   UNL     1     -33.368  25.114   1.703  0.00  0.00    +0.067 C 
ATOM     12  C   UNL     1     -36.514  20.779   1.941  0.00  0.00    +0.111 C 
ATOM     13  C   UNL     1     -33.723  24.019   0.705  0.00  0.00    +0.150 C 
ATOM     14  C   UNL     1     -35.621  26.100   4.647  0.00  0.00    +0.034 C 
ATOM     15  C   UNL     1     -33.442  21.110  -0.460  0.00  0.00    +0.003 C 
ATOM     16  C   UNL     1     -35.541  19.143   0.223  0.00  0.00    +0.032 C 
ATOM     17  C   UNL     1     -35.643  26.170   1.547  0.00  0.00    +0.003 C 
ATOM     18  C   UNL     1     -35.753  22.099  -0.777  0.00  0.00    +0.001 C 
ATOM     19  C   UNL     1     -33.667  19.866  -1.327  0.00  0.00    +0.029 C 
ATOM     20  C   UNL     1     -34.291  18.715  -0.547  0.00  0.00    +0.111 C 
ENDROOT
BRANCH   8  21
ATOM     21  O   UNL     1     -33.227  26.015   4.487  0.00  0.00    -0.380 OA
ATOM     22  H   UNL     1     -32.469  25.967   3.884  0.00  0.00    +0.211 HD
ENDBRANCH   8  21
BRANCH  12  23
ATOM     23  O   UNL     1     -36.948  19.680   2.740  0.00  0.00    -0.384 OA
ATOM     24  H   UNL     1     -36.446  19.665   3.569  0.00  0.00    +0.210 HD
ENDBRANCH  12  23
BRANCH  20  25
ATOM     25  O   UNL     1     -33.340  18.201   0.386  0.00  0.00    -0.384 OA
ATOM     26  H   UNL     1     -32.933  17.399   0.025  0.00  0.00    +0.210 HD
ENDBRANCH  20  25
BRANCH   8  28
ATOM     27  O   UNL     1     -35.187  28.574   3.244  0.00  0.00    -0.291 OA
ATOM     28  C   UNL     1     -34.221  27.853   3.492  0.00  0.00    +0.204 C 
BRANCH  28  29
ATOM     29  C   UNL     1     -32.805  28.384   3.548  0.00  0.00    +0.204 C 
BRANCH  29  30
ATOM     30  O   UNL     1     -32.579  29.075   4.758  0.00  0.00    -0.375 OA
ATOM     31  H   UNL     1     -33.419  29.434   5.087  0.00  0.00    +0.211 HD
ENDBRANCH  29  30
ENDBRANCH  28  29
ENDBRANCH   8  28
TORSDOF 6
ENDMDL
