MODEL 1
REMARK VINA RESULT:      -5.5      0.000      0.000
REMARK  Name = 194873
REMARK  10 active torsions:
REMARK  status: ('A' for Active; 'I' for Inactive)
REMARK    1  A    between atoms: C_2  and  N_6
REMARK    2  A    between atoms: C_3  and  O_18
REMARK    3  A    between atoms: C_4  and  C_20
REMARK    4  A    between atoms: C_20  and  S_21
REMARK    5  A    between atoms: S_21  and  C_22
REMARK    6  A    between atoms: C_22  and  C_23
REMARK    7  A    between atoms: C_23  and  C_24
REMARK    8  A    between atoms: C_24  and  N_25
REMARK    9  A    between atoms: C_24  and  C_30
REMARK   10  A    between atoms: C_30  and  O_31
REMARK                            x       y       z     vdW  Elec       q    Type
REMARK                         _______ _______ _______ _____ _____    ______ ____
ROOT
ATOM      1  O   UNK     1     -38.444  23.809   3.117  0.00  0.00    -0.340 OA
ATOM      2  C   UNK     1     -38.539  25.164   3.595  0.00  0.00    +0.205 C 
ATOM      3  C   UNK     1     -39.782  25.794   2.968  0.00  0.00    +0.156 C 
ATOM      4  C   UNK     1     -39.647  23.502   2.399  0.00  0.00    +0.130 C 
ATOM      5  C   UNK     1     -40.160  24.829   1.864  0.00  0.00    +0.064 C 
ENDROOT
BRANCH   2   6
ATOM      6  N   UNK     1     -37.299  25.871   3.271  0.00  0.00    -0.220 NA
ATOM      7  N   UNK     1     -35.831  27.048   2.086  0.00  0.00    -0.252 NA
ATOM      8  N   UNK     1     -33.767  26.697   5.142  0.00  0.00    -0.229 NA
ATOM      9  N   UNK     1     -33.133  27.838   3.141  0.00  0.00    -0.342 N 
ATOM     10  C   UNK     1     -36.206  26.025   4.086  0.00  0.00    +0.128 C 
ATOM     11  C   UNK     1     -37.025  26.499   2.087  0.00  0.00    +0.203 C 
ATOM     12  C   UNK     1     -35.306  26.763   3.324  0.00  0.00    +0.105 C 
ATOM     13  C   UNK     1     -35.935  25.602   5.380  0.00  0.00    +0.016 C 
ATOM     14  C   UNK     1     -34.070  27.093   3.881  0.00  0.00    +0.140 C 
ATOM     15  C   UNK     1     -34.683  25.981   5.842  0.00  0.00    +0.097 C 
ATOM     16  H   UNK     1     -32.263  28.067   3.539  0.00  0.00    +0.144 HD
ATOM     17  H   UNK     1     -33.348  28.128   2.225  0.00  0.00    +0.144 HD
ENDBRANCH   2   6
BRANCH   3  18
ATOM     18  O   UNK     1     -40.827  25.866   3.934  0.00  0.00    -0.380 OA
ATOM     19  H   UNK     1     -41.296  25.017   3.967  0.00  0.00    +0.211 HD
ENDBRANCH   3  18
BRANCH   4  20
ATOM     20  C   UNK     1     -39.352  22.485   1.313  0.00  0.00    +0.087 C 
BRANCH  20  21
ATOM     21  S   UNK     1     -37.910  22.995   0.337  0.00  0.00    -0.138 S 
BRANCH  21  22
ATOM     22  C   UNK     1     -37.123  21.377   0.165  0.00  0.00    +0.056 C 
BRANCH  22  23
ATOM     23  C   UNK     1     -35.721  21.320   0.777  0.00  0.00    +0.001 C 
BRANCH  23  24
ATOM     24  C   UNK     1     -35.663  20.948   2.266  0.00  0.00    +0.037 C 
BRANCH  24  25
ATOM     25  N   UNK     1     -36.886  20.228   2.631  0.00  0.00    +0.389 N 
ATOM     26  H   UNK     1     -37.247  19.735   1.814  0.00  0.00    -0.088 HD
ATOM     27  H   UNK     1     -37.585  20.892   2.964  0.00  0.00    -0.088 HD
ATOM     28  H   UNK     1     -36.677  19.555   3.369  0.00  0.00    -0.088 HD
ENDBRANCH  24  25
BRANCH  24  30
ATOM     29  O   UNK     1     -34.942  23.186   2.908  0.00  0.00    -0.253 OA
ATOM     30  C   UNK     1     -35.616  22.190   3.139  0.00  0.00    +0.293 C 
BRANCH  30  31
ATOM     31  O   UNK     1     -36.439  22.096   4.216  0.00  0.00    -0.482 OA
ATOM     32  H   UNK     1     -36.801  21.265   4.457  0.00  0.00    +0.295 HD
ENDBRANCH  30  31
ENDBRANCH  24  30
ENDBRANCH  23  24
ENDBRANCH  22  23
ENDBRANCH  21  22
ENDBRANCH  20  21
ENDBRANCH   4  20
TORSDOF 10
ENDMDL
MODEL 2
REMARK VINA RESULT:      -5.4      2.920      5.696
REMARK  Name = 194873
REMARK  10 active torsions:
REMARK  status: ('A' for Active; 'I' for Inactive)
REMARK    1  A    between atoms: C_2  and  N_6
REMARK    2  A    between atoms: C_3  and  O_18
REMARK    3  A    between atoms: C_4  and  C_20
REMARK    4  A    between atoms: C_20  and  S_21
REMARK    5  A    between atoms: S_21  and  C_22
REMARK    6  A    between atoms: C_22  and  C_23
REMARK    7  A    between atoms: C_23  and  C_24
REMARK    8  A    between atoms: C_24  and  N_25
REMARK    9  A    between atoms: C_24  and  C_30
REMARK   10  A    between atoms: C_30  and  O_31
REMARK                            x       y       z     vdW  Elec       q    Type
REMARK                         _______ _______ _______ _____ _____    ______ ____
ROOT
ATOM      1  O   UNK     1     -39.455  26.047   2.057  0.00  0.00    -0.340 OA
ATOM      2  C   UNK     1     -38.116  26.215   2.557  0.00  0.00    +0.205 C 
ATOM      3  C   UNK     1     -37.272  26.823   1.438  0.00  0.00    +0.156 C 
ATOM      4  C   UNK     1     -39.540  26.691   0.778  0.00  0.00    +0.130 C 
ATOM      5  C   UNK     1     -38.134  26.657   0.203  0.00  0.00    +0.064 C 
ENDROOT
BRANCH   2   6
ATOM      6  N   UNK     1     -37.617  24.921   3.027  0.00  0.00    -0.220 NA
ATOM      7  N   UNK     1     -37.423  22.713   3.202  0.00  0.00    -0.252 NA
ATOM      8  N   UNK     1     -34.824  23.595   5.690  0.00  0.00    -0.229 NA
ATOM      9  N   UNK     1     -35.473  21.384   5.060  0.00  0.00    -0.342 N 
ATOM     10  C   UNK     1     -36.638  24.711   3.963  0.00  0.00    +0.128 C 
ATOM     11  C   UNK     1     -38.056  23.697   2.603  0.00  0.00    +0.203 C 
ATOM     12  C   UNK     1     -36.535  23.326   4.054  0.00  0.00    +0.105 C 
ATOM     13  C   UNK     1     -35.856  25.579   4.713  0.00  0.00    +0.016 C 
ATOM     14  C   UNK     1     -35.606  22.780   4.940  0.00  0.00    +0.140 C 
ATOM     15  C   UNK     1     -34.965  24.939   5.562  0.00  0.00    +0.097 C 
ATOM     16  H   UNK     1     -34.817  21.005   5.686  0.00  0.00    +0.144 HD
ATOM     17  H   UNK     1     -36.038  20.788   4.516  0.00  0.00    +0.144 HD
ENDBRANCH   2   6
BRANCH   3  18
ATOM     18  O   UNK     1     -37.051  28.207   1.696  0.00  0.00    -0.380 OA
ATOM     19  H   UNK     1     -37.903  28.649   1.840  0.00  0.00    +0.211 HD
ENDBRANCH   3  18
BRANCH   4  20
ATOM     20  C   UNK     1     -40.565  25.983  -0.087  0.00  0.00    +0.087 C 
BRANCH  20  21
ATOM     21  S   UNK     1     -41.643  24.936   0.929  0.00  0.00    -0.138 S 
BRANCH  21  22
ATOM     22  C   UNK     1     -42.998  26.107   1.169  0.00  0.00    +0.056 C 
BRANCH  22  23
ATOM     23  C   UNK     1     -43.317  26.366   2.644  0.00  0.00    +0.001 C 
BRANCH  23  24
ATOM     24  C   UNK     1     -43.285  27.838   3.080  0.00  0.00    +0.037 C 
BRANCH  24  25
ATOM     25  N   UNK     1     -42.995  28.680   1.916  0.00  0.00    +0.389 N 
ATOM     26  H   UNK     1     -43.583  29.513   1.944  0.00  0.00    -0.088 HD
ATOM     27  H   UNK     1     -43.187  28.157   1.062  0.00  0.00    -0.088 HD
ATOM     28  H   UNK     1     -42.014  28.957   1.932  0.00  0.00    -0.088 HD
ENDBRANCH  24  25
BRANCH  24  30
ATOM     29  O   UNK     1     -42.097  29.058   4.825  0.00  0.00    -0.253 OA
ATOM     30  C   UNK     1     -42.171  28.087   4.082  0.00  0.00    +0.293 C 
BRANCH  30  31
ATOM     31  O   UNK     1     -41.252  27.086   4.092  0.00  0.00    -0.482 OA
ATOM     32  H   UNK     1     -41.494  26.232   4.392  0.00  0.00    +0.295 HD
ENDBRANCH  30  31
ENDBRANCH  24  30
ENDBRANCH  23  24
ENDBRANCH  22  23
ENDBRANCH  21  22
ENDBRANCH  20  21
ENDBRANCH   4  20
TORSDOF 10
ENDMDL
MODEL 3
REMARK VINA RESULT:      -5.4      1.947      4.418
REMARK  Name = 194873
REMARK  10 active torsions:
REMARK  status: ('A' for Active; 'I' for Inactive)
REMARK    1  A    between atoms: C_2  and  N_6
REMARK    2  A    between atoms: C_3  and  O_18
REMARK    3  A    between atoms: C_4  and  C_20
REMARK    4  A    between atoms: C_20  and  S_21
REMARK    5  A    between atoms: S_21  and  C_22
REMARK    6  A    between atoms: C_22  and  C_23
REMARK    7  A    between atoms: C_23  and  C_24
REMARK    8  A    between atoms: C_24  and  N_25
REMARK    9  A    between atoms: C_24  and  C_30
REMARK   10  A    between atoms: C_30  and  O_31
REMARK                            x       y       z     vdW  Elec       q    Type
REMARK                         _______ _______ _______ _____ _____    ______ ____
ROOT
ATOM      1  O   UNK     1     -35.794  22.208   0.640  0.00  0.00    -0.340 OA
ATOM      2  C   UNK     1     -35.139  21.892   1.883  0.00  0.00    +0.205 C 
ATOM      3  C   UNK     1     -35.497  20.452   2.246  0.00  0.00    +0.156 C 
ATOM      4  C   UNK     1     -36.366  21.001   0.116  0.00  0.00    +0.130 C 
ATOM      5  C   UNK     1     -36.649  20.120   1.321  0.00  0.00    +0.064 C 
ENDROOT
BRANCH   2   6
ATOM      6  N   UNK     1     -35.544  22.868   2.895  0.00  0.00    -0.220 NA
ATOM      7  N   UNK     1     -36.579  23.697   4.681  0.00  0.00    -0.252 NA
ATOM      8  N   UNK     1     -34.766  26.785   3.733  0.00  0.00    -0.229 NA
ATOM      9  N   UNK     1     -36.244  26.538   5.594  0.00  0.00    -0.342 N 
ATOM     10  C   UNK     1     -35.141  24.176   2.981  0.00  0.00    +0.128 C 
ATOM     11  C   UNK     1     -36.404  22.631   3.933  0.00  0.00    +0.203 C 
ATOM     12  C   UNK     1     -35.799  24.670   4.102  0.00  0.00    +0.105 C 
ATOM     13  C   UNK     1     -34.285  24.945   2.204  0.00  0.00    +0.016 C 
ATOM     14  C   UNK     1     -35.595  26.002   4.467  0.00  0.00    +0.140 C 
ATOM     15  C   UNK     1     -34.148  26.252   2.649  0.00  0.00    +0.097 C 
ATOM     16  H   UNK     1     -36.096  27.477   5.846  0.00  0.00    +0.144 HD
ATOM     17  H   UNK     1     -36.846  25.972   6.130  0.00  0.00    +0.144 HD
ENDBRANCH   2   6
BRANCH   3  18
ATOM     18  O   UNK     1     -34.391  19.595   1.976  0.00  0.00    -0.380 OA
ATOM     19  H   UNK     1     -33.584  19.980   2.352  0.00  0.00    +0.211 HD
ENDBRANCH   3  18
BRANCH   4  20
ATOM     20  C   UNK     1     -37.603  21.330  -0.698  0.00  0.00    +0.087 C 
BRANCH  20  21
ATOM     21  S   UNK     1     -39.089  20.665   0.104  0.00  0.00    -0.138 S 
BRANCH  21  22
ATOM     22  C   UNK     1     -39.901  22.231   0.495  0.00  0.00    +0.056 C 
BRANCH  22  23
ATOM     23  C   UNK     1     -39.205  23.007   1.617  0.00  0.00    +0.001 C 
BRANCH  23  24
ATOM     24  C   UNK     1     -38.928  24.489   1.323  0.00  0.00    +0.037 C 
BRANCH  24  25
ATOM     25  N   UNK     1     -37.563  24.631   0.807  0.00  0.00    +0.389 N 
ATOM     26  H   UNK     1     -37.288  25.613   0.840  0.00  0.00    -0.088 HD
ATOM     27  H   UNK     1     -37.528  24.300  -0.156  0.00  0.00    -0.088 HD
ATOM     28  H   UNK     1     -36.924  24.081   1.380  0.00  0.00    -0.088 HD
ENDBRANCH  24  25
BRANCH  24  30
ATOM     29  O   UNK     1     -38.804  26.528   2.653  0.00  0.00    -0.253 OA
ATOM     30  C   UNK     1     -38.999  25.321   2.592  0.00  0.00    +0.293 C 
BRANCH  30  31
ATOM     31  O   UNK     1     -39.337  24.578   3.678  0.00  0.00    -0.482 OA
ATOM     32  H   UNK     1     -39.340  23.642   3.623  0.00  0.00    +0.295 HD
ENDBRANCH  30  31
ENDBRANCH  24  30
ENDBRANCH  23  24
ENDBRANCH  22  23
ENDBRANCH  21  22
ENDBRANCH  20  21
ENDBRANCH   4  20
TORSDOF 10
ENDMDL
MODEL 4
REMARK VINA RESULT:      -5.4      4.469      6.062
REMARK  Name = 194873
REMARK  10 active torsions:
REMARK  status: ('A' for Active; 'I' for Inactive)
REMARK    1  A    between atoms: C_2  and  N_6
REMARK    2  A    between atoms: C_3  and  O_18
REMARK    3  A    between atoms: C_4  and  C_20
REMARK    4  A    between atoms: C_20  and  S_21
REMARK    5  A    between atoms: S_21  and  C_22
REMARK    6  A    between atoms: C_22  and  C_23
REMARK    7  A    between atoms: C_23  and  C_24
REMARK    8  A    between atoms: C_24  and  N_25
REMARK    9  A    between atoms: C_24  and  C_30
REMARK   10  A    between atoms: C_30  and  O_31
REMARK                            x       y       z     vdW  Elec       q    Type
REMARK                         _______ _______ _______ _____ _____    ______ ____
ROOT
ATOM      1  O   UNK     1     -34.570  20.394   2.066  0.00  0.00    -0.340 OA
ATOM      2  C   UNK     1     -36.006  20.438   2.158  0.00  0.00    +0.205 C 
ATOM      3  C   UNK     1     -36.574  19.896   0.847  0.00  0.00    +0.156 C 
ATOM      4  C   UNK     1     -34.218  19.681   0.873  0.00  0.00    +0.130 C 
ATOM      5  C   UNK     1     -35.380  19.879  -0.086  0.00  0.00    +0.064 C 
ENDROOT
BRANCH   2   6
ATOM      6  N   UNK     1     -36.423  21.810   2.452  0.00  0.00    -0.220 NA
ATOM      7  N   UNK     1     -37.362  23.803   2.149  0.00  0.00    -0.252 NA
ATOM      8  N   UNK     1     -36.054  24.432   5.557  0.00  0.00    -0.229 NA
ATOM      9  N   UNK     1     -37.288  25.978   4.218  0.00  0.00    -0.342 N 
ATOM     10  C   UNK     1     -36.176  22.512   3.604  0.00  0.00    +0.128 C 
ATOM     11  C   UNK     1     -37.133  22.624   1.613  0.00  0.00    +0.203 C 
ATOM     12  C   UNK     1     -36.773  23.751   3.390  0.00  0.00    +0.105 C 
ATOM     13  C   UNK     1     -35.509  22.185   4.776  0.00  0.00    +0.016 C 
ATOM     14  C   UNK     1     -36.698  24.713   4.397  0.00  0.00    +0.140 C 
ATOM     15  C   UNK     1     -35.491  23.207   5.714  0.00  0.00    +0.097 C 
ATOM     16  H   UNK     1     -37.231  26.652   4.932  0.00  0.00    +0.144 HD
ATOM     17  H   UNK     1     -37.757  26.187   3.377  0.00  0.00    +0.144 HD
ENDBRANCH   2   6
BRANCH   3  18
ATOM     18  O   UNK     1     -37.060  18.570   1.041  0.00  0.00    -0.380 OA
ATOM     19  H   UNK     1     -37.133  18.124   0.183  0.00  0.00    +0.211 HD
ENDBRANCH   3  18
BRANCH   4  20
ATOM     20  C   UNK     1     -32.896  20.197   0.336  0.00  0.00    +0.087 C 
BRANCH  20  21
ATOM     21  S   UNK     1     -31.622  18.910   0.436  0.00  0.00    -0.138 S 
BRANCH  21  22
ATOM     22  C   UNK     1     -32.667  17.546   0.998  0.00  0.00    +0.056 C 
BRANCH  22  23
ATOM     23  C   UNK     1     -32.761  16.402  -0.015  0.00  0.00    +0.001 C 
BRANCH  23  24
ATOM     24  C   UNK     1     -34.129  16.229  -0.693  0.00  0.00    +0.037 C 
BRANCH  24  25
ATOM     25  N   UNK     1     -35.181  16.271   0.326  0.00  0.00    +0.389 N 
ATOM     26  H   UNK     1     -34.796  15.982   1.225  0.00  0.00    -0.088 HD
ATOM     27  H   UNK     1     -35.937  15.640   0.061  0.00  0.00    -0.088 HD
ATOM     28  H   UNK     1     -35.543  17.222   0.402  0.00  0.00    -0.088 HD
ENDBRANCH  24  25
BRANCH  24  30
ATOM     29  O   UNK     1     -33.619  14.538  -2.372  0.00  0.00    -0.253 OA
ATOM     30  C   UNK     1     -34.236  14.874  -1.369  0.00  0.00    +0.293 C 
BRANCH  30  31
ATOM     31  O   UNK     1     -35.088  14.038  -0.719  0.00  0.00    -0.482 OA
ATOM     32  H   UNK     1     -35.920  14.355  -0.425  0.00  0.00    +0.295 HD
ENDBRANCH  30  31
ENDBRANCH  24  30
ENDBRANCH  23  24
ENDBRANCH  22  23
ENDBRANCH  21  22
ENDBRANCH  20  21
ENDBRANCH   4  20
TORSDOF 10
ENDMDL
MODEL 5
REMARK VINA RESULT:      -5.4      3.677      5.680
REMARK  Name = 194873
REMARK  10 active torsions:
REMARK  status: ('A' for Active; 'I' for Inactive)
REMARK    1  A    between atoms: C_2  and  N_6
REMARK    2  A    between atoms: C_3  and  O_18
REMARK    3  A    between atoms: C_4  and  C_20
REMARK    4  A    between atoms: C_20  and  S_21
REMARK    5  A    between atoms: S_21  and  C_22
REMARK    6  A    between atoms: C_22  and  C_23
REMARK    7  A    between atoms: C_23  and  C_24
REMARK    8  A    between atoms: C_24  and  N_25
REMARK    9  A    between atoms: C_24  and  C_30
REMARK   10  A    between atoms: C_30  and  O_31
REMARK                            x       y       z     vdW  Elec       q    Type
REMARK                         _______ _______ _______ _____ _____    ______ ____
ROOT
ATOM      1  O   UNK     1     -34.740  28.069   3.834  0.00  0.00    -0.340 OA
ATOM      2  C   UNK     1     -33.525  28.746   3.463  0.00  0.00    +0.205 C 
ATOM      3  C   UNK     1     -33.050  28.159   2.135  0.00  0.00    +0.156 C 
ATOM      4  C   UNK     1     -35.150  27.248   2.731  0.00  0.00    +0.130 C 
ATOM      5  C   UNK     1     -33.877  26.899   1.979  0.00  0.00    +0.064 C 
ENDROOT
BRANCH   2   6
ATOM      6  N   UNK     1     -32.551  28.603   4.546  0.00  0.00    -0.220 NA
ATOM      7  N   UNK     1     -31.569  27.762   6.355  0.00  0.00    -0.252 NA
ATOM      8  N   UNK     1     -29.183  30.540   5.795  0.00  0.00    -0.229 NA
ATOM      9  N   UNK     1     -29.076  28.928   7.556  0.00  0.00    -0.342 N 
ATOM     10  C   UNK     1     -31.459  29.401   4.777  0.00  0.00    +0.128 C 
ATOM     11  C   UNK     1     -32.573  27.639   5.516  0.00  0.00    +0.203 C 
ATOM     12  C   UNK     1     -30.863  28.855   5.910  0.00  0.00    +0.105 C 
ATOM     13  C   UNK     1     -30.955  30.513   4.118  0.00  0.00    +0.016 C 
ATOM     14  C   UNK     1     -29.706  29.451   6.412  0.00  0.00    +0.140 C 
ATOM     15  C   UNK     1     -29.803  31.031   4.693  0.00  0.00    +0.097 C 
ATOM     16  H   UNK     1     -28.260  29.352   7.905  0.00  0.00    +0.144 HD
ATOM     17  H   UNK     1     -29.452  28.137   8.006  0.00  0.00    +0.144 HD
ENDBRANCH   2   6
BRANCH   3  18
ATOM     18  O   UNK     1     -33.338  29.066   1.074  0.00  0.00    -0.380 OA
ATOM     19  H   UNK     1     -32.716  29.810   1.107  0.00  0.00    +0.211 HD
ENDBRANCH   3  18
BRANCH   4  20
ATOM     20  C   UNK     1     -35.900  26.034   3.245  0.00  0.00    +0.087 C 
BRANCH  20  21
ATOM     21  S   UNK     1     -35.960  26.041   5.058  0.00  0.00    -0.138 S 
BRANCH  21  22
ATOM     22  C   UNK     1     -34.848  24.650   5.364  0.00  0.00    +0.056 C 
BRANCH  22  23
ATOM     23  C   UNK     1     -35.569  23.299   5.403  0.00  0.00    +0.001 C 
BRANCH  23  24
ATOM     24  C   UNK     1     -35.716  22.589   4.049  0.00  0.00    +0.037 C 
BRANCH  24  25
ATOM     25  N   UNK     1     -37.125  22.608   3.644  0.00  0.00    +0.389 N 
ATOM     26  H   UNK     1     -37.695  22.957   4.415  0.00  0.00    -0.088 HD
ATOM     27  H   UNK     1     -37.422  21.663   3.403  0.00  0.00    -0.088 HD
ATOM     28  H   UNK     1     -37.238  23.217   2.834  0.00  0.00    -0.088 HD
ENDBRANCH  24  25
BRANCH  24  30
ATOM     29  O   UNK     1     -35.152  20.375   3.200  0.00  0.00    -0.253 OA
ATOM     30  C   UNK     1     -35.316  21.128   4.152  0.00  0.00    +0.293 C 
BRANCH  30  31
ATOM     31  O   UNK     1     -35.127  20.733   5.438  0.00  0.00    -0.482 OA
ATOM     32  H   UNK     1     -35.623  20.018   5.787  0.00  0.00    +0.295 HD
ENDBRANCH  30  31
ENDBRANCH  24  30
ENDBRANCH  23  24
ENDBRANCH  22  23
ENDBRANCH  21  22
ENDBRANCH  20  21
ENDBRANCH   4  20
TORSDOF 10
ENDMDL
MODEL 6
REMARK VINA RESULT:      -5.3      2.841      3.086
REMARK  Name = 194873
REMARK  10 active torsions:
REMARK  status: ('A' for Active; 'I' for Inactive)
REMARK    1  A    between atoms: C_2  and  N_6
REMARK    2  A    between atoms: C_3  and  O_18
REMARK    3  A    between atoms: C_4  and  C_20
REMARK    4  A    between atoms: C_20  and  S_21
REMARK    5  A    between atoms: S_21  and  C_22
REMARK    6  A    between atoms: C_22  and  C_23
REMARK    7  A    between atoms: C_23  and  C_24
REMARK    8  A    between atoms: C_24  and  N_25
REMARK    9  A    between atoms: C_24  and  C_30
REMARK   10  A    between atoms: C_30  and  O_31
REMARK                            x       y       z     vdW  Elec       q    Type
REMARK                         _______ _______ _______ _____ _____    ______ ____
ROOT
ATOM      1  O   UNK     1     -36.831  23.411   3.566  0.00  0.00    -0.340 OA
ATOM      2  C   UNK     1     -37.312  24.732   3.878  0.00  0.00    +0.205 C 
ATOM      3  C   UNK     1     -38.603  24.957   3.092  0.00  0.00    +0.156 C 
ATOM      4  C   UNK     1     -37.839  22.737   2.799  0.00  0.00    +0.130 C 
ATOM      5  C   UNK     1     -38.611  23.831   2.079  0.00  0.00    +0.064 C 
ENDROOT
BRANCH   2   6
ATOM      6  N   UNK     1     -36.263  25.705   3.571  0.00  0.00    -0.220 NA
ATOM      7  N   UNK     1     -35.104  27.211   2.415  0.00  0.00    -0.252 NA
ATOM      8  N   UNK     1     -32.986  27.243   5.453  0.00  0.00    -0.229 NA
ATOM      9  N   UNK     1     -32.639  28.551   3.484  0.00  0.00    -0.342 N 
ATOM     10  C   UNK     1     -35.225  26.076   4.387  0.00  0.00    +0.128 C 
ATOM     11  C   UNK     1     -36.147  26.410   2.404  0.00  0.00    +0.203 C 
ATOM     12  C   UNK     1     -34.518  27.016   3.643  0.00  0.00    +0.105 C 
ATOM     13  C   UNK     1     -34.854  25.688   5.666  0.00  0.00    +0.016 C 
ATOM     14  C   UNK     1     -33.381  27.597   4.205  0.00  0.00    +0.140 C 
ATOM     15  C   UNK     1     -33.713  26.323   6.135  0.00  0.00    +0.097 C 
ATOM     16  H   UNK     1     -31.838  28.957   3.886  0.00  0.00    +0.144 HD
ATOM     17  H   UNK     1     -32.922  28.811   2.577  0.00  0.00    +0.144 HD
ENDBRANCH   2   6
BRANCH   3  18
ATOM     18  O   UNK     1     -39.726  24.841   3.961  0.00  0.00    -0.380 OA
ATOM     19  H   UNK     1     -40.233  24.047   3.730  0.00  0.00    +0.211 HD
ENDBRANCH   3  18
BRANCH   4  20
ATOM     20  C   UNK     1     -37.188  21.739   1.861  0.00  0.00    +0.087 C 
BRANCH  20  21
ATOM     21  S   UNK     1     -35.805  20.901   2.681  0.00  0.00    -0.138 S 
BRANCH  21  22
ATOM     22  C   UNK     1     -34.825  20.510   1.213  0.00  0.00    +0.056 C 
BRANCH  22  23
ATOM     23  C   UNK     1     -33.757  19.443   1.468  0.00  0.00    +0.001 C 
BRANCH  23  24
ATOM     24  C   UNK     1     -33.677  18.322   0.422  0.00  0.00    +0.037 C 
BRANCH  24  25
ATOM     25  N   UNK     1     -34.951  17.596   0.394  0.00  0.00    +0.389 N 
ATOM     26  H   UNK     1     -35.538  17.912   1.166  0.00  0.00    -0.088 HD
ATOM     27  H   UNK     1     -34.774  16.596   0.487  0.00  0.00    -0.088 HD
ATOM     28  H   UNK     1     -35.425  17.777  -0.491  0.00  0.00    -0.088 HD
ENDBRANCH  24  25
BRANCH  24  30
ATOM     29  O   UNK     1     -32.506  16.188   0.299  0.00  0.00    -0.253 OA
ATOM     30  C   UNK     1     -32.609  17.307   0.788  0.00  0.00    +0.293 C 
BRANCH  30  31
ATOM     31  O   UNK     1     -31.739  17.783   1.716  0.00  0.00    -0.482 OA
ATOM     32  H   UNK     1     -30.818  17.655   1.603  0.00  0.00    +0.295 HD
ENDBRANCH  30  31
ENDBRANCH  24  30
ENDBRANCH  23  24
ENDBRANCH  22  23
ENDBRANCH  21  22
ENDBRANCH  20  21
ENDBRANCH   4  20
TORSDOF 10
ENDMDL
MODEL 7
REMARK VINA RESULT:      -5.3      2.757      3.688
REMARK  Name = 194873
REMARK  10 active torsions:
REMARK  status: ('A' for Active; 'I' for Inactive)
REMARK    1  A    between atoms: C_2  and  N_6
REMARK    2  A    between atoms: C_3  and  O_18
REMARK    3  A    between atoms: C_4  and  C_20
REMARK    4  A    between atoms: C_20  and  S_21
REMARK    5  A    between atoms: S_21  and  C_22
REMARK    6  A    between atoms: C_22  and  C_23
REMARK    7  A    between atoms: C_23  and  C_24
REMARK    8  A    between atoms: C_24  and  N_25
REMARK    9  A    between atoms: C_24  and  C_30
REMARK   10  A    between atoms: C_30  and  O_31
REMARK                            x       y       z     vdW  Elec       q    Type
REMARK                         _______ _______ _______ _____ _____    ______ ____
ROOT
ATOM      1  O   UNK     1     -37.132  21.379   1.563  0.00  0.00    -0.340 OA
ATOM      2  C   UNK     1     -38.175  21.894   2.412  0.00  0.00    +0.205 C 
ATOM      3  C   UNK     1     -39.454  21.976   1.581  0.00  0.00    +0.156 C 
ATOM      4  C   UNK     1     -37.727  20.954   0.328  0.00  0.00    +0.130 C 
ATOM      5  C   UNK     1     -38.973  21.808   0.155  0.00  0.00    +0.064 C 
ENDROOT
BRANCH   2   6
ATOM      6  N   UNK     1     -37.750  23.183   2.960  0.00  0.00    -0.220 NA
ATOM      7  N   UNK     1     -37.726  25.376   3.322  0.00  0.00    -0.252 NA
ATOM      8  N   UNK     1     -34.865  24.525   5.515  0.00  0.00    -0.229 NA
ATOM      9  N   UNK     1     -35.746  26.713   5.141  0.00  0.00    -0.342 N 
ATOM     10  C   UNK     1     -36.715  23.400   3.834  0.00  0.00    +0.128 C 
ATOM     11  C   UNK     1     -38.322  24.394   2.684  0.00  0.00    +0.203 C 
ATOM     12  C   UNK     1     -36.723  24.776   4.045  0.00  0.00    +0.105 C 
ATOM     13  C   UNK     1     -35.806  22.546   4.440  0.00  0.00    +0.016 C 
ATOM     14  C   UNK     1     -35.771  25.327   4.903  0.00  0.00    +0.140 C 
ATOM     15  C   UNK     1     -34.903  23.190   5.275  0.00  0.00    +0.097 C 
ATOM     16  H   UNK     1     -35.073  27.096   5.748  0.00  0.00    +0.144 HD
ATOM     17  H   UNK     1     -36.403  27.300   4.700  0.00  0.00    +0.144 HD
ENDBRANCH   2   6
BRANCH   3  18
ATOM     18  O   UNK     1     -40.328  20.907   1.931  0.00  0.00    -0.380 OA
ATOM     19  H   UNK     1     -40.510  20.367   1.145  0.00  0.00    +0.211 HD
ENDBRANCH   3  18
BRANCH   4  20
ATOM     20  C   UNK     1     -36.728  21.105  -0.803  0.00  0.00    +0.087 C 
BRANCH  20  21
ATOM     21  S   UNK     1     -36.824  19.688  -1.931  0.00  0.00    -0.138 S 
BRANCH  21  22
ATOM     22  C   UNK     1     -35.584  18.637  -1.140  0.00  0.00    +0.056 C 
BRANCH  22  23
ATOM     23  C   UNK     1     -34.494  19.431  -0.416  0.00  0.00    +0.001 C 
BRANCH  23  24
ATOM     24  C   UNK     1     -34.139  18.936   0.994  0.00  0.00    +0.037 C 
BRANCH  24  25
ATOM     25  N   UNK     1     -34.526  19.954   1.975  0.00  0.00    +0.389 N 
ATOM     26  H   UNK     1     -33.732  20.568   2.158  0.00  0.00    -0.088 HD
ATOM     27  H   UNK     1     -34.811  19.499   2.842  0.00  0.00    -0.088 HD
ATOM     28  H   UNK     1     -35.302  20.503   1.607  0.00  0.00    -0.088 HD
ENDBRANCH  24  25
BRANCH  24  30
ATOM     29  O   UNK     1     -32.108  17.754   1.642  0.00  0.00    -0.253 OA
ATOM     30  C   UNK     1     -32.641  18.738   1.144  0.00  0.00    +0.293 C 
BRANCH  30  31
ATOM     31  O   UNK     1     -31.929  19.776   0.632  0.00  0.00    -0.482 OA
ATOM     32  H   UNK     1     -31.965  20.617   1.046  0.00  0.00    +0.295 HD
ENDBRANCH  30  31
ENDBRANCH  24  30
ENDBRANCH  23  24
ENDBRANCH  22  23
ENDBRANCH  21  22
ENDBRANCH  20  21
ENDBRANCH   4  20
TORSDOF 10
ENDMDL
MODEL 8
REMARK VINA RESULT:      -5.2      4.689      8.048
REMARK  Name = 194873
REMARK  10 active torsions:
REMARK  status: ('A' for Active; 'I' for Inactive)
REMARK    1  A    between atoms: C_2  and  N_6
REMARK    2  A    between atoms: C_3  and  O_18
REMARK    3  A    between atoms: C_4  and  C_20
REMARK    4  A    between atoms: C_20  and  S_21
REMARK    5  A    between atoms: S_21  and  C_22
REMARK    6  A    between atoms: C_22  and  C_23
REMARK    7  A    between atoms: C_23  and  C_24
REMARK    8  A    between atoms: C_24  and  N_25
REMARK    9  A    between atoms: C_24  and  C_30
REMARK   10  A    between atoms: C_30  and  O_31
REMARK                            x       y       z     vdW  Elec       q    Type
REMARK                         _______ _______ _______ _____ _____    ______ ____
ROOT
ATOM      1  O   UNK     1     -32.852  28.029   4.468  0.00  0.00    -0.340 OA
ATOM      2  C   UNK     1     -32.895  26.739   3.829  0.00  0.00    +0.205 C 
ATOM      3  C   UNK     1     -32.091  26.835   2.533  0.00  0.00    +0.156 C 
ATOM      4  C   UNK     1     -31.917  28.851   3.757  0.00  0.00    +0.130 C 
ATOM      5  C   UNK     1     -31.902  28.324   2.332  0.00  0.00    +0.064 C 
ENDROOT
BRANCH   2   6
ATOM      6  N   UNK     1     -34.292  26.356   3.623  0.00  0.00    -0.220 NA
ATOM      7  N   UNK     1     -36.406  26.504   2.949  0.00  0.00    -0.252 NA
ATOM      8  N   UNK     1     -36.670  23.169   4.541  0.00  0.00    -0.229 NA
ATOM      9  N   UNK     1     -38.437  24.350   3.450  0.00  0.00    -0.342 N 
ATOM     10  C   UNK     1     -34.892  25.193   4.035  0.00  0.00    +0.128 C 
ATOM     11  C   UNK     1     -35.238  27.106   2.980  0.00  0.00    +0.203 C 
ATOM     12  C   UNK     1     -36.209  25.310   3.602  0.00  0.00    +0.105 C 
ATOM     13  C   UNK     1     -34.416  24.086   4.723  0.00  0.00    +0.016 C 
ATOM     14  C   UNK     1     -37.098  24.268   3.871  0.00  0.00    +0.140 C 
ATOM     15  C   UNK     1     -35.375  23.106   4.939  0.00  0.00    +0.097 C 
ATOM     16  H   UNK     1     -39.059  23.612   3.642  0.00  0.00    +0.144 HD
ATOM     17  H   UNK     1     -38.752  25.146   2.962  0.00  0.00    +0.144 HD
ENDBRANCH   2   6
BRANCH   3  18
ATOM     18  O   UNK     1     -30.826  26.200   2.700  0.00  0.00    -0.380 OA
ATOM     19  H   UNK     1     -30.566  26.239   3.633  0.00  0.00    +0.211 HD
ENDBRANCH   3  18
BRANCH   4  20
ATOM     20  C   UNK     1     -32.330  30.307   3.859  0.00  0.00    +0.087 C 
BRANCH  20  21
ATOM     21  S   UNK     1     -31.426  31.135   5.195  0.00  0.00    -0.138 S 
BRANCH  21  22
ATOM     22  C   UNK     1     -29.746  30.706   4.682  0.00  0.00    +0.056 C 
BRANCH  22  23
ATOM     23  C   UNK     1     -28.847  30.289   5.849  0.00  0.00    +0.001 C 
BRANCH  23  24
ATOM     24  C   UNK     1     -29.512  29.403   6.914  0.00  0.00    +0.037 C 
BRANCH  24  25
ATOM     25  N   UNK     1     -28.673  29.381   8.116  0.00  0.00    +0.389 N 
ATOM     26  H   UNK     1     -28.785  28.486   8.592  0.00  0.00    -0.088 HD
ATOM     27  H   UNK     1     -28.955  30.137   8.740  0.00  0.00    -0.088 HD
ATOM     28  H   UNK     1     -27.696  29.505   7.851  0.00  0.00    -0.088 HD
ENDBRANCH  24  25
BRANCH  24  30
ATOM     29  O   UNK     1     -28.733  27.342   5.873  0.00  0.00    -0.253 OA
ATOM     30  C   UNK     1     -29.623  27.966   6.438  0.00  0.00    +0.293 C 
BRANCH  30  31
ATOM     31  O   UNK     1     -30.829  27.415   6.733  0.00  0.00    -0.482 OA
ATOM     32  H   UNK     1     -30.875  26.542   7.071  0.00  0.00    +0.295 HD
ENDBRANCH  30  31
ENDBRANCH  24  30
ENDBRANCH  23  24
ENDBRANCH  22  23
ENDBRANCH  21  22
ENDBRANCH  20  21
ENDBRANCH   4  20
TORSDOF 10
ENDMDL
MODEL 9
REMARK VINA RESULT:      -5.2      3.535      4.327
REMARK  Name = 194873
REMARK  10 active torsions:
REMARK  status: ('A' for Active; 'I' for Inactive)
REMARK    1  A    between atoms: C_2  and  N_6
REMARK    2  A    between atoms: C_3  and  O_18
REMARK    3  A    between atoms: C_4  and  C_20
REMARK    4  A    between atoms: C_20  and  S_21
REMARK    5  A    between atoms: S_21  and  C_22
REMARK    6  A    between atoms: C_22  and  C_23
REMARK    7  A    between atoms: C_23  and  C_24
REMARK    8  A    between atoms: C_24  and  N_25
REMARK    9  A    between atoms: C_24  and  C_30
REMARK   10  A    between atoms: C_30  and  O_31
REMARK                            x       y       z     vdW  Elec       q    Type
REMARK                         _______ _______ _______ _____ _____    ______ ____
ROOT
ATOM      1  O   UNK     1     -37.201  21.413   1.621  0.00  0.00    -0.340 OA
ATOM      2  C   UNK     1     -38.199  21.940   2.516  0.00  0.00    +0.205 C 
ATOM      3  C   UNK     1     -39.524  21.995   1.757  0.00  0.00    +0.156 C 
ATOM      4  C   UNK     1     -37.862  20.956   0.432  0.00  0.00    +0.130 C 
ATOM      5  C   UNK     1     -39.122  21.796   0.311  0.00  0.00    +0.064 C 
ENDROOT
BRANCH   2   6
ATOM      6  N   UNK     1     -37.753  23.244   3.009  0.00  0.00    -0.220 NA
ATOM      7  N   UNK     1     -37.703  25.449   3.288  0.00  0.00    -0.252 NA
ATOM      8  N   UNK     1     -34.823  24.651   5.476  0.00  0.00    -0.229 NA
ATOM      9  N   UNK     1     -35.687  26.833   5.031  0.00  0.00    -0.342 N 
ATOM     10  C   UNK     1     -36.706  23.484   3.862  0.00  0.00    +0.128 C 
ATOM     11  C   UNK     1     -38.317  24.450   2.695  0.00  0.00    +0.203 C 
ATOM     12  C   UNK     1     -36.696  24.866   4.020  0.00  0.00    +0.105 C 
ATOM     13  C   UNK     1     -35.797  22.643   4.489  0.00  0.00    +0.016 C 
ATOM     14  C   UNK     1     -35.729  25.439   4.846  0.00  0.00    +0.140 C 
ATOM     15  C   UNK     1     -34.878  23.308   5.288  0.00  0.00    +0.097 C 
ATOM     16  H   UNK     1     -35.002  27.231   5.614  0.00  0.00    +0.144 HD
ATOM     17  H   UNK     1     -36.343  27.409   4.575  0.00  0.00    +0.144 HD
ENDBRANCH   2   6
BRANCH   3  18
ATOM     18  O   UNK     1     -40.368  20.927   2.181  0.00  0.00    -0.380 OA
ATOM     19  H   UNK     1     -41.215  20.979   1.710  0.00  0.00    +0.211 HD
ENDBRANCH   3  18
BRANCH   4  20
ATOM     20  C   UNK     1     -36.930  21.087  -0.757  0.00  0.00    +0.087 C 
BRANCH  20  21
ATOM     21  S   UNK     1     -35.260  20.527  -0.323  0.00  0.00    -0.138 S 
BRANCH  21  22
ATOM     22  C   UNK     1     -35.171  19.090  -1.415  0.00  0.00    +0.056 C 
BRANCH  22  23
ATOM     23  C   UNK     1     -35.214  17.757  -0.663  0.00  0.00    +0.001 C 
BRANCH  23  24
ATOM     24  C   UNK     1     -36.555  17.011  -0.711  0.00  0.00    +0.037 C 
BRANCH  24  25
ATOM     25  N   UNK     1     -37.410  17.484   0.382  0.00  0.00    +0.389 N 
ATOM     26  H   UNK     1     -37.088  18.400   0.693  0.00  0.00    -0.088 HD
ATOM     27  H   UNK     1     -37.364  16.825   1.159  0.00  0.00    -0.088 HD
ATOM     28  H   UNK     1     -38.373  17.556   0.053  0.00  0.00    -0.088 HD
ENDBRANCH  24  25
BRANCH  24  30
ATOM     29  O   UNK     1     -36.914  14.639  -1.139  0.00  0.00    -0.253 OA
ATOM     30  C   UNK     1     -36.361  15.521  -0.494  0.00  0.00    +0.293 C 
BRANCH  30  31
ATOM     31  O   UNK     1     -35.468  15.255   0.495  0.00  0.00    -0.482 OA
ATOM     32  H   UNK     1     -34.813  15.888   0.716  0.00  0.00    +0.295 HD
ENDBRANCH  30  31
ENDBRANCH  24  30
ENDBRANCH  23  24
ENDBRANCH  22  23
ENDBRANCH  21  22
ENDBRANCH  20  21
ENDBRANCH   4  20
TORSDOF 10
ENDMDL
