MODEL 1
REMARK VINA RESULT:      -6.1      0.000      0.000
REMARK  Name = 196025
REMARK  8 active torsions:
REMARK  status: ('A' for Active; 'I' for Inactive)
REMARK    1  A    between atoms: C_1  and  C_3
REMARK    2  A    between atoms: C_1  and  O_13
REMARK    3  A    between atoms: C_2  and  C_8
REMARK    4  A    between atoms: C_8  and  C_10
REMARK    5  A    between atoms: C_10  and  O_11
REMARK    6  A    between atoms: O_13  and  S_14
REMARK    7  A    between atoms: S_14  and  C_16
REMARK    8  A    between atoms: C_17  and  N_23
REMARK                            x       y       z     vdW  Elec       q    Type
REMARK                         _______ _______ _______ _____ _____    ______ ____
ROOT
ATOM      1  C   UNL     1     -34.798  21.241   0.679  0.00  0.00    +0.185 C 
ENDROOT
BRANCH   1   3
ATOM      2  C   UNL     1     -31.441  18.586   0.749  0.00  0.00    -0.011 C 
ATOM      3  C   UNL     1     -33.629  20.316   0.703  0.00  0.00    +0.009 C 
ATOM      4  C   UNL     1     -32.609  18.251   1.433  0.00  0.00    -0.004 C 
ATOM      5  C   UNL     1     -31.366  19.786   0.042  0.00  0.00    -0.004 C 
ATOM      6  C   UNL     1     -33.704  19.115   1.411  0.00  0.00    -0.002 C 
ATOM      7  C   UNL     1     -32.460  20.651   0.019  0.00  0.00    -0.002 C 
BRANCH   2   8
ATOM      8  C   UNL     1     -30.272  17.660   0.772  0.00  0.00    +0.136 C 
BRANCH   8  10
ATOM      9  O   UNL     1     -30.504  15.277   0.326  0.00  0.00    -0.250 OA
ATOM     10  C   UNL     1     -30.461  16.427  -0.090  0.00  0.00    +0.318 C 
BRANCH  10  11
ATOM     11  O   UNL     1     -30.580  16.742  -1.406  0.00  0.00    -0.480 OA
ATOM     12  H   UNL     1     -29.913  16.485  -2.011  0.00  0.00    +0.295 HD
ENDBRANCH  10  11
ENDBRANCH   8  10
ENDBRANCH   2   8
ENDBRANCH   1   3
BRANCH   1  13
ATOM     13  O   UNL     1     -35.800  20.759   1.566  0.00  0.00    -0.289 OA
BRANCH  13  14
ATOM     14  S   UNL     1     -36.862  21.930   2.094  0.00  0.00    +0.053 S 
BRANCH  14  16
ATOM     15  N   UNL     1     -35.515  21.184   4.255  0.00  0.00    -0.234 NA
ATOM     16  C   UNL     1     -36.149  22.244   3.702  0.00  0.00    +0.155 C 
ATOM     17  C   UNL     1     -36.253  23.485   4.314  0.00  0.00    +0.168 C 
ATOM     18  C   UNL     1     -35.672  23.646   5.566  0.00  0.00    +0.028 C 
ATOM     19  C   UNL     1     -35.012  22.579   6.164  0.00  0.00    +0.022 C 
ATOM     20  C   UNL     1     -34.962  21.379   5.474  0.00  0.00    +0.100 C 
BRANCH  17  23
ATOM     21  O   UNL     1     -36.265  25.391   3.017  0.00  0.00    -0.126 OA
ATOM     22  O   UNL     1     -38.156  24.724   3.911  0.00  0.00    -0.126 OA
ATOM     23  N   UNL     1     -36.925  24.587   3.718  0.00  0.00    +0.060 N 
ENDBRANCH  17  23
ENDBRANCH  14  16
ENDBRANCH  13  14
ENDBRANCH   1  13
TORSDOF 8
ENDMDL
MODEL 2
REMARK VINA RESULT:      -5.9      5.855      8.155
REMARK  Name = 196025
REMARK  8 active torsions:
REMARK  status: ('A' for Active; 'I' for Inactive)
REMARK    1  A    between atoms: C_1  and  C_3
REMARK    2  A    between atoms: C_1  and  O_13
REMARK    3  A    between atoms: C_2  and  C_8
REMARK    4  A    between atoms: C_8  and  C_10
REMARK    5  A    between atoms: C_10  and  O_11
REMARK    6  A    between atoms: O_13  and  S_14
REMARK    7  A    between atoms: S_14  and  C_16
REMARK    8  A    between atoms: C_17  and  N_23
REMARK                            x       y       z     vdW  Elec       q    Type
REMARK                         _______ _______ _______ _____ _____    ______ ____
ROOT
ATOM      1  C   UNL     1     -35.105  27.831   2.880  0.00  0.00    +0.185 C 
ENDROOT
BRANCH   1   3
ATOM      2  C   UNL     1     -35.336  24.203   5.140  0.00  0.00    -0.011 C 
ATOM      3  C   UNL     1     -35.185  26.568   3.667  0.00  0.00    +0.009 C 
ATOM      4  C   UNL     1     -36.498  24.784   4.633  0.00  0.00    -0.004 C 
ATOM      5  C   UNL     1     -34.099  24.804   4.910  0.00  0.00    -0.004 C 
ATOM      6  C   UNL     1     -36.424  25.967   3.896  0.00  0.00    -0.002 C 
ATOM      7  C   UNL     1     -34.023  25.985   4.174  0.00  0.00    -0.002 C 
BRANCH   2   8
ATOM      8  C   UNL     1     -35.417  22.938   5.925  0.00  0.00    +0.136 C 
BRANCH   8  10
ATOM      9  O   UNL     1     -35.367  21.674   3.843  0.00  0.00    -0.250 OA
ATOM     10  C   UNL     1     -35.357  21.689   5.067  0.00  0.00    +0.318 C 
BRANCH  10  11
ATOM     11  O   UNL     1     -35.291  20.560   5.820  0.00  0.00    -0.480 OA
ATOM     12  H   UNL     1     -35.555  20.579   6.718  0.00  0.00    +0.295 HD
ENDBRANCH  10  11
ENDBRANCH   8  10
ENDBRANCH   2   8
ENDBRANCH   1   3
BRANCH   1  13
ATOM     13  O   UNL     1     -34.451  28.829   3.654  0.00  0.00    -0.289 OA
BRANCH  13  14
ATOM     14  S   UNL     1     -33.038  29.399   2.977  0.00  0.00    +0.053 S 
BRANCH  14  16
ATOM     15  N   UNL     1     -32.451  29.997   5.494  0.00  0.00    -0.234 NA
ATOM     16  C   UNL     1     -31.988  29.317   4.420  0.00  0.00    +0.155 C 
ATOM     17  C   UNL     1     -30.796  28.607   4.412  0.00  0.00    +0.168 C 
ATOM     18  C   UNL     1     -30.035  28.594   5.575  0.00  0.00    +0.028 C 
ATOM     19  C   UNL     1     -30.481  29.281   6.698  0.00  0.00    +0.022 C 
ATOM     20  C   UNL     1     -31.684  29.960   6.608  0.00  0.00    +0.100 C 
BRANCH  17  23
ATOM     21  O   UNL     1     -30.663  26.702   3.120  0.00  0.00    -0.126 OA
ATOM     22  O   UNL     1     -29.584  28.494   2.453  0.00  0.00    -0.126 OA
ATOM     23  N   UNL     1     -30.324  27.900   3.272  0.00  0.00    +0.060 N 
ENDBRANCH  17  23
ENDBRANCH  14  16
ENDBRANCH  13  14
ENDBRANCH   1  13
TORSDOF 8
ENDMDL
MODEL 3
REMARK VINA RESULT:      -5.9      1.684      2.594
REMARK  Name = 196025
REMARK  8 active torsions:
REMARK  status: ('A' for Active; 'I' for Inactive)
REMARK    1  A    between atoms: C_1  and  C_3
REMARK    2  A    between atoms: C_1  and  O_13
REMARK    3  A    between atoms: C_2  and  C_8
REMARK    4  A    between atoms: C_8  and  C_10
REMARK    5  A    between atoms: C_10  and  O_11
REMARK    6  A    between atoms: O_13  and  S_14
REMARK    7  A    between atoms: S_14  and  C_16
REMARK    8  A    between atoms: C_17  and  N_23
REMARK                            x       y       z     vdW  Elec       q    Type
REMARK                         _______ _______ _______ _____ _____    ______ ____
ROOT
ATOM      1  C   UNL     1     -34.898  21.240   0.897  0.00  0.00    +0.185 C 
ENDROOT
BRANCH   1   3
ATOM      2  C   UNL     1     -31.511  18.626   0.753  0.00  0.00    -0.011 C 
ATOM      3  C   UNL     1     -33.719  20.329   0.847  0.00  0.00    +0.009 C 
ATOM      4  C   UNL     1     -31.477  19.849   0.084  0.00  0.00    -0.004 C 
ATOM      5  C   UNL     1     -32.648  18.255   1.470  0.00  0.00    -0.004 C 
ATOM      6  C   UNL     1     -32.581  20.702   0.130  0.00  0.00    -0.002 C 
ATOM      7  C   UNL     1     -33.752  19.106   1.517  0.00  0.00    -0.002 C 
BRANCH   2   8
ATOM      8  C   UNL     1     -30.330  17.717   0.704  0.00  0.00    +0.136 C 
BRANCH   8  10
ATOM      9  O   UNL     1     -30.911  15.378   0.353  0.00  0.00    -0.250 OA
ATOM     10  C   UNL     1     -30.570  16.459  -0.108  0.00  0.00    +0.318 C 
BRANCH  10  11
ATOM     11  O   UNL     1     -30.359  16.664  -1.435  0.00  0.00    -0.480 OA
ATOM     12  H   UNL     1     -30.533  15.977  -2.048  0.00  0.00    +0.295 HD
ENDBRANCH  10  11
ENDBRANCH   8  10
ENDBRANCH   2   8
ENDBRANCH   1   3
BRANCH   1  13
ATOM     13  O   UNL     1     -34.862  21.994   2.103  0.00  0.00    -0.289 OA
BRANCH  13  14
ATOM     14  S   UNL     1     -36.334  22.108   2.878  0.00  0.00    +0.053 S 
BRANCH  14  16
ATOM     15  N   UNL     1     -36.323  24.756   3.047  0.00  0.00    -0.234 NA
ATOM     16  C   UNL     1     -36.061  23.637   3.761  0.00  0.00    +0.155 C 
ATOM     17  C   UNL     1     -35.613  23.648   5.074  0.00  0.00    +0.168 C 
ATOM     18  C   UNL     1     -35.425  24.879   5.690  0.00  0.00    +0.028 C 
ATOM     19  C   UNL     1     -35.685  26.049   4.987  0.00  0.00    +0.022 C 
ATOM     20  C   UNL     1     -36.129  25.936   3.680  0.00  0.00    +0.100 C 
BRANCH  17  23
ATOM     21  O   UNL     1     -36.215  22.022   6.595  0.00  0.00    -0.126 OA
ATOM     22  O   UNL     1     -34.238  21.888   5.649  0.00  0.00    -0.126 OA
ATOM     23  N   UNL     1     -35.342  22.461   5.809  0.00  0.00    +0.060 N 
ENDBRANCH  17  23
ENDBRANCH  14  16
ENDBRANCH  13  14
ENDBRANCH   1  13
TORSDOF 8
ENDMDL
MODEL 4
REMARK VINA RESULT:      -5.8      1.764      2.359
REMARK  Name = 196025
REMARK  8 active torsions:
REMARK  status: ('A' for Active; 'I' for Inactive)
REMARK    1  A    between atoms: C_1  and  C_3
REMARK    2  A    between atoms: C_1  and  O_13
REMARK    3  A    between atoms: C_2  and  C_8
REMARK    4  A    between atoms: C_8  and  C_10
REMARK    5  A    between atoms: C_10  and  O_11
REMARK    6  A    between atoms: O_13  and  S_14
REMARK    7  A    between atoms: S_14  and  C_16
REMARK    8  A    between atoms: C_17  and  N_23
REMARK                            x       y       z     vdW  Elec       q    Type
REMARK                         _______ _______ _______ _____ _____    ______ ____
ROOT
ATOM      1  C   UNL     1     -35.118  21.485   1.265  0.00  0.00    +0.185 C 
ENDROOT
BRANCH   1   3
ATOM      2  C   UNL     1     -31.799  18.864   0.601  0.00  0.00    -0.011 C 
ATOM      3  C   UNL     1     -33.962  20.573   1.034  0.00  0.00    +0.009 C 
ATOM      4  C   UNL     1     -32.847  18.466   1.430  0.00  0.00    -0.004 C 
ATOM      5  C   UNL     1     -31.833  20.117  -0.012  0.00  0.00    -0.004 C 
ATOM      6  C   UNL     1     -33.929  19.319   1.647  0.00  0.00    -0.002 C 
ATOM      7  C   UNL     1     -32.914  20.970   0.204  0.00  0.00    -0.002 C 
BRANCH   2   8
ATOM      8  C   UNL     1     -30.644  17.951   0.368  0.00  0.00    +0.136 C 
BRANCH   8  10
ATOM      9  O   UNL     1     -31.150  15.569   0.303  0.00  0.00    -0.250 OA
ATOM     10  C   UNL     1     -31.034  16.637  -0.283  0.00  0.00    +0.318 C 
BRANCH  10  11
ATOM     11  O   UNL     1     -31.246  16.776  -1.618  0.00  0.00    -0.480 OA
ATOM     12  H   UNL     1     -30.591  16.497  -2.227  0.00  0.00    +0.295 HD
ENDBRANCH  10  11
ENDBRANCH   8  10
ENDBRANCH   2   8
ENDBRANCH   1   3
BRANCH   1  13
ATOM     13  O   UNL     1     -35.288  21.687   2.663  0.00  0.00    -0.289 OA
BRANCH  13  14
ATOM     14  S   UNL     1     -36.699  22.475   3.070  0.00  0.00    +0.053 S 
BRANCH  14  16
ATOM     15  N   UNL     1     -36.091  25.052   3.238  0.00  0.00    -0.234 NA
ATOM     16  C   UNL     1     -35.994  23.884   3.913  0.00  0.00    +0.155 C 
ATOM     17  C   UNL     1     -35.397  23.761   5.160  0.00  0.00    +0.168 C 
ATOM     18  C   UNL     1     -34.871  24.905   5.748  0.00  0.00    +0.028 C 
ATOM     19  C   UNL     1     -34.954  26.123   5.084  0.00  0.00    +0.022 C 
ATOM     20  C   UNL     1     -35.568  26.144   3.842  0.00  0.00    +0.100 C 
BRANCH  17  23
ATOM     21  O   UNL     1     -34.270  21.827   5.714  0.00  0.00    -0.126 OA
ATOM     22  O   UNL     1     -36.256  22.165   6.586  0.00  0.00    -0.126 OA
ATOM     23  N   UNL     1     -35.303  22.524   5.854  0.00  0.00    +0.060 N 
ENDBRANCH  17  23
ENDBRANCH  14  16
ENDBRANCH  13  14
ENDBRANCH   1  13
TORSDOF 8
ENDMDL
MODEL 5
REMARK VINA RESULT:      -5.7      1.170      1.805
REMARK  Name = 196025
REMARK  8 active torsions:
REMARK  status: ('A' for Active; 'I' for Inactive)
REMARK    1  A    between atoms: C_1  and  C_3
REMARK    2  A    between atoms: C_1  and  O_13
REMARK    3  A    between atoms: C_2  and  C_8
REMARK    4  A    between atoms: C_8  and  C_10
REMARK    5  A    between atoms: C_10  and  O_11
REMARK    6  A    between atoms: O_13  and  S_14
REMARK    7  A    between atoms: S_14  and  C_16
REMARK    8  A    between atoms: C_17  and  N_23
REMARK                            x       y       z     vdW  Elec       q    Type
REMARK                         _______ _______ _______ _____ _____    ______ ____
ROOT
ATOM      1  C   UNL     1     -35.147  21.214   0.946  0.00  0.00    +0.185 C 
ENDROOT
BRANCH   1   3
ATOM      2  C   UNL     1     -31.621  18.799   0.709  0.00  0.00    -0.011 C 
ATOM      3  C   UNL     1     -33.919  20.373   0.864  0.00  0.00    +0.009 C 
ATOM      4  C   UNL     1     -31.661  20.039   0.071  0.00  0.00    -0.004 C 
ATOM      5  C   UNL     1     -32.729  18.347   1.425  0.00  0.00    -0.004 C 
ATOM      6  C   UNL     1     -32.810  20.826   0.148  0.00  0.00    -0.002 C 
ATOM      7  C   UNL     1     -33.878  19.133   1.502  0.00  0.00    -0.002 C 
BRANCH   2   8
ATOM      8  C   UNL     1     -30.391  17.959   0.628  0.00  0.00    +0.136 C 
BRANCH   8  10
ATOM      9  O   UNL     1     -30.683  15.552   0.391  0.00  0.00    -0.250 OA
ATOM     10  C   UNL     1     -30.596  16.659  -0.125  0.00  0.00    +0.318 C 
BRANCH  10  11
ATOM     11  O   UNL     1     -30.675  16.857  -1.467  0.00  0.00    -0.480 OA
ATOM     12  H   UNL     1     -31.406  17.318  -1.830  0.00  0.00    +0.295 HD
ENDBRANCH  10  11
ENDBRANCH   8  10
ENDBRANCH   2   8
ENDBRANCH   1   3
BRANCH   1  13
ATOM     13  O   UNL     1     -35.382  21.575   2.302  0.00  0.00    -0.289 OA
BRANCH  13  14
ATOM     14  S   UNL     1     -36.808  22.403   2.547  0.00  0.00    +0.053 S 
BRANCH  14  16
ATOM     15  N   UNL     1     -35.062  23.285   4.340  0.00  0.00    -0.234 NA
ATOM     16  C   UNL     1     -36.226  23.608   3.731  0.00  0.00    +0.155 C 
ATOM     17  C   UNL     1     -36.934  24.774   3.989  0.00  0.00    +0.168 C 
ATOM     18  C   UNL     1     -36.414  25.660   4.925  0.00  0.00    +0.028 C 
ATOM     19  C   UNL     1     -35.219  25.361   5.569  0.00  0.00    +0.022 C 
ATOM     20  C   UNL     1     -34.587  24.172   5.245  0.00  0.00    +0.100 C 
BRANCH  17  23
ATOM     21  O   UNL     1     -39.225  24.615   3.787  0.00  0.00    -0.126 OA
ATOM     22  O   UNL     1     -38.132  25.853   2.340  0.00  0.00    -0.126 OA
ATOM     23  N   UNL     1     -38.157  25.097   3.340  0.00  0.00    +0.060 N 
ENDBRANCH  17  23
ENDBRANCH  14  16
ENDBRANCH  13  14
ENDBRANCH   1  13
TORSDOF 8
ENDMDL
MODEL 6
REMARK VINA RESULT:      -5.7      5.779      7.942
REMARK  Name = 196025
REMARK  8 active torsions:
REMARK  status: ('A' for Active; 'I' for Inactive)
REMARK    1  A    between atoms: C_1  and  C_3
REMARK    2  A    between atoms: C_1  and  O_13
REMARK    3  A    between atoms: C_2  and  C_8
REMARK    4  A    between atoms: C_8  and  C_10
REMARK    5  A    between atoms: C_10  and  O_11
REMARK    6  A    between atoms: O_13  and  S_14
REMARK    7  A    between atoms: S_14  and  C_16
REMARK    8  A    between atoms: C_17  and  N_23
REMARK                            x       y       z     vdW  Elec       q    Type
REMARK                         _______ _______ _______ _____ _____    ______ ____
ROOT
ATOM      1  C   UNL     1     -34.211  26.016   5.949  0.00  0.00    +0.185 C 
ENDROOT
BRANCH   1   3
ATOM      2  C   UNL     1     -35.337  23.123   3.001  0.00  0.00    -0.011 C 
ATOM      3  C   UNL     1     -34.603  25.009   4.922  0.00  0.00    +0.009 C 
ATOM      4  C   UNL     1     -35.728  22.954   4.329  0.00  0.00    -0.004 C 
ATOM      5  C   UNL     1     -34.580  24.236   2.633  0.00  0.00    -0.004 C 
ATOM      6  C   UNL     1     -35.361  23.896   5.290  0.00  0.00    -0.002 C 
ATOM      7  C   UNL     1     -34.213  25.178   3.593  0.00  0.00    -0.002 C 
BRANCH   2   8
ATOM      8  C   UNL     1     -35.731  22.117   1.974  0.00  0.00    +0.136 C 
BRANCH   8  10
ATOM      9  O   UNL     1     -34.746  20.063   2.838  0.00  0.00    -0.250 OA
ATOM     10  C   UNL     1     -35.738  20.693   2.495  0.00  0.00    +0.318 C 
BRANCH  10  11
ATOM     11  O   UNL     1     -36.994  20.176   2.542  0.00  0.00    -0.480 OA
ATOM     12  H   UNL     1     -37.382  19.819   1.768  0.00  0.00    +0.295 HD
ENDBRANCH  10  11
ENDBRANCH   8  10
ENDBRANCH   2   8
ENDBRANCH   1   3
BRANCH   1  13
ATOM     13  O   UNL     1     -33.094  26.761   5.478  0.00  0.00    -0.289 OA
BRANCH  13  14
ATOM     14  S   UNL     1     -32.271  27.581   6.673  0.00  0.00    +0.053 S 
BRANCH  14  16
ATOM     15  N   UNL     1     -32.713  29.686   5.120  0.00  0.00    -0.234 NA
ATOM     16  C   UNL     1     -31.721  28.985   5.714  0.00  0.00    +0.155 C 
ATOM     17  C   UNL     1     -30.375  29.306   5.602  0.00  0.00    +0.168 C 
ATOM     18  C   UNL     1     -30.030  30.413   4.837  0.00  0.00    +0.028 C 
ATOM     19  C   UNL     1     -31.023  31.158   4.213  0.00  0.00    +0.022 C 
ATOM     20  C   UNL     1     -32.338  30.758   4.384  0.00  0.00    +0.100 C 
BRANCH  17  23
ATOM     21  O   UNL     1     -28.865  28.973   7.313  0.00  0.00    -0.126 OA
ATOM     22  O   UNL     1     -28.947  27.497   5.690  0.00  0.00    -0.126 OA
ATOM     23  N   UNL     1     -29.345  28.555   6.233  0.00  0.00    +0.060 N 
ENDBRANCH  17  23
ENDBRANCH  14  16
ENDBRANCH  13  14
ENDBRANCH   1  13
TORSDOF 8
ENDMDL
MODEL 7
REMARK VINA RESULT:      -5.7      1.840      2.377
REMARK  Name = 196025
REMARK  8 active torsions:
REMARK  status: ('A' for Active; 'I' for Inactive)
REMARK    1  A    between atoms: C_1  and  C_3
REMARK    2  A    between atoms: C_1  and  O_13
REMARK    3  A    between atoms: C_2  and  C_8
REMARK    4  A    between atoms: C_8  and  C_10
REMARK    5  A    between atoms: C_10  and  O_11
REMARK    6  A    between atoms: O_13  and  S_14
REMARK    7  A    between atoms: S_14  and  C_16
REMARK    8  A    between atoms: C_17  and  N_23
REMARK                            x       y       z     vdW  Elec       q    Type
REMARK                         _______ _______ _______ _____ _____    ______ ____
ROOT
ATOM      1  C   UNL     1     -34.285  22.963   0.155  0.00  0.00    +0.185 C 
ENDROOT
BRANCH   1   3
ATOM      2  C   UNL     1     -32.578  19.085   0.767  0.00  0.00    -0.011 C 
ATOM      3  C   UNL     1     -33.690  21.612   0.369  0.00  0.00    +0.009 C 
ATOM      4  C   UNL     1     -31.881  20.046   0.035  0.00  0.00    -0.004 C 
ATOM      5  C   UNL     1     -33.830  19.388   1.300  0.00  0.00    -0.004 C 
ATOM      6  C   UNL     1     -32.436  21.310  -0.165  0.00  0.00    -0.002 C 
ATOM      7  C   UNL     1     -34.386  20.651   1.101  0.00  0.00    -0.002 C 
BRANCH   2   8
ATOM      8  C   UNL     1     -31.982  17.735   0.982  0.00  0.00    +0.136 C 
BRANCH   8  10
ATOM      9  O   UNL     1     -32.952  16.962  -1.115  0.00  0.00    -0.250 OA
ATOM     10  C   UNL     1     -32.436  16.706  -0.036  0.00  0.00    +0.318 C 
BRANCH  10  11
ATOM     11  O   UNL     1     -32.202  15.436   0.389  0.00  0.00    -0.480 OA
ATOM     12  H   UNL     1     -31.972  15.276   1.283  0.00  0.00    +0.295 HD
ENDBRANCH  10  11
ENDBRANCH   8  10
ENDBRANCH   2   8
ENDBRANCH   1   3
BRANCH   1  13
ATOM     13  O   UNL     1     -34.021  23.779   1.290  0.00  0.00    -0.289 OA
BRANCH  13  14
ATOM     14  S   UNL     1     -35.384  24.453   1.974  0.00  0.00    +0.053 S 
BRANCH  14  16
ATOM     15  N   UNL     1     -35.698  22.420   3.650  0.00  0.00    -0.234 NA
ATOM     16  C   UNL     1     -35.278  23.705   3.593  0.00  0.00    +0.155 C 
ATOM     17  C   UNL     1     -34.802  24.410   4.689  0.00  0.00    +0.168 C 
ATOM     18  C   UNL     1     -34.752  23.756   5.915  0.00  0.00    +0.028 C 
ATOM     19  C   UNL     1     -35.174  22.435   6.010  0.00  0.00    +0.022 C 
ATOM     20  C   UNL     1     -35.634  21.816   4.859  0.00  0.00    +0.100 C 
BRANCH  17  23
ATOM     21  O   UNL     1     -33.168  25.995   4.321  0.00  0.00    -0.126 OA
ATOM     22  O   UNL     1     -35.192  26.678   4.832  0.00  0.00    -0.126 OA
ATOM     23  N   UNL     1     -34.366  25.761   4.611  0.00  0.00    +0.060 N 
ENDBRANCH  17  23
ENDBRANCH  14  16
ENDBRANCH  13  14
ENDBRANCH   1  13
TORSDOF 8
ENDMDL
MODEL 8
REMARK VINA RESULT:      -5.7      2.067      2.729
REMARK  Name = 196025
REMARK  8 active torsions:
REMARK  status: ('A' for Active; 'I' for Inactive)
REMARK    1  A    between atoms: C_1  and  C_3
REMARK    2  A    between atoms: C_1  and  O_13
REMARK    3  A    between atoms: C_2  and  C_8
REMARK    4  A    between atoms: C_8  and  C_10
REMARK    5  A    between atoms: C_10  and  O_11
REMARK    6  A    between atoms: O_13  and  S_14
REMARK    7  A    between atoms: S_14  and  C_16
REMARK    8  A    between atoms: C_17  and  N_23
REMARK                            x       y       z     vdW  Elec       q    Type
REMARK                         _______ _______ _______ _____ _____    ______ ____
ROOT
ATOM      1  C   UNL     1     -35.018  22.864   0.532  0.00  0.00    +0.185 C 
ENDROOT
BRANCH   1   3
ATOM      2  C   UNL     1     -32.765  19.252   0.980  0.00  0.00    -0.011 C 
ATOM      3  C   UNL     1     -34.233  21.606   0.688  0.00  0.00    +0.009 C 
ATOM      4  C   UNL     1     -33.973  19.408   1.658  0.00  0.00    -0.004 C 
ATOM      5  C   UNL     1     -32.291  20.272   0.156  0.00  0.00    -0.004 C 
ATOM      6  C   UNL     1     -34.708  20.585   1.513  0.00  0.00    -0.002 C 
ATOM      7  C   UNL     1     -33.024  21.449   0.009  0.00  0.00    -0.002 C 
BRANCH   2   8
ATOM      8  C   UNL     1     -31.981  17.993   1.135  0.00  0.00    +0.136 C 
BRANCH   8  10
ATOM      9  O   UNL     1     -33.206  17.035  -0.740  0.00  0.00    -0.250 OA
ATOM     10  C   UNL     1     -32.387  16.904   0.160  0.00  0.00    +0.318 C 
BRANCH  10  11
ATOM     11  O   UNL     1     -31.728  15.740   0.397  0.00  0.00    -0.480 OA
ATOM     12  H   UNL     1     -30.956  15.738   0.927  0.00  0.00    +0.295 HD
ENDBRANCH  10  11
ENDBRANCH   8  10
ENDBRANCH   2   8
ENDBRANCH   1   3
BRANCH   1  13
ATOM     13  O   UNL     1     -34.424  23.892   1.315  0.00  0.00    -0.289 OA
BRANCH  13  14
ATOM     14  S   UNL     1     -35.411  25.210   1.569  0.00  0.00    +0.053 S 
BRANCH  14  16
ATOM     15  N   UNL     1     -33.971  26.331   3.496  0.00  0.00    -0.234 NA
ATOM     16  C   UNL     1     -35.029  25.514   3.288  0.00  0.00    +0.155 C 
ATOM     17  C   UNL     1     -35.774  24.941   4.310  0.00  0.00    +0.168 C 
ATOM     18  C   UNL     1     -35.411  25.226   5.621  0.00  0.00    +0.028 C 
ATOM     19  C   UNL     1     -34.330  26.063   5.871  0.00  0.00    +0.022 C 
ATOM     20  C   UNL     1     -33.648  26.585   4.785  0.00  0.00    +0.100 C 
BRANCH  17  23
ATOM     21  O   UNL     1     -38.024  24.587   3.953  0.00  0.00    -0.126 OA
ATOM     22  O   UNL     1     -36.686  22.847   3.989  0.00  0.00    -0.126 OA
ATOM     23  N   UNL     1     -36.882  24.083   4.072  0.00  0.00    +0.060 N 
ENDBRANCH  17  23
ENDBRANCH  14  16
ENDBRANCH  13  14
ENDBRANCH   1  13
TORSDOF 8
ENDMDL
MODEL 9
REMARK VINA RESULT:      -5.6      1.670      2.380
REMARK  Name = 196025
REMARK  8 active torsions:
REMARK  status: ('A' for Active; 'I' for Inactive)
REMARK    1  A    between atoms: C_1  and  C_3
REMARK    2  A    between atoms: C_1  and  O_13
REMARK    3  A    between atoms: C_2  and  C_8
REMARK    4  A    between atoms: C_8  and  C_10
REMARK    5  A    between atoms: C_10  and  O_11
REMARK    6  A    between atoms: O_13  and  S_14
REMARK    7  A    between atoms: S_14  and  C_16
REMARK    8  A    between atoms: C_17  and  N_23
REMARK                            x       y       z     vdW  Elec       q    Type
REMARK                         _______ _______ _______ _____ _____    ______ ____
ROOT
ATOM      1  C   UNL     1     -34.711  21.137   0.597  0.00  0.00    +0.185 C 
ENDROOT
BRANCH   1   3
ATOM      2  C   UNL     1     -31.328  18.520   0.767  0.00  0.00    -0.011 C 
ATOM      3  C   UNL     1     -33.533  20.226   0.656  0.00  0.00    +0.009 C 
ATOM      4  C   UNL     1     -32.514  18.168   1.409  0.00  0.00    -0.004 C 
ATOM      5  C   UNL     1     -31.243  19.725   0.069  0.00  0.00    -0.004 C 
ATOM      6  C   UNL     1     -33.617  19.020   1.354  0.00  0.00    -0.002 C 
ATOM      7  C   UNL     1     -32.345  20.577   0.013  0.00  0.00    -0.002 C 
BRANCH   2   8
ATOM      8  C   UNL     1     -30.149  17.608   0.825  0.00  0.00    +0.136 C 
BRANCH   8  10
ATOM      9  O   UNL     1     -30.829  15.322   0.330  0.00  0.00    -0.250 OA
ATOM     10  C   UNL     1     -30.304  16.366  -0.032  0.00  0.00    +0.318 C 
BRANCH  10  11
ATOM     11  O   UNL     1     -29.785  16.541  -1.276  0.00  0.00    -0.480 OA
ATOM     12  H   UNL     1     -29.140  17.204  -1.425  0.00  0.00    +0.295 HD
ENDBRANCH  10  11
ENDBRANCH   8  10
ENDBRANCH   2   8
ENDBRANCH   1   3
BRANCH   1  13
ATOM     13  O   UNL     1     -34.812  21.858   1.819  0.00  0.00    -0.289 OA
BRANCH  13  14
ATOM     14  S   UNL     1     -36.173  21.496   2.711  0.00  0.00    +0.053 S 
BRANCH  14  16
ATOM     15  N   UNL     1     -37.592  23.625   2.010  0.00  0.00    -0.234 NA
ATOM     16  C   UNL     1     -36.775  23.156   2.981  0.00  0.00    +0.155 C 
ATOM     17  C   UNL     1     -36.415  23.886   4.105  0.00  0.00    +0.168 C 
ATOM     18  C   UNL     1     -36.926  25.172   4.240  0.00  0.00    +0.028 C 
ATOM     19  C   UNL     1     -37.769  25.685   3.262  0.00  0.00    +0.022 C 
ATOM     20  C   UNL     1     -38.070  24.880   2.176  0.00  0.00    +0.100 C 
BRANCH  17  23
ATOM     21  O   UNL     1     -36.040  22.662   6.023  0.00  0.00    -0.126 OA
ATOM     22  O   UNL     1     -34.332  23.658   5.068  0.00  0.00    -0.126 OA
ATOM     23  N   UNL     1     -35.553  23.377   5.115  0.00  0.00    +0.060 N 
ENDBRANCH  17  23
ENDBRANCH  14  16
ENDBRANCH  13  14
ENDBRANCH   1  13
TORSDOF 8
ENDMDL
