MODEL 1
REMARK VINA RESULT:      -6.3      0.000      0.000
REMARK  Name = 5401
REMARK  3 active torsions:
REMARK  status: ('A' for Active; 'I' for Inactive)
REMARK    1  A    between atoms: C_11  and  C_23
REMARK    2  A    between atoms: C_18  and  O_27
REMARK    3  A    between atoms: C_19  and  O_29
REMARK                            x       y       z     vdW  Elec       q    Type
REMARK                         _______ _______ _______ _____ _____    ______ ____
ROOT
ATOM      1  O   UNL     1     -34.758  34.139   1.094  0.00  0.00    -0.272 OA
ATOM      2  N   UNL     1     -35.572  31.990   1.437  0.00  0.00    -0.274 N 
ATOM      3  N   UNL     1     -35.304  29.314   2.507  0.00  0.00    -0.231 N 
ATOM      4  N   UNL     1     -35.927  27.032   2.487  0.00  0.00    -0.332 NA
ATOM      5  N   UNL     1     -34.363  27.867   4.119  0.00  0.00    -0.317 NA
ATOM      6  N   UNL     1     -33.424  26.429   5.728  0.00  0.00    -0.335 N 
ATOM      7  C   UNL     1     -36.667  31.021   1.367  0.00  0.00    +0.116 C 
ATOM      8  C   UNL     1     -34.305  31.500   1.975  0.00  0.00    +0.116 C 
ATOM      9  C   UNL     1     -36.178  29.572   1.359  0.00  0.00    +0.125 C 
ATOM     10  C   UNL     1     -34.514  30.427   3.040  0.00  0.00    +0.125 C 
ATOM     11  C   UNL     1     -35.679  33.322   1.036  0.00  0.00    +0.253 C 
ATOM     12  C   UNL     1     -35.194  28.038   3.054  0.00  0.00    +0.203 C 
ATOM     13  C   UNL     1     -35.826  25.797   3.011  0.00  0.00    +0.138 C 
ATOM     14  C   UNL     1     -34.993  25.533   4.110  0.00  0.00    +0.146 C 
ATOM     15  C   UNL     1     -34.286  26.619   4.619  0.00  0.00    +0.178 C 
ATOM     16  C   UNL     1     -36.549  24.736   2.474  0.00  0.00    +0.069 C 
ATOM     17  C   UNL     1     -34.895  24.238   4.649  0.00  0.00    +0.029 C 
ATOM     18  C   UNL     1     -36.458  23.445   3.003  0.00  0.00    +0.174 C 
ATOM     19  C   UNL     1     -35.630  23.196   4.093  0.00  0.00    +0.169 C 
ATOM     20  H   UNL     1     -32.919  27.190   6.095  0.00  0.00    +0.144 HD
ATOM     21  H   UNL     1     -33.330  25.536   6.131  0.00  0.00    +0.144 HD
ENDROOT
BRANCH  11  23
ATOM     22  O   UNL     1     -37.843  33.996   1.637  0.00  0.00    -0.347 OA
ATOM     23  C   UNL     1     -37.012  33.745   0.500  0.00  0.00    +0.191 C 
ATOM     24  C   UNL     1     -36.934  35.032  -0.299  0.00  0.00    +0.042 C 
ATOM     25  C   UNL     1     -37.197  36.086   0.750  0.00  0.00    +0.035 C 
ATOM     26  C   UNL     1     -38.187  35.387   1.655  0.00  0.00    +0.143 C 
ENDBRANCH  11  23
BRANCH  18  27
ATOM     27  O   UNL     1     -37.187  22.439   2.443  0.00  0.00    -0.468 OA
ATOM     28  C   UNL     1     -38.579  22.679   2.250  0.00  0.00    +0.253 C 
ENDBRANCH  18  27
BRANCH  19  29
ATOM     29  O   UNL     1     -35.530  21.944   4.619  0.00  0.00    -0.469 OA
ATOM     30  C   UNL     1     -35.187  21.847   6.000  0.00  0.00    +0.253 C 
ENDBRANCH  19  29
TORSDOF 3
ENDMDL
MODEL 2
REMARK VINA RESULT:      -6.2      1.510      1.752
REMARK  Name = 5401
REMARK  3 active torsions:
REMARK  status: ('A' for Active; 'I' for Inactive)
REMARK    1  A    between atoms: C_11  and  C_23
REMARK    2  A    between atoms: C_18  and  O_27
REMARK    3  A    between atoms: C_19  and  O_29
REMARK                            x       y       z     vdW  Elec       q    Type
REMARK                         _______ _______ _______ _____ _____    ______ ____
ROOT
ATOM      1  O   UNL     1     -32.458  33.613   0.319  0.00  0.00    -0.272 OA
ATOM      2  N   UNL     1     -33.730  31.776   0.958  0.00  0.00    -0.274 N 
ATOM      3  N   UNL     1     -34.104  29.363   2.511  0.00  0.00    -0.231 N 
ATOM      4  N   UNL     1     -35.196  27.290   2.837  0.00  0.00    -0.332 NA
ATOM      5  N   UNL     1     -33.594  28.104   4.443  0.00  0.00    -0.317 NA
ATOM      6  N   UNL     1     -33.083  26.854   6.370  0.00  0.00    -0.335 N 
ATOM      7  C   UNL     1     -35.000  31.048   0.952  0.00  0.00    +0.116 C 
ATOM      8  C   UNL     1     -32.633  31.162   1.699  0.00  0.00    +0.116 C 
ATOM      9  C   UNL     1     -34.831  29.559   1.254  0.00  0.00    +0.125 C 
ATOM     10  C   UNL     1     -33.130  30.382   2.913  0.00  0.00    +0.125 C 
ATOM     11  C   UNL     1     -33.527  32.999   0.316  0.00  0.00    +0.253 C 
ATOM     12  C   UNL     1     -34.302  28.223   3.286  0.00  0.00    +0.203 C 
ATOM     13  C   UNL     1     -35.392  26.187   3.582  0.00  0.00    +0.138 C 
ATOM     14  C   UNL     1     -34.703  25.985   4.789  0.00  0.00    +0.146 C 
ATOM     15  C   UNL     1     -33.814  26.988   5.164  0.00  0.00    +0.178 C 
ATOM     16  C   UNL     1     -36.290  25.205   3.173  0.00  0.00    +0.069 C 
ATOM     17  C   UNL     1     -34.917  24.828   5.558  0.00  0.00    +0.029 C 
ATOM     18  C   UNL     1     -36.509  24.050   3.932  0.00  0.00    +0.174 C 
ATOM     19  C   UNL     1     -35.821  23.862   5.126  0.00  0.00    +0.169 C 
ATOM     20  H   UNL     1     -32.451  27.557   6.644  0.00  0.00    +0.144 HD
ATOM     21  H   UNL     1     -33.206  26.056   6.934  0.00  0.00    +0.144 HD
ENDROOT
BRANCH  11  23
ATOM     22  O   UNL     1     -35.456  34.312   0.539  0.00  0.00    -0.347 OA
ATOM     23  C   UNL     1     -34.704  33.563  -0.419  0.00  0.00    +0.191 C 
ATOM     24  C   UNL     1     -34.294  34.518  -1.523  0.00  0.00    +0.042 C 
ATOM     25  C   UNL     1     -34.293  35.853  -0.818  0.00  0.00    +0.035 C 
ATOM     26  C   UNL     1     -35.437  35.693   0.158  0.00  0.00    +0.143 C 
ENDBRANCH  11  23
BRANCH  18  27
ATOM     27  O   UNL     1     -37.399  23.118   3.491  0.00  0.00    -0.468 OA
ATOM     28  C   UNL     1     -36.949  22.223   2.476  0.00  0.00    +0.253 C 
ENDBRANCH  18  27
BRANCH  19  29
ATOM     29  O   UNL     1     -36.022  22.743   5.876  0.00  0.00    -0.469 OA
ATOM     30  C   UNL     1     -34.972  21.779   5.897  0.00  0.00    +0.253 C 
ENDBRANCH  19  29
TORSDOF 3
ENDMDL
MODEL 3
REMARK VINA RESULT:      -6.1      6.963     12.749
REMARK  Name = 5401
REMARK  3 active torsions:
REMARK  status: ('A' for Active; 'I' for Inactive)
REMARK    1  A    between atoms: C_11  and  C_23
REMARK    2  A    between atoms: C_18  and  O_27
REMARK    3  A    between atoms: C_19  and  O_29
REMARK                            x       y       z     vdW  Elec       q    Type
REMARK                         _______ _______ _______ _____ _____    ______ ____
ROOT
ATOM      1  O   UNL     1     -31.931  15.430  -1.906  0.00  0.00    -0.272 OA
ATOM      2  N   UNL     1     -32.566  17.060  -0.376  0.00  0.00    -0.274 N 
ATOM      3  N   UNL     1     -34.432  19.054   0.582  0.00  0.00    -0.231 N 
ATOM      4  N   UNL     1     -34.875  20.987   1.872  0.00  0.00    -0.332 NA
ATOM      5  N   UNL     1     -36.652  19.848   0.710  0.00  0.00    -0.317 NA
ATOM      6  N   UNL     1     -38.867  20.634   0.834  0.00  0.00    -0.335 N 
ATOM      7  C   UNL     1     -32.360  17.757   0.895  0.00  0.00    +0.116 C 
ATOM      8  C   UNL     1     -33.699  17.502  -1.183  0.00  0.00    +0.116 C 
ATOM      9  C   UNL     1     -33.010  19.141   0.924  0.00  0.00    +0.125 C 
ATOM     10  C   UNL     1     -34.863  17.982  -0.318  0.00  0.00    +0.125 C 
ATOM     11  C   UNL     1     -31.759  16.018  -0.836  0.00  0.00    +0.253 C 
ATOM     12  C   UNL     1     -35.346  19.987   1.067  0.00  0.00    +0.203 C 
ATOM     13  C   UNL     1     -35.753  21.890   2.343  0.00  0.00    +0.138 C 
ATOM     14  C   UNL     1     -37.119  21.821   2.025  0.00  0.00    +0.146 C 
ATOM     15  C   UNL     1     -37.504  20.769   1.199  0.00  0.00    +0.178 C 
ATOM     16  C   UNL     1     -35.330  22.930   3.167  0.00  0.00    +0.069 C 
ATOM     17  C   UNL     1     -38.027  22.772   2.524  0.00  0.00    +0.029 C 
ATOM     18  C   UNL     1     -36.226  23.880   3.668  0.00  0.00    +0.174 C 
ATOM     19  C   UNL     1     -37.577  23.800   3.346  0.00  0.00    +0.169 C 
ATOM     20  H   UNL     1     -39.149  19.894   0.250  0.00  0.00    +0.144 HD
ATOM     21  H   UNL     1     -39.531  21.282   1.165  0.00  0.00    +0.144 HD
ENDROOT
BRANCH  11  23
ATOM     22  O   UNL     1     -30.867  14.270   0.447  0.00  0.00    -0.347 OA
ATOM     23  C   UNL     1     -30.621  15.622   0.052  0.00  0.00    +0.191 C 
ATOM     24  C   UNL     1     -29.287  15.650  -0.668  0.00  0.00    +0.042 C 
ATOM     25  C   UNL     1     -29.166  14.237  -1.189  0.00  0.00    +0.035 C 
ATOM     26  C   UNL     1     -29.829  13.440  -0.088  0.00  0.00    +0.143 C 
ENDBRANCH  11  23
BRANCH  18  27
ATOM     27  O   UNL     1     -35.763  24.878   4.471  0.00  0.00    -0.468 OA
ATOM     28  C   UNL     1     -34.565  24.619   5.200  0.00  0.00    +0.253 C 
ENDBRANCH  18  27
BRANCH  19  29
ATOM     29  O   UNL     1     -38.461  24.717   3.825  0.00  0.00    -0.469 OA
ATOM     30  C   UNL     1     -39.750  24.755   3.216  0.00  0.00    +0.253 C 
ENDBRANCH  19  29
TORSDOF 3
ENDMDL
MODEL 4
REMARK VINA RESULT:      -6.1      4.426      9.445
REMARK  Name = 5401
REMARK  3 active torsions:
REMARK  status: ('A' for Active; 'I' for Inactive)
REMARK    1  A    between atoms: C_11  and  C_23
REMARK    2  A    between atoms: C_18  and  O_27
REMARK    3  A    between atoms: C_19  and  O_29
REMARK                            x       y       z     vdW  Elec       q    Type
REMARK                         _______ _______ _______ _____ _____    ______ ____
ROOT
ATOM      1  O   UNL     1     -37.038  22.887   4.125  0.00  0.00    -0.272 OA
ATOM      2  N   UNL     1     -35.323  24.365   3.601  0.00  0.00    -0.274 N 
ATOM      3  N   UNL     1     -33.613  26.606   4.256  0.00  0.00    -0.231 N 
ATOM      4  N   UNL     1     -32.183  28.358   3.563  0.00  0.00    -0.332 NA
ATOM      5  N   UNL     1     -32.563  27.932   5.904  0.00  0.00    -0.317 NA
ATOM      6  N   UNL     1     -31.517  29.250   7.549  0.00  0.00    -0.335 N 
ATOM      7  C   UNL     1     -34.220  24.772   2.727  0.00  0.00    +0.116 C 
ATOM      8  C   UNL     1     -35.581  25.214   4.760  0.00  0.00    +0.116 C 
ATOM      9  C   UNL     1     -33.878  26.256   2.858  0.00  0.00    +0.125 C 
ATOM     10  C   UNL     1     -34.300  25.844   5.302  0.00  0.00    +0.125 C 
ATOM     11  C   UNL     1     -36.110  23.231   3.390  0.00  0.00    +0.253 C 
ATOM     12  C   UNL     1     -32.764  27.659   4.585  0.00  0.00    +0.203 C 
ATOM     13  C   UNL     1     -31.362  29.377   3.874  0.00  0.00    +0.138 C 
ATOM     14  C   UNL     1     -31.098  29.725   5.209  0.00  0.00    +0.146 C 
ATOM     15  C   UNL     1     -31.734  28.957   6.180  0.00  0.00    +0.178 C 
ATOM     16  C   UNL     1     -30.743  30.122   2.874  0.00  0.00    +0.069 C 
ATOM     17  C   UNL     1     -30.237  30.792   5.521  0.00  0.00    +0.029 C 
ATOM     18  C   UNL     1     -29.886  31.185   3.175  0.00  0.00    +0.174 C 
ATOM     19  C   UNL     1     -29.632  31.520   4.501  0.00  0.00    +0.169 C 
ATOM     20  H   UNL     1     -31.963  28.713   8.245  0.00  0.00    +0.144 HD
ATOM     21  H   UNL     1     -30.921  29.990   7.806  0.00  0.00    +0.144 HD
ENDROOT
BRANCH  11  23
ATOM     22  O   UNL     1     -35.617  21.066   2.639  0.00  0.00    -0.347 OA
ATOM     23  C   UNL     1     -35.778  22.412   2.182  0.00  0.00    +0.191 C 
ATOM     24  C   UNL     1     -36.895  22.413   1.156  0.00  0.00    +0.042 C 
ATOM     25  C   UNL     1     -37.710  21.207   1.558  0.00  0.00    +0.035 C 
ATOM     26  C   UNL     1     -36.642  20.256   2.049  0.00  0.00    +0.143 C 
ENDBRANCH  11  23
BRANCH  18  27
ATOM     27  O   UNL     1     -29.304  31.884   2.161  0.00  0.00    -0.468 OA
ATOM     28  C   UNL     1     -30.159  32.700   1.364  0.00  0.00    +0.253 C 
ENDBRANCH  18  27
BRANCH  19  29
ATOM     29  O   UNL     1     -28.800  32.552   4.811  0.00  0.00    -0.469 OA
ATOM     30  C   UNL     1     -27.668  32.250   5.625  0.00  0.00    +0.253 C 
ENDBRANCH  19  29
TORSDOF 3
ENDMDL
MODEL 5
REMARK VINA RESULT:      -6.0      4.609      9.112
REMARK  Name = 5401
REMARK  3 active torsions:
REMARK  status: ('A' for Active; 'I' for Inactive)
REMARK    1  A    between atoms: C_11  and  C_23
REMARK    2  A    between atoms: C_18  and  O_27
REMARK    3  A    between atoms: C_19  and  O_29
REMARK                            x       y       z     vdW  Elec       q    Type
REMARK                         _______ _______ _______ _____ _____    ______ ____
ROOT
ATOM      1  O   UNL     1     -41.841  20.360  -0.096  0.00  0.00    -0.272 OA
ATOM      2  N   UNL     1     -40.145  21.898   0.307  0.00  0.00    -0.274 N 
ATOM      3  N   UNL     1     -38.115  23.049   2.019  0.00  0.00    -0.231 N 
ATOM      4  N   UNL     1     -36.707  24.863   2.585  0.00  0.00    -0.332 NA
ATOM      5  N   UNL     1     -36.595  22.789   3.807  0.00  0.00    -0.317 NA
ATOM      6  N   UNL     1     -35.082  22.525   5.589  0.00  0.00    -0.335 N 
ATOM      7  C   UNL     1     -39.230  22.934  -0.176  0.00  0.00    +0.116 C 
ATOM      8  C   UNL     1     -40.051  21.557   1.723  0.00  0.00    +0.116 C 
ATOM      9  C   UNL     1     -38.719  23.841   0.944  0.00  0.00    +0.125 C 
ATOM     10  C   UNL     1     -38.625  21.694   2.250  0.00  0.00    +0.125 C 
ATOM     11  C   UNL     1     -41.070  21.233  -0.501  0.00  0.00    +0.253 C 
ATOM     12  C   UNL     1     -37.112  23.579   2.826  0.00  0.00    +0.203 C 
ATOM     13  C   UNL     1     -35.738  25.380   3.361  0.00  0.00    +0.138 C 
ATOM     14  C   UNL     1     -35.150  24.634   4.396  0.00  0.00    +0.146 C 
ATOM     15  C   UNL     1     -35.627  23.338   4.565  0.00  0.00    +0.178 C 
ATOM     16  C   UNL     1     -35.286  26.682   3.161  0.00  0.00    +0.069 C 
ATOM     17  C   UNL     1     -34.137  25.186   5.200  0.00  0.00    +0.029 C 
ATOM     18  C   UNL     1     -34.280  27.239   3.957  0.00  0.00    +0.174 C 
ATOM     19  C   UNL     1     -33.705  26.490   4.978  0.00  0.00    +0.169 C 
ATOM     20  H   UNL     1     -35.413  21.606   5.718  0.00  0.00    +0.144 HD
ATOM     21  H   UNL     1     -34.372  22.878   6.173  0.00  0.00    +0.144 HD
ENDROOT
BRANCH  11  23
ATOM     22  O   UNL     1     -41.481  20.474  -2.680  0.00  0.00    -0.347 OA
ATOM     23  C   UNL     1     -41.101  21.639  -1.941  0.00  0.00    +0.191 C 
ATOM     24  C   UNL     1     -42.135  22.712  -2.220  0.00  0.00    +0.042 C 
ATOM     25  C   UNL     1     -43.358  21.903  -2.583  0.00  0.00    +0.035 C 
ATOM     26  C   UNL     1     -42.748  20.721  -3.303  0.00  0.00    +0.143 C 
ENDBRANCH  11  23
BRANCH  18  27
ATOM     27  O   UNL     1     -33.871  28.517   3.721  0.00  0.00    -0.468 OA
ATOM     28  C   UNL     1     -33.290  28.786   2.447  0.00  0.00    +0.253 C 
ENDBRANCH  18  27
BRANCH  19  29
ATOM     29  O   UNL     1     -32.724  27.018   5.761  0.00  0.00    -0.469 OA
ATOM     30  C   UNL     1     -32.940  26.999   7.171  0.00  0.00    +0.253 C 
ENDBRANCH  19  29
TORSDOF 3
ENDMDL
MODEL 6
REMARK VINA RESULT:      -6.0      5.263     10.829
REMARK  Name = 5401
REMARK  3 active torsions:
REMARK  status: ('A' for Active; 'I' for Inactive)
REMARK    1  A    between atoms: C_11  and  C_23
REMARK    2  A    between atoms: C_18  and  O_27
REMARK    3  A    between atoms: C_19  and  O_29
REMARK                            x       y       z     vdW  Elec       q    Type
REMARK                         _______ _______ _______ _____ _____    ______ ____
ROOT
ATOM      1  O   UNL     1     -37.197  17.390  -1.472  0.00  0.00    -0.272 OA
ATOM      2  N   UNL     1     -36.085  19.239  -0.608  0.00  0.00    -0.274 N 
ATOM      3  N   UNL     1     -35.663  21.205   1.474  0.00  0.00    -0.231 N 
ATOM      4  N   UNL     1     -34.841  23.315   2.157  0.00  0.00    -0.332 NA
ATOM      5  N   UNL     1     -35.811  21.795   3.756  0.00  0.00    -0.317 NA
ATOM      6  N   UNL     1     -35.959  22.377   6.031  0.00  0.00    -0.335 N 
ATOM      7  C   UNL     1     -34.985  20.204  -0.673  0.00  0.00    +0.116 C 
ATOM      8  C   UNL     1     -37.018  19.392   0.504  0.00  0.00    +0.116 C 
ATOM      9  C   UNL     1     -35.284  21.495   0.089  0.00  0.00    +0.125 C 
ATOM     10  C   UNL     1     -36.331  19.931   1.756  0.00  0.00    +0.125 C 
ATOM     11  C   UNL     1     -36.272  18.203  -1.525  0.00  0.00    +0.253 C 
ATOM     12  C   UNL     1     -35.433  22.128   2.491  0.00  0.00    +0.203 C 
ATOM     13  C   UNL     1     -34.616  24.210   3.135  0.00  0.00    +0.138 C 
ATOM     14  C   UNL     1     -34.973  23.947   4.467  0.00  0.00    +0.146 C 
ATOM     15  C   UNL     1     -35.570  22.713   4.710  0.00  0.00    +0.178 C 
ATOM     16  C   UNL     1     -34.017  25.435   2.853  0.00  0.00    +0.069 C 
ATOM     17  C   UNL     1     -34.732  24.891   5.481  0.00  0.00    +0.029 C 
ATOM     18  C   UNL     1     -33.773  26.380   3.854  0.00  0.00    +0.174 C 
ATOM     19  C   UNL     1     -34.132  26.107   5.170  0.00  0.00    +0.169 C 
ATOM     20  H   UNL     1     -36.382  21.507   6.213  0.00  0.00    +0.144 HD
ATOM     21  H   UNL     1     -35.806  23.014   6.766  0.00  0.00    +0.144 HD
ENDROOT
BRANCH  11  23
ATOM     22  O   UNL     1     -34.279  17.173  -2.206  0.00  0.00    -0.347 OA
ATOM     23  C   UNL     1     -35.269  18.113  -2.633  0.00  0.00    +0.191 C 
ATOM     24  C   UNL     1     -35.872  17.585  -3.920  0.00  0.00    +0.042 C 
ATOM     25  C   UNL     1     -35.644  16.096  -3.803  0.00  0.00    +0.035 C 
ATOM     26  C   UNL     1     -34.316  16.039  -3.082  0.00  0.00    +0.143 C 
ENDBRANCH  11  23
BRANCH  18  27
ATOM     27  O   UNL     1     -33.183  27.564   3.528  0.00  0.00    -0.468 OA
ATOM     28  C   UNL     1     -34.022  28.573   2.970  0.00  0.00    +0.253 C 
ENDBRANCH  18  27
BRANCH  19  29
ATOM     29  O   UNL     1     -33.901  27.017   6.157  0.00  0.00    -0.469 OA
ATOM     30  C   UNL     1     -32.598  27.031   6.735  0.00  0.00    +0.253 C 
ENDBRANCH  19  29
TORSDOF 3
ENDMDL
MODEL 7
REMARK VINA RESULT:      -6.0      2.776      3.280
REMARK  Name = 5401
REMARK  3 active torsions:
REMARK  status: ('A' for Active; 'I' for Inactive)
REMARK    1  A    between atoms: C_11  and  C_23
REMARK    2  A    between atoms: C_18  and  O_27
REMARK    3  A    between atoms: C_19  and  O_29
REMARK                            x       y       z     vdW  Elec       q    Type
REMARK                         _______ _______ _______ _____ _____    ______ ____
ROOT
ATOM      1  O   UNL     1     -30.190  33.803   2.041  0.00  0.00    -0.272 OA
ATOM      2  N   UNL     1     -31.781  32.130   2.304  0.00  0.00    -0.274 N 
ATOM      3  N   UNL     1     -32.713  29.683   3.536  0.00  0.00    -0.231 N 
ATOM      4  N   UNL     1     -34.112  27.776   3.493  0.00  0.00    -0.332 NA
ATOM      5  N   UNL     1     -32.683  28.212   5.383  0.00  0.00    -0.317 NA
ATOM      6  N   UNL     1     -32.649  26.750   7.226  0.00  0.00    -0.335 N 
ATOM      7  C   UNL     1     -33.122  31.602   2.044  0.00  0.00    +0.116 C 
ATOM      8  C   UNL     1     -30.905  31.303   3.127  0.00  0.00    +0.116 C 
ATOM      9  C   UNL     1     -33.203  30.084   2.215  0.00  0.00    +0.125 C 
ATOM     10  C   UNL     1     -31.685  30.510   4.173  0.00  0.00    +0.125 C 
ATOM     11  C   UNL     1     -31.318  33.357   1.823  0.00  0.00    +0.253 C 
ATOM     12  C   UNL     1     -33.181  28.527   4.156  0.00  0.00    +0.203 C 
ATOM     13  C   UNL     1     -34.568  26.659   4.086  0.00  0.00    +0.138 C 
ATOM     14  C   UNL     1     -34.108  26.261   5.352  0.00  0.00    +0.146 C 
ATOM     15  C   UNL     1     -33.160  27.087   5.949  0.00  0.00    +0.178 C 
ATOM     16  C   UNL     1     -35.517  25.856   3.458  0.00  0.00    +0.069 C 
ATOM     17  C   UNL     1     -34.592  25.090   5.962  0.00  0.00    +0.029 C 
ATOM     18  C   UNL     1     -36.004  24.690   4.057  0.00  0.00    +0.174 C 
ATOM     19  C   UNL     1     -35.541  24.307   5.311  0.00  0.00    +0.169 C 
ATOM     20  H   UNL     1     -31.978  27.327   7.657  0.00  0.00    +0.144 HD
ATOM     21  H   UNL     1     -32.965  25.937   7.684  0.00  0.00    +0.144 HD
ENDROOT
BRANCH  11  23
ATOM     22  O   UNL     1     -32.990  34.999   1.893  0.00  0.00    -0.347 OA
ATOM     23  C   UNL     1     -32.280  34.146   0.990  0.00  0.00    +0.191 C 
ATOM     24  C   UNL     1     -31.579  35.035  -0.019  0.00  0.00    +0.042 C 
ATOM     25  C   UNL     1     -31.417  36.330   0.741  0.00  0.00    +0.035 C 
ATOM     26  C   UNL     1     -32.676  36.361   1.578  0.00  0.00    +0.143 C 
ENDBRANCH  11  23
BRANCH  18  27
ATOM     27  O   UNL     1     -36.932  23.939   3.402  0.00  0.00    -0.468 OA
ATOM     28  C   UNL     1     -36.449  23.026   2.419  0.00  0.00    +0.253 C 
ENDBRANCH  18  27
BRANCH  19  29
ATOM     29  O   UNL     1     -36.005  23.175   5.908  0.00  0.00    -0.469 OA
ATOM     30  C   UNL     1     -35.094  22.083   6.025  0.00  0.00    +0.253 C 
ENDBRANCH  19  29
TORSDOF 3
ENDMDL
MODEL 8
REMARK VINA RESULT:      -5.9      6.453      9.957
REMARK  Name = 5401
REMARK  3 active torsions:
REMARK  status: ('A' for Active; 'I' for Inactive)
REMARK    1  A    between atoms: C_11  and  C_23
REMARK    2  A    between atoms: C_18  and  O_27
REMARK    3  A    between atoms: C_19  and  O_29
REMARK                            x       y       z     vdW  Elec       q    Type
REMARK                         _______ _______ _______ _____ _____    ______ ____
ROOT
ATOM      1  O   UNL     1     -34.287  25.167   2.575  0.00  0.00    -0.272 OA
ATOM      2  N   UNL     1     -35.061  22.992   2.313  0.00  0.00    -0.274 N 
ATOM      3  N   UNL     1     -35.548  20.648   0.687  0.00  0.00    -0.231 N 
ATOM      4  N   UNL     1     -36.711  18.622   0.316  0.00  0.00    -0.332 NA
ATOM      5  N   UNL     1     -34.974  19.338  -1.192  0.00  0.00    -0.317 NA
ATOM      6  N   UNL     1     -34.397  18.035  -3.065  0.00  0.00    -0.335 N 
ATOM      7  C   UNL     1     -35.561  21.744   2.894  0.00  0.00    +0.116 C 
ATOM      8  C   UNL     1     -34.927  23.024   0.860  0.00  0.00    +0.116 C 
ATOM      9  C   UNL     1     -36.345  20.897   1.891  0.00  0.00    +0.125 C 
ATOM     10  C   UNL     1     -34.561  21.656   0.290  0.00  0.00    +0.125 C 
ATOM     11  C   UNL     1     -34.708  24.116   3.062  0.00  0.00    +0.253 C 
ATOM     12  C   UNL     1     -35.747  19.506  -0.085  0.00  0.00    +0.203 C 
ATOM     13  C   UNL     1     -36.909  17.517  -0.424  0.00  0.00    +0.138 C 
ATOM     14  C   UNL     1     -36.154  17.265  -1.581  0.00  0.00    +0.146 C 
ATOM     15  C   UNL     1     -35.197  18.221  -1.910  0.00  0.00    +0.178 C 
ATOM     16  C   UNL     1     -37.876  16.583  -0.063  0.00  0.00    +0.069 C 
ATOM     17  C   UNL     1     -36.369  16.106  -2.347  0.00  0.00    +0.029 C 
ATOM     18  C   UNL     1     -38.097  15.427  -0.819  0.00  0.00    +0.174 C 
ATOM     19  C   UNL     1     -37.342  15.189  -1.963  0.00  0.00    +0.169 C 
ATOM     20  H   UNL     1     -33.717  18.706  -3.307  0.00  0.00    +0.144 HD
ATOM     21  H   UNL     1     -34.520  17.235  -3.626  0.00  0.00    +0.144 HD
ENDROOT
BRANCH  11  23
ATOM     22  O   UNL     1     -33.770  24.700   5.130  0.00  0.00    -0.347 OA
ATOM     23  C   UNL     1     -34.872  24.000   4.546  0.00  0.00    +0.191 C 
ATOM     24  C   UNL     1     -36.144  24.659   5.042  0.00  0.00    +0.042 C 
ATOM     25  C   UNL     1     -35.684  26.062   5.360  0.00  0.00    +0.035 C 
ATOM     26  C   UNL     1     -34.277  25.825   5.860  0.00  0.00    +0.143 C 
ENDBRANCH  11  23
BRANCH  18  27
ATOM     27  O   UNL     1     -39.055  14.543  -0.424  0.00  0.00    -0.468 OA
ATOM     28  C   UNL     1     -40.409  14.885  -0.709  0.00  0.00    +0.253 C 
ENDBRANCH  18  27
BRANCH  19  29
ATOM     29  O   UNL     1     -37.546  14.069  -2.710  0.00  0.00    -0.469 OA
ATOM     30  C   UNL     1     -36.690  12.957  -2.458  0.00  0.00    +0.253 C 
ENDBRANCH  19  29
TORSDOF 3
ENDMDL
MODEL 9
REMARK VINA RESULT:      -5.9      6.361     10.221
REMARK  Name = 5401
REMARK  3 active torsions:
REMARK  status: ('A' for Active; 'I' for Inactive)
REMARK    1  A    between atoms: C_11  and  C_23
REMARK    2  A    between atoms: C_18  and  O_27
REMARK    3  A    between atoms: C_19  and  O_29
REMARK                            x       y       z     vdW  Elec       q    Type
REMARK                         _______ _______ _______ _____ _____    ______ ____
ROOT
ATOM      1  O   UNL     1     -37.387  24.744   4.126  0.00  0.00    -0.272 OA
ATOM      2  N   UNL     1     -36.814  22.823   2.950  0.00  0.00    -0.274 N 
ATOM      3  N   UNL     1     -37.495  20.608   1.217  0.00  0.00    -0.231 N 
ATOM      4  N   UNL     1     -37.026  18.445   0.383  0.00  0.00    -0.332 NA
ATOM      5  N   UNL     1     -38.886  19.717  -0.472  0.00  0.00    -0.317 NA
ATOM      6  N   UNL     1     -40.273  18.834  -2.155  0.00  0.00    -0.335 N 
ATOM      7  C   UNL     1     -35.795  21.900   2.446  0.00  0.00    +0.116 C 
ATOM      8  C   UNL     1     -38.200  22.502   2.623  0.00  0.00    +0.116 C 
ATOM      9  C   UNL     1     -36.355  20.513   2.132  0.00  0.00    +0.125 C 
ATOM     10  C   UNL     1     -38.321  21.817   1.264  0.00  0.00    +0.125 C 
ATOM     11  C   UNL     1     -36.531  23.966   3.700  0.00  0.00    +0.253 C 
ATOM     12  C   UNL     1     -37.812  19.564   0.352  0.00  0.00    +0.203 C 
ATOM     13  C   UNL     1     -37.326  17.433  -0.451  0.00  0.00    +0.138 C 
ATOM     14  C   UNL     1     -38.416  17.509  -1.333  0.00  0.00    +0.146 C 
ATOM     15  C   UNL     1     -39.158  18.686  -1.293  0.00  0.00    +0.178 C 
ATOM     16  C   UNL     1     -36.560  16.270  -0.462  0.00  0.00    +0.069 C 
ATOM     17  C   UNL     1     -38.720  16.444  -2.200  0.00  0.00    +0.029 C 
ATOM     18  C   UNL     1     -36.856  15.206  -1.321  0.00  0.00    +0.174 C 
ATOM     19  C   UNL     1     -37.937  15.294  -2.191  0.00  0.00    +0.169 C 
ATOM     20  H   UNL     1     -40.805  19.663  -2.134  0.00  0.00    +0.144 HD
ATOM     21  H   UNL     1     -40.516  18.110  -2.775  0.00  0.00    +0.144 HD
ENDROOT
BRANCH  11  23
ATOM     22  O   UNL     1     -34.764  25.468   3.357  0.00  0.00    -0.347 OA
ATOM     23  C   UNL     1     -35.085  24.226   3.989  0.00  0.00    +0.191 C 
ATOM     24  C   UNL     1     -34.810  24.386   5.472  0.00  0.00    +0.042 C 
ATOM     25  C   UNL     1     -34.956  25.875   5.674  0.00  0.00    +0.035 C 
ATOM     26  C   UNL     1     -34.421  26.422   4.370  0.00  0.00    +0.143 C 
ENDBRANCH  11  23
BRANCH  18  27
ATOM     27  O   UNL     1     -36.075  14.090  -1.295  0.00  0.00    -0.468 OA
ATOM     28  C   UNL     1     -34.676  14.273  -1.500  0.00  0.00    +0.253 C 
ENDBRANCH  18  27
BRANCH  19  29
ATOM     29  O   UNL     1     -38.238  14.267  -3.032  0.00  0.00    -0.469 OA
ATOM     30  C   UNL     1     -39.332  13.428  -2.667  0.00  0.00    +0.253 C 
ENDBRANCH  19  29
TORSDOF 3
ENDMDL
