MODEL 1
REMARK VINA RESULT:      -5.8      0.000      0.000
REMARK  Name = 5184161
REMARK  8 active torsions:
REMARK  status: ('A' for Active; 'I' for Inactive)
REMARK    1  A    between atoms: C_2  and  O_17
REMARK    2  A    between atoms: C_3  and  N_7
REMARK    3  A    between atoms: C_4  and  O_19
REMARK    4  A    between atoms: C_5  and  C_21
REMARK    5  A    between atoms: C_21  and  O_22
REMARK    6  A    between atoms: O_22  and  P_23
REMARK    7  A    between atoms: P_23  and  O_25
REMARK    8  A    between atoms: P_23  and  O_27
REMARK                            x       y       z     vdW  Elec       q    Type
REMARK                         _______ _______ _______ _____ _____    ______ ____
ROOT
ATOM      1  O   UNL     1     -37.269  24.543   1.454  0.00  0.00    -0.336 OA
ATOM      2  C   UNL     1     -38.780  26.149   2.402  0.00  0.00    +0.183 C 
ATOM      3  C   UNL     1     -37.507  25.957   1.571  0.00  0.00    +0.209 C 
ATOM      4  C   UNL     1     -39.071  24.768   2.960  0.00  0.00    +0.171 C 
ATOM      5  C   UNL     1     -38.438  23.850   1.921  0.00  0.00    +0.176 C 
ENDROOT
BRANCH   3   7
ATOM      6  S   UNL     1     -32.340  28.010   4.527  0.00  0.00    +0.012 S 
ATOM      7  N   UNL     1     -36.329  26.605   2.149  0.00  0.00    -0.210 NA
ATOM      8  N   UNL     1     -34.775  28.174   2.534  0.00  0.00    -0.245 NA
ATOM      9  N   UNL     1     -35.492  24.925   3.694  0.00  0.00    -0.259 NA
ATOM     10  N   UNL     1     -33.511  25.561   4.906  0.00  0.00    -0.211 NA
ATOM     11  C   UNL     1     -35.477  26.112   3.076  0.00  0.00    +0.170 C 
ATOM     12  C   UNL     1     -35.862  27.863   1.849  0.00  0.00    +0.204 C 
ATOM     13  C   UNL     1     -34.528  27.072   3.310  0.00  0.00    +0.136 C 
ATOM     14  C   UNL     1     -33.472  26.809   4.276  0.00  0.00    +0.002 C 
ATOM     15  C   UNL     1     -34.468  24.726   4.600  0.00  0.00    +0.209 C 
ATOM     16  H   UNL     1     -36.181  24.244   3.515  0.00  0.00    +0.127 HD
ENDBRANCH   3   7
BRANCH   2  17
ATOM     17  O   UNL     1     -39.843  26.566   1.548  0.00  0.00    -0.378 OA
ATOM     18  H   UNL     1     -40.654  26.089   1.786  0.00  0.00    +0.211 HD
ENDBRANCH   2  17
BRANCH   4  19
ATOM     19  O   UNL     1     -38.433  24.649   4.225  0.00  0.00    -0.379 OA
ATOM     20  H   UNL     1     -37.581  25.112   4.203  0.00  0.00    +0.211 HD
ENDBRANCH   4  19
BRANCH   5  21
ATOM     21  C   UNL     1     -38.037  22.471   2.413  0.00  0.00    +0.186 C 
BRANCH  21  22
ATOM     22  O   UNL     1     -36.702  22.526   2.890  0.00  0.00    -0.271 OA
BRANCH  22  23
ATOM     23  P   UNL     1     -35.805  21.180   2.823  0.00  0.00    +0.473 P 
ATOM     24  O   UNL     1     -34.699  21.205   1.810  0.00  0.00    -0.227 OA
BRANCH  23  25
ATOM     25  O   UNL     1     -36.894  20.001   2.628  0.00  0.00    -0.303 OA
ATOM     26  H   UNL     1     -36.443  19.142   2.619  0.00  0.00    +0.222 HD
ENDBRANCH  23  25
BRANCH  23  27
ATOM     27  O   UNL     1     -35.324  20.992   4.355  0.00  0.00    -0.303 OA
ATOM     28  H   UNL     1     -35.728  21.678   4.908  0.00  0.00    +0.222 HD
ENDBRANCH  23  27
ENDBRANCH  22  23
ENDBRANCH  21  22
ENDBRANCH   5  21
TORSDOF 8
ENDMDL
MODEL 2
REMARK VINA RESULT:      -5.7      1.850      4.284
REMARK  Name = 5184161
REMARK  8 active torsions:
REMARK  status: ('A' for Active; 'I' for Inactive)
REMARK    1  A    between atoms: C_2  and  O_17
REMARK    2  A    between atoms: C_3  and  N_7
REMARK    3  A    between atoms: C_4  and  O_19
REMARK    4  A    between atoms: C_5  and  C_21
REMARK    5  A    between atoms: C_21  and  O_22
REMARK    6  A    between atoms: O_22  and  P_23
REMARK    7  A    between atoms: P_23  and  O_25
REMARK    8  A    between atoms: P_23  and  O_27
REMARK                            x       y       z     vdW  Elec       q    Type
REMARK                         _______ _______ _______ _____ _____    ______ ____
ROOT
ATOM      1  O   UNL     1     -37.403  23.415   3.633  0.00  0.00    -0.336 OA
ATOM      2  C   UNL     1     -35.754  21.838   2.888  0.00  0.00    +0.183 C 
ATOM      3  C   UNL     1     -36.088  22.912   3.928  0.00  0.00    +0.209 C 
ATOM      4  C   UNL     1     -36.850  21.975   1.848  0.00  0.00    +0.171 C 
ATOM      5  C   UNL     1     -38.007  22.550   2.658  0.00  0.00    +0.176 C 
ENDROOT
BRANCH   3   7
ATOM      6  S   UNL     1     -32.396  27.975   3.300  0.00  0.00    +0.012 S 
ATOM      7  N   UNL     1     -35.133  24.022   3.949  0.00  0.00    -0.210 NA
ATOM      8  N   UNL     1     -33.425  25.306   4.622  0.00  0.00    -0.245 NA
ATOM      9  N   UNL     1     -35.802  25.344   2.022  0.00  0.00    -0.259 NA
ATOM     10  N   UNL     1     -34.481  27.323   1.645  0.00  0.00    -0.211 NA
ATOM     11  C   UNL     1     -35.048  25.064   3.092  0.00  0.00    +0.170 C 
ATOM     12  C   UNL     1     -34.125  24.211   4.864  0.00  0.00    +0.204 C 
ATOM     13  C   UNL     1     -34.003  25.848   3.505  0.00  0.00    +0.136 C 
ATOM     14  C   UNL     1     -33.679  27.054   2.757  0.00  0.00    +0.002 C 
ATOM     15  C   UNL     1     -35.452  26.499   1.349  0.00  0.00    +0.209 C 
ATOM     16  H   UNL     1     -36.550  24.771   1.737  0.00  0.00    +0.127 HD
ENDBRANCH   3   7
BRANCH   2  17
ATOM     17  O   UNL     1     -35.819  20.551   3.500  0.00  0.00    -0.378 OA
ATOM     18  H   UNL     1     -34.950  20.324   3.867  0.00  0.00    +0.211 HD
ENDBRANCH   2  17
BRANCH   4  19
ATOM     19  O   UNL     1     -36.409  22.881   0.845  0.00  0.00    -0.379 OA
ATOM     20  H   UNL     1     -36.067  22.383   0.086  0.00  0.00    +0.211 HD
ENDBRANCH   4  19
BRANCH   5  21
ATOM     21  C   UNL     1     -39.041  23.332   1.870  0.00  0.00    +0.186 C 
BRANCH  21  22
ATOM     22  O   UNL     1     -38.639  24.691   1.808  0.00  0.00    -0.271 OA
BRANCH  22  23
ATOM     23  P   UNL     1     -39.391  25.760   2.762  0.00  0.00    +0.473 P 
ATOM     24  O   UNL     1     -40.340  26.683   2.056  0.00  0.00    -0.227 OA
BRANCH  23  25
ATOM     25  O   UNL     1     -38.182  26.486   3.554  0.00  0.00    -0.303 OA
ATOM     26  H   UNL     1     -37.337  26.251   3.140  0.00  0.00    +0.222 HD
ENDBRANCH  23  25
BRANCH  23  27
ATOM     27  O   UNL     1     -40.065  24.822   3.893  0.00  0.00    -0.303 OA
ATOM     28  H   UNL     1     -40.391  24.006   3.484  0.00  0.00    +0.222 HD
ENDBRANCH  23  27
ENDBRANCH  22  23
ENDBRANCH  21  22
ENDBRANCH   5  21
TORSDOF 8
ENDMDL
MODEL 3
REMARK VINA RESULT:      -5.7      2.187      4.418
REMARK  Name = 5184161
REMARK  8 active torsions:
REMARK  status: ('A' for Active; 'I' for Inactive)
REMARK    1  A    between atoms: C_2  and  O_17
REMARK    2  A    between atoms: C_3  and  N_7
REMARK    3  A    between atoms: C_4  and  O_19
REMARK    4  A    between atoms: C_5  and  C_21
REMARK    5  A    between atoms: C_21  and  O_22
REMARK    6  A    between atoms: O_22  and  P_23
REMARK    7  A    between atoms: P_23  and  O_25
REMARK    8  A    between atoms: P_23  and  O_27
REMARK                            x       y       z     vdW  Elec       q    Type
REMARK                         _______ _______ _______ _____ _____    ______ ____
ROOT
ATOM      1  O   UNL     1     -36.600  24.843   4.657  0.00  0.00    -0.336 OA
ATOM      2  C   UNL     1     -34.927  23.235   5.272  0.00  0.00    +0.183 C 
ATOM      3  C   UNL     1     -35.480  24.639   5.536  0.00  0.00    +0.209 C 
ATOM      4  C   UNL     1     -35.641  22.786   4.011  0.00  0.00    +0.171 C 
ATOM      5  C   UNL     1     -36.942  23.579   4.065  0.00  0.00    +0.176 C 
ENDROOT
BRANCH   3   7
ATOM      6  S   UNL     1     -31.474  29.174   3.790  0.00  0.00    +0.012 S 
ATOM      7  N   UNL     1     -34.495  25.703   5.327  0.00  0.00    -0.210 NA
ATOM      8  N   UNL     1     -32.915  27.220   5.799  0.00  0.00    -0.245 NA
ATOM      9  N   UNL     1     -34.643  26.112   2.935  0.00  0.00    -0.259 NA
ATOM     10  N   UNL     1     -33.167  27.826   2.108  0.00  0.00    -0.211 NA
ATOM     11  C   UNL     1     -34.164  26.316   4.168  0.00  0.00    +0.170 C 
ATOM     12  C   UNL     1     -33.709  26.286   6.292  0.00  0.00    +0.204 C 
ATOM     13  C   UNL     1     -33.198  27.243   4.458  0.00  0.00    +0.136 C 
ATOM     14  C   UNL     1     -32.650  28.060   3.386  0.00  0.00    +0.002 C 
ATOM     15  C   UNL     1     -34.089  26.913   1.955  0.00  0.00    +0.209 C 
ATOM     16  H   UNL     1     -35.337  25.441   2.742  0.00  0.00    +0.127 HD
ENDBRANCH   3   7
BRANCH   2  17
ATOM     17  O   UNL     1     -35.272  22.379   6.359  0.00  0.00    -0.378 OA
ATOM     18  H   UNL     1     -36.005  22.771   6.859  0.00  0.00    +0.211 HD
ENDBRANCH   2  17
BRANCH   4  19
ATOM     19  O   UNL     1     -34.849  23.155   2.888  0.00  0.00    -0.379 OA
ATOM     20  H   UNL     1     -35.260  22.817   2.078  0.00  0.00    +0.211 HD
ENDBRANCH   4  19
BRANCH   5  21
ATOM     21  C   UNL     1     -37.626  23.821   2.732  0.00  0.00    +0.186 C 
BRANCH  21  22
ATOM     22  O   UNL     1     -37.185  25.064   2.210  0.00  0.00    -0.271 OA
BRANCH  22  23
ATOM     23  P   UNL     1     -38.283  26.223   1.949  0.00  0.00    +0.473 P 
ATOM     24  O   UNL     1     -39.214  25.967   0.800  0.00  0.00    -0.227 OA
BRANCH  23  25
ATOM     25  O   UNL     1     -37.400  27.572   1.835  0.00  0.00    -0.303 OA
ATOM     26  H   UNL     1     -37.223  27.766   0.900  0.00  0.00    +0.222 HD
ENDBRANCH  23  25
BRANCH  23  27
ATOM     27  O   UNL     1     -39.002  26.371   3.390  0.00  0.00    -0.303 OA
ATOM     28  H   UNL     1     -39.700  27.041   3.336  0.00  0.00    +0.222 HD
ENDBRANCH  23  27
ENDBRANCH  22  23
ENDBRANCH  21  22
ENDBRANCH   5  21
TORSDOF 8
ENDMDL
MODEL 4
REMARK VINA RESULT:      -5.7      4.150      5.481
REMARK  Name = 5184161
REMARK  8 active torsions:
REMARK  status: ('A' for Active; 'I' for Inactive)
REMARK    1  A    between atoms: C_2  and  O_17
REMARK    2  A    between atoms: C_3  and  N_7
REMARK    3  A    between atoms: C_4  and  O_19
REMARK    4  A    between atoms: C_5  and  C_21
REMARK    5  A    between atoms: C_21  and  O_22
REMARK    6  A    between atoms: O_22  and  P_23
REMARK    7  A    between atoms: P_23  and  O_25
REMARK    8  A    between atoms: P_23  and  O_27
REMARK                            x       y       z     vdW  Elec       q    Type
REMARK                         _______ _______ _______ _____ _____    ______ ____
ROOT
ATOM      1  O   UNL     1     -34.438  25.532   3.803  0.00  0.00    -0.336 OA
ATOM      2  C   UNL     1     -36.700  24.799   4.134  0.00  0.00    +0.183 C 
ATOM      3  C   UNL     1     -35.613  25.098   3.096  0.00  0.00    +0.209 C 
ATOM      4  C   UNL     1     -36.138  25.352   5.430  0.00  0.00    +0.171 C 
ATOM      5  C   UNL     1     -34.633  25.268   5.203  0.00  0.00    +0.176 C 
ENDROOT
BRANCH   3   7
ATOM      6  S   UNL     1     -36.920  30.068  -0.543  0.00  0.00    +0.012 S 
ATOM      7  N   UNL     1     -36.002  26.120   2.122  0.00  0.00    -0.210 NA
ATOM      8  N   UNL     1     -36.876  27.024   0.267  0.00  0.00    -0.245 NA
ATOM      9  N   UNL     1     -35.195  28.173   3.142  0.00  0.00    -0.259 NA
ATOM     10  N   UNL     1     -35.620  30.172   1.867  0.00  0.00    -0.211 NA
ATOM     11  C   UNL     1     -35.796  27.454   2.187  0.00  0.00    +0.170 C 
ATOM     12  C   UNL     1     -36.663  25.904   0.936  0.00  0.00    +0.204 C 
ATOM     13  C   UNL     1     -36.331  28.006   1.052  0.00  0.00    +0.136 C 
ATOM     14  C   UNL     1     -36.252  29.445   0.855  0.00  0.00    +0.002 C 
ATOM     15  C   UNL     1     -35.147  29.533   2.905  0.00  0.00    +0.209 C 
ATOM     16  H   UNL     1     -34.815  27.763   3.953  0.00  0.00    +0.127 HD
ENDBRANCH   3   7
BRANCH   2  17
ATOM     17  O   UNL     1     -36.876  23.388   4.241  0.00  0.00    -0.378 OA
ATOM     18  H   UNL     1     -36.625  22.967   3.403  0.00  0.00    +0.211 HD
ENDBRANCH   2  17
BRANCH   4  19
ATOM     19  O   UNL     1     -36.573  26.699   5.572  0.00  0.00    -0.379 OA
ATOM     20  H   UNL     1     -37.289  26.740   6.225  0.00  0.00    +0.211 HD
ENDBRANCH   4  19
BRANCH   5  21
ATOM     21  C   UNL     1     -33.786  26.230   6.014  0.00  0.00    +0.186 C 
BRANCH  21  22
ATOM     22  O   UNL     1     -33.490  27.365   5.216  0.00  0.00    -0.271 OA
BRANCH  22  23
ATOM     23  P   UNL     1     -32.132  28.189   5.522  0.00  0.00    +0.473 P 
ATOM     24  O   UNL     1     -32.319  29.662   5.743  0.00  0.00    -0.227 OA
BRANCH  23  25
ATOM     25  O   UNL     1     -31.157  27.794   4.295  0.00  0.00    -0.303 OA
ATOM     26  H   UNL     1     -30.233  27.834   4.590  0.00  0.00    +0.222 HD
ENDBRANCH  23  25
BRANCH  23  27
ATOM     27  O   UNL     1     -31.498  27.386   6.774  0.00  0.00    -0.303 OA
ATOM     28  H   UNL     1     -32.212  27.012   7.313  0.00  0.00    +0.222 HD
ENDBRANCH  23  27
ENDBRANCH  22  23
ENDBRANCH  21  22
ENDBRANCH   5  21
TORSDOF 8
ENDMDL
MODEL 5
REMARK VINA RESULT:      -5.6      2.100      3.056
REMARK  Name = 5184161
REMARK  8 active torsions:
REMARK  status: ('A' for Active; 'I' for Inactive)
REMARK    1  A    between atoms: C_2  and  O_17
REMARK    2  A    between atoms: C_3  and  N_7
REMARK    3  A    between atoms: C_4  and  O_19
REMARK    4  A    between atoms: C_5  and  C_21
REMARK    5  A    between atoms: C_21  and  O_22
REMARK    6  A    between atoms: O_22  and  P_23
REMARK    7  A    between atoms: P_23  and  O_25
REMARK    8  A    between atoms: P_23  and  O_27
REMARK                            x       y       z     vdW  Elec       q    Type
REMARK                         _______ _______ _______ _____ _____    ______ ____
ROOT
ATOM      1  O   UNL     1     -35.048  25.440   2.558  0.00  0.00    -0.336 OA
ATOM      2  C   UNL     1     -36.558  25.644   4.412  0.00  0.00    +0.183 C 
ATOM      3  C   UNL     1     -35.487  26.354   3.578  0.00  0.00    +0.209 C 
ATOM      4  C   UNL     1     -36.484  24.198   3.959  0.00  0.00    +0.171 C 
ATOM      5  C   UNL     1     -35.952  24.323   2.536  0.00  0.00    +0.176 C 
ENDROOT
BRANCH   3   7
ATOM      6  S   UNL     1     -30.289  28.713   6.237  0.00  0.00    +0.012 S 
ATOM      7  N   UNL     1     -34.335  26.801   4.364  0.00  0.00    -0.210 NA
ATOM      8  N   UNL     1     -32.948  27.027   6.109  0.00  0.00    -0.245 NA
ATOM      9  N   UNL     1     -33.122  28.204   2.793  0.00  0.00    -0.259 NA
ATOM     10  N   UNL     1     -31.102  29.185   3.662  0.00  0.00    -0.211 NA
ATOM     11  C   UNL     1     -33.326  27.612   3.975  0.00  0.00    +0.170 C 
ATOM     12  C   UNL     1     -34.064  26.470   5.670  0.00  0.00    +0.204 C 
ATOM     13  C   UNL     1     -32.479  27.749   5.043  0.00  0.00    +0.136 C 
ATOM     14  C   UNL     1     -31.290  28.578   4.907  0.00  0.00    +0.002 C 
ATOM     15  C   UNL     1     -31.981  28.979   2.718  0.00  0.00    +0.209 C 
ATOM     16  H   UNL     1     -33.740  28.096   2.033  0.00  0.00    +0.127 HD
ENDBRANCH   3   7
BRANCH   2  17
ATOM     17  O   UNL     1     -37.839  26.189   4.101  0.00  0.00    -0.378 OA
ATOM     18  H   UNL     1     -37.824  27.149   4.239  0.00  0.00    +0.211 HD
ENDBRANCH   2  17
BRANCH   4  19
ATOM     19  O   UNL     1     -35.571  23.507   4.802  0.00  0.00    -0.379 OA
ATOM     20  H   UNL     1     -34.681  23.876   4.687  0.00  0.00    +0.211 HD
ENDBRANCH   4  19
BRANCH   5  21
ATOM     21  C   UNL     1     -35.227  23.106   1.991  0.00  0.00    +0.186 C 
BRANCH  21  22
ATOM     22  O   UNL     1     -36.124  22.007   1.977  0.00  0.00    -0.271 OA
BRANCH  22  23
ATOM     23  P   UNL     1     -35.584  20.567   2.482  0.00  0.00    +0.473 P 
ATOM     24  O   UNL     1     -34.374  20.054   1.759  0.00  0.00    -0.227 OA
BRANCH  23  25
ATOM     25  O   UNL     1     -36.890  19.617   2.404  0.00  0.00    -0.303 OA
ATOM     26  H   UNL     1     -37.322  19.731   1.543  0.00  0.00    +0.222 HD
ENDBRANCH  23  25
BRANCH  23  27
ATOM     27  O   UNL     1     -35.385  20.794   4.071  0.00  0.00    -0.303 OA
ATOM     28  H   UNL     1     -35.392  21.744   4.265  0.00  0.00    +0.222 HD
ENDBRANCH  23  27
ENDBRANCH  22  23
ENDBRANCH  21  22
ENDBRANCH   5  21
TORSDOF 8
ENDMDL
MODEL 6
REMARK VINA RESULT:      -5.5      1.709      2.012
REMARK  Name = 5184161
REMARK  8 active torsions:
REMARK  status: ('A' for Active; 'I' for Inactive)
REMARK    1  A    between atoms: C_2  and  O_17
REMARK    2  A    between atoms: C_3  and  N_7
REMARK    3  A    between atoms: C_4  and  O_19
REMARK    4  A    between atoms: C_5  and  C_21
REMARK    5  A    between atoms: C_21  and  O_22
REMARK    6  A    between atoms: O_22  and  P_23
REMARK    7  A    between atoms: P_23  and  O_25
REMARK    8  A    between atoms: P_23  and  O_27
REMARK                            x       y       z     vdW  Elec       q    Type
REMARK                         _______ _______ _______ _____ _____    ______ ____
ROOT
ATOM      1  O   UNL     1     -35.846  24.827   2.166  0.00  0.00    -0.336 OA
ATOM      2  C   UNL     1     -37.128  26.848   1.985  0.00  0.00    +0.183 C 
ATOM      3  C   UNL     1     -35.767  26.194   1.726  0.00  0.00    +0.209 C 
ATOM      4  C   UNL     1     -37.869  25.838   2.839  0.00  0.00    +0.171 C 
ATOM      5  C   UNL     1     -37.225  24.519   2.429  0.00  0.00    +0.176 C 
ENDROOT
BRANCH   3   7
ATOM      6  S   UNL     1     -31.265  28.651   5.378  0.00  0.00    +0.012 S 
ATOM      7  N   UNL     1     -34.658  26.864   2.407  0.00  0.00    -0.210 NA
ATOM      8  N   UNL     1     -32.872  28.183   2.709  0.00  0.00    -0.245 NA
ATOM      9  N   UNL     1     -34.845  26.034   4.685  0.00  0.00    -0.259 NA
ATOM     10  N   UNL     1     -33.187  26.884   6.211  0.00  0.00    -0.211 NA
ATOM     11  C   UNL     1     -34.294  26.761   3.706  0.00  0.00    +0.170 C 
ATOM     12  C   UNL     1     -33.764  27.740   1.840  0.00  0.00    +0.204 C 
ATOM     13  C   UNL     1     -33.202  27.568   3.888  0.00  0.00    +0.136 C 
ATOM     14  C   UNL     1     -32.593  27.654   5.207  0.00  0.00    +0.002 C 
ATOM     15  C   UNL     1     -34.228  26.151   5.915  0.00  0.00    +0.209 C 
ATOM     16  H   UNL     1     -35.630  25.459   4.539  0.00  0.00    +0.127 HD
ENDBRANCH   3   7
BRANCH   2  17
ATOM     17  O   UNL     1     -37.808  27.032   0.744  0.00  0.00    -0.378 OA
ATOM     18  H   UNL     1     -37.207  27.445   0.104  0.00  0.00    +0.211 HD
ENDBRANCH   2  17
BRANCH   4  19
ATOM     19  O   UNL     1     -37.624  26.138   4.208  0.00  0.00    -0.379 OA
ATOM     20  H   UNL     1     -37.150  25.400   4.621  0.00  0.00    +0.211 HD
ENDBRANCH   4  19
BRANCH   5  21
ATOM     21  C   UNL     1     -37.300  23.399   3.450  0.00  0.00    +0.186 C 
BRANCH  21  22
ATOM     22  O   UNL     1     -36.431  23.704   4.529  0.00  0.00    -0.271 OA
BRANCH  22  23
ATOM     23  P   UNL     1     -35.477  22.530   5.105  0.00  0.00    +0.473 P 
ATOM     24  O   UNL     1     -34.050  22.930   5.339  0.00  0.00    -0.227 OA
BRANCH  23  25
ATOM     25  O   UNL     1     -35.691  21.314   4.062  0.00  0.00    -0.303 OA
ATOM     26  H   UNL     1     -35.463  20.474   4.492  0.00  0.00    +0.222 HD
ENDBRANCH  23  25
BRANCH  23  27
ATOM     27  O   UNL     1     -36.273  22.034   6.422  0.00  0.00    -0.303 OA
ATOM     28  H   UNL     1     -36.634  21.148   6.268  0.00  0.00    +0.222 HD
ENDBRANCH  23  27
ENDBRANCH  22  23
ENDBRANCH  21  22
ENDBRANCH   5  21
TORSDOF 8
ENDMDL
MODEL 7
REMARK VINA RESULT:      -5.5      2.111      3.775
REMARK  Name = 5184161
REMARK  8 active torsions:
REMARK  status: ('A' for Active; 'I' for Inactive)
REMARK    1  A    between atoms: C_2  and  O_17
REMARK    2  A    between atoms: C_3  and  N_7
REMARK    3  A    between atoms: C_4  and  O_19
REMARK    4  A    between atoms: C_5  and  C_21
REMARK    5  A    between atoms: C_21  and  O_22
REMARK    6  A    between atoms: O_22  and  P_23
REMARK    7  A    between atoms: P_23  and  O_25
REMARK    8  A    between atoms: P_23  and  O_27
REMARK                            x       y       z     vdW  Elec       q    Type
REMARK                         _______ _______ _______ _____ _____    ______ ____
ROOT
ATOM      1  O   UNL     1     -37.112  24.445   4.070  0.00  0.00    -0.336 OA
ATOM      2  C   UNL     1     -35.519  22.842   4.878  0.00  0.00    +0.183 C 
ATOM      3  C   UNL     1     -36.078  24.258   5.052  0.00  0.00    +0.209 C 
ATOM      4  C   UNL     1     -36.120  22.363   3.570  0.00  0.00    +0.171 C 
ATOM      5  C   UNL     1     -37.412  23.168   3.484  0.00  0.00    +0.176 C 
ENDROOT
BRANCH   3   7
ATOM      6  S   UNL     1     -31.934  28.759   3.561  0.00  0.00    +0.012 S 
ATOM      7  N   UNL     1     -35.067  25.307   4.904  0.00  0.00    -0.210 NA
ATOM      8  N   UNL     1     -33.471  26.776   5.467  0.00  0.00    -0.245 NA
ATOM      9  N   UNL     1     -35.136  25.790   2.522  0.00  0.00    -0.259 NA
ATOM     10  N   UNL     1     -33.603  27.498   1.791  0.00  0.00    -0.211 NA
ATOM     11  C   UNL     1     -34.690  25.948   3.774  0.00  0.00    +0.170 C 
ATOM     12  C   UNL     1     -34.298  25.844   5.908  0.00  0.00    +0.204 C 
ATOM     13  C   UNL     1     -33.715  26.845   4.120  0.00  0.00    +0.136 C 
ATOM     14  C   UNL     1     -33.119  27.682   3.089  0.00  0.00    +0.002 C 
ATOM     15  C   UNL     1     -34.538  26.609   1.583  0.00  0.00    +0.209 C 
ATOM     16  H   UNL     1     -35.838  25.141   2.288  0.00  0.00    +0.127 HD
ENDBRANCH   3   7
BRANCH   2  17
ATOM     17  O   UNL     1     -35.970  22.021   5.953  0.00  0.00    -0.378 OA
ATOM     18  H   UNL     1     -35.548  22.308   6.778  0.00  0.00    +0.211 HD
ENDBRANCH   2  17
BRANCH   4  19
ATOM     19  O   UNL     1     -35.225  22.692   2.515  0.00  0.00    -0.379 OA
ATOM     20  H   UNL     1     -35.661  22.542   1.662  0.00  0.00    +0.211 HD
ENDBRANCH   4  19
BRANCH   5  21
ATOM     21  C   UNL     1     -37.970  23.377   2.088  0.00  0.00    +0.186 C 
BRANCH  21  22
ATOM     22  O   UNL     1     -38.107  22.115   1.455  0.00  0.00    -0.271 OA
BRANCH  22  23
ATOM     23  P   UNL     1     -39.599  21.561   1.160  0.00  0.00    +0.473 P 
ATOM     24  O   UNL     1     -40.540  22.562   0.557  0.00  0.00    -0.227 OA
BRANCH  23  25
ATOM     25  O   UNL     1     -40.067  20.939   2.576  0.00  0.00    -0.303 OA
ATOM     26  H   UNL     1     -41.024  21.058   2.682  0.00  0.00    +0.222 HD
ENDBRANCH  23  25
BRANCH  23  27
ATOM     27  O   UNL     1     -39.323  20.251   0.253  0.00  0.00    -0.303 OA
ATOM     28  H   UNL     1     -38.713  20.478  -0.467  0.00  0.00    +0.222 HD
ENDBRANCH  23  27
ENDBRANCH  22  23
ENDBRANCH  21  22
ENDBRANCH   5  21
TORSDOF 8
ENDMDL
MODEL 8
REMARK VINA RESULT:      -5.4      4.721      6.389
REMARK  Name = 5184161
REMARK  8 active torsions:
REMARK  status: ('A' for Active; 'I' for Inactive)
REMARK    1  A    between atoms: C_2  and  O_17
REMARK    2  A    between atoms: C_3  and  N_7
REMARK    3  A    between atoms: C_4  and  O_19
REMARK    4  A    between atoms: C_5  and  C_21
REMARK    5  A    between atoms: C_21  and  O_22
REMARK    6  A    between atoms: O_22  and  P_23
REMARK    7  A    between atoms: P_23  and  O_25
REMARK    8  A    between atoms: P_23  and  O_27
REMARK                            x       y       z     vdW  Elec       q    Type
REMARK                         _______ _______ _______ _____ _____    ______ ____
ROOT
ATOM      1  O   UNL     1     -35.018  24.962   3.323  0.00  0.00    -0.336 OA
ATOM      2  C   UNL     1     -36.297  24.209   5.210  0.00  0.00    +0.183 C 
ATOM      3  C   UNL     1     -36.087  24.076   3.698  0.00  0.00    +0.209 C 
ATOM      4  C   UNL     1     -35.464  25.417   5.595  0.00  0.00    +0.171 C 
ATOM      5  C   UNL     1     -34.380  25.429   4.524  0.00  0.00    +0.176 C 
ENDROOT
BRANCH   3   7
ATOM      6  S   UNL     1     -41.391  24.573   0.339  0.00  0.00    +0.012 S 
ATOM      7  N   UNL     1     -37.282  24.392   2.912  0.00  0.00    -0.210 NA
ATOM      8  N   UNL     1     -38.798  25.610   1.799  0.00  0.00    -0.245 NA
ATOM      9  N   UNL     1     -38.306  22.211   2.588  0.00  0.00    -0.259 NA
ATOM     10  N   UNL     1     -40.352  22.233   1.317  0.00  0.00    -0.211 NA
ATOM     11  C   UNL     1     -38.225  23.540   2.450  0.00  0.00    +0.170 C 
ATOM     12  C   UNL     1     -37.673  25.641   2.492  0.00  0.00    +0.204 C 
ATOM     13  C   UNL     1     -39.151  24.286   1.770  0.00  0.00    +0.136 C 
ATOM     14  C   UNL     1     -40.291  23.620   1.158  0.00  0.00    +0.002 C 
ATOM     15  C   UNL     1     -39.408  21.630   1.989  0.00  0.00    +0.209 C 
ATOM     16  H   UNL     1     -37.633  21.688   3.080  0.00  0.00    +0.127 HD
ENDBRANCH   3   7
BRANCH   2  17
ATOM     17  O   UNL     1     -35.798  23.042   5.861  0.00  0.00    -0.378 OA
ATOM     18  H   UNL     1     -34.846  22.960   5.692  0.00  0.00    +0.211 HD
ENDBRANCH   2  17
BRANCH   4  19
ATOM     19  O   UNL     1     -36.287  26.574   5.523  0.00  0.00    -0.379 OA
ATOM     20  H   UNL     1     -35.828  27.267   5.023  0.00  0.00    +0.211 HD
ENDBRANCH   4  19
BRANCH   5  21
ATOM     21  C   UNL     1     -33.731  26.774   4.253  0.00  0.00    +0.186 C 
BRANCH  21  22
ATOM     22  O   UNL     1     -33.416  27.388   5.492  0.00  0.00    -0.271 OA
BRANCH  22  23
ATOM     23  P   UNL     1     -32.044  28.239   5.603  0.00  0.00    +0.473 P 
ATOM     24  O   UNL     1     -32.227  29.709   5.840  0.00  0.00    -0.227 OA
BRANCH  23  25
ATOM     25  O   UNL     1     -31.241  27.851   4.255  0.00  0.00    -0.303 OA
ATOM     26  H   UNL     1     -30.871  28.654   3.855  0.00  0.00    +0.222 HD
ENDBRANCH  23  25
BRANCH  23  27
ATOM     27  O   UNL     1     -31.228  27.457   6.759  0.00  0.00    -0.303 OA
ATOM     28  H   UNL     1     -31.085  26.537   6.489  0.00  0.00    +0.222 HD
ENDBRANCH  23  27
ENDBRANCH  22  23
ENDBRANCH  21  22
ENDBRANCH   5  21
TORSDOF 8
ENDMDL
MODEL 9
REMARK VINA RESULT:      -5.4      3.691      5.787
REMARK  Name = 5184161
REMARK  8 active torsions:
REMARK  status: ('A' for Active; 'I' for Inactive)
REMARK    1  A    between atoms: C_2  and  O_17
REMARK    2  A    between atoms: C_3  and  N_7
REMARK    3  A    between atoms: C_4  and  O_19
REMARK    4  A    between atoms: C_5  and  C_21
REMARK    5  A    between atoms: C_21  and  O_22
REMARK    6  A    between atoms: O_22  and  P_23
REMARK    7  A    between atoms: P_23  and  O_25
REMARK    8  A    between atoms: P_23  and  O_27
REMARK                            x       y       z     vdW  Elec       q    Type
REMARK                         _______ _______ _______ _____ _____    ______ ____
ROOT
ATOM      1  O   UNL     1     -36.120  23.191   1.544  0.00  0.00    -0.336 OA
ATOM      2  C   UNL     1     -36.920  21.389   2.913  0.00  0.00    +0.183 C 
ATOM      3  C   UNL     1     -37.119  22.158   1.603  0.00  0.00    +0.209 C 
ATOM      4  C   UNL     1     -35.927  22.231   3.691  0.00  0.00    +0.171 C 
ATOM      5  C   UNL     1     -35.159  22.947   2.585  0.00  0.00    +0.176 C 
ENDROOT
BRANCH   3   7
ATOM      6  S   UNL     1     -42.489  25.442   1.434  0.00  0.00    +0.012 S 
ATOM      7  N   UNL     1     -38.449  22.757   1.475  0.00  0.00    -0.210 NA
ATOM      8  N   UNL     1     -40.619  22.953   0.951  0.00  0.00    -0.245 NA
ATOM      9  N   UNL     1     -38.143  24.964   2.447  0.00  0.00    -0.259 NA
ATOM     10  N   UNL     1     -40.114  26.348   2.457  0.00  0.00    -0.211 NA
ATOM     11  C   UNL     1     -38.848  23.991   1.859  0.00  0.00    +0.170 C 
ATOM     12  C   UNL     1     -39.560  22.162   0.927  0.00  0.00    +0.204 C 
ATOM     13  C   UNL     1     -40.175  24.109   1.539  0.00  0.00    +0.136 C 
ATOM     14  C   UNL     1     -40.873  25.348   1.843  0.00  0.00    +0.002 C 
ATOM     15  C   UNL     1     -38.853  26.119   2.714  0.00  0.00    +0.209 C 
ATOM     16  H   UNL     1     -37.189  24.865   2.672  0.00  0.00    +0.127 HD
ENDBRANCH   3   7
BRANCH   2  17
ATOM     17  O   UNL     1     -36.358  20.109   2.629  0.00  0.00    -0.378 OA
ATOM     18  H   UNL     1     -36.799  19.728   1.854  0.00  0.00    +0.211 HD
ENDBRANCH   2  17
BRANCH   4  19
ATOM     19  O   UNL     1     -36.651  23.146   4.505  0.00  0.00    -0.379 OA
ATOM     20  H   UNL     1     -37.048  23.832   3.946  0.00  0.00    +0.211 HD
ENDBRANCH   4  19
BRANCH   5  21
ATOM     21  C   UNL     1     -34.503  24.258   2.976  0.00  0.00    +0.186 C 
BRANCH  21  22
ATOM     22  O   UNL     1     -35.516  25.223   3.218  0.00  0.00    -0.271 OA
BRANCH  22  23
ATOM     23  P   UNL     1     -35.315  26.260   4.443  0.00  0.00    +0.473 P 
ATOM     24  O   UNL     1     -34.072  26.047   5.257  0.00  0.00    -0.227 OA
BRANCH  23  25
ATOM     25  O   UNL     1     -36.704  26.159   5.264  0.00  0.00    -0.303 OA
ATOM     26  H   UNL     1     -37.380  25.743   4.707  0.00  0.00    +0.222 HD
ENDBRANCH  23  25
BRANCH  23  27
ATOM     27  O   UNL     1     -35.417  27.700   3.717  0.00  0.00    -0.303 OA
ATOM     28  H   UNL     1     -36.348  27.909   3.541  0.00  0.00    +0.222 HD
ENDBRANCH  23  27
ENDBRANCH  22  23
ENDBRANCH  21  22
ENDBRANCH   5  21
TORSDOF 8
ENDMDL
