MODEL 1
REMARK VINA RESULT:      -5.7      0.000      0.000
REMARK  Name = 190948
REMARK  7 active torsions:
REMARK  status: ('A' for Active; 'I' for Inactive)
REMARK    1  A    between atoms: C_3  and  C_16
REMARK    2  A    between atoms: C_10  and  O_14
REMARK    3  A    between atoms: C_16  and  C_17
REMARK    4  A    between atoms: C_17  and  O_18
REMARK    5  A    between atoms: C_17  and  C_20
REMARK    6  A    between atoms: C_20  and  C_22
REMARK    7  A    between atoms: C_22  and  O_23
REMARK                            x       y       z     vdW  Elec       q    Type
REMARK                         _______ _______ _______ _____ _____    ______ ____
ROOT
ATOM      1  O   UNL     1     -36.908  25.351   2.670  0.00  0.00    -0.287 OA
ATOM      2  O   UNL     1     -35.172  20.569   4.286  0.00  0.00    -0.287 OA
ATOM      3  C   UNL     1     -36.108  24.013   4.465  0.00  0.00    +0.018 C 
ATOM      4  C   UNL     1     -35.651  22.811   4.861  0.00  0.00    +0.016 C 
ATOM      5  C   UNL     1     -36.516  24.250   3.046  0.00  0.00    +0.192 C 
ATOM      6  C   UNL     1     -36.434  23.133   2.093  0.00  0.00    +0.045 C 
ATOM      7  C   UNL     1     -35.976  21.886   2.507  0.00  0.00    +0.075 C 
ATOM      8  C   UNL     1     -35.568  21.666   3.903  0.00  0.00    +0.194 C 
ATOM      9  C   UNL     1     -35.170  22.489   6.252  0.00  0.00    +0.034 C 
ATOM     10  C   UNL     1     -35.903  20.829   1.590  0.00  0.00    +0.137 C 
ATOM     11  C   UNL     1     -36.819  23.328   0.761  0.00  0.00    +0.003 C 
ATOM     12  C   UNL     1     -36.288  21.027   0.263  0.00  0.00    +0.037 C 
ATOM     13  C   UNL     1     -36.745  22.275  -0.151  0.00  0.00    +0.003 C 
ENDROOT
BRANCH  10  14
ATOM     14  O   UNL     1     -35.465  19.584   1.928  0.00  0.00    -0.505 OA
ATOM     15  H   UNL     1     -35.715  19.204   2.748  0.00  0.00    +0.292 HD
ENDBRANCH  10  14
BRANCH   3  16
ATOM     16  C   UNL     1     -36.276  25.211   5.362  0.00  0.00    +0.059 C 
BRANCH  16  17
ATOM     17  C   UNL     1     -35.098  26.184   5.311  0.00  0.00    +0.126 C 
BRANCH  17  18
ATOM     18  O   UNL     1     -35.471  27.307   4.512  0.00  0.00    -0.384 OA
ATOM     19  H   UNL     1     -36.214  27.062   3.939  0.00  0.00    +0.210 HD
ENDBRANCH  17  18
BRANCH  17  20
ATOM     20  C   UNL     1     -33.812  25.556   4.760  0.00  0.00    +0.139 C 
BRANCH  20  22
ATOM     21  O   UNL     1     -32.309  27.180   3.733  0.00  0.00    -0.250 OA
ATOM     22  C   UNL     1     -33.215  26.365   3.627  0.00  0.00    +0.316 C 
BRANCH  22  23
ATOM     23  O   UNL     1     -33.820  26.080   2.443  0.00  0.00    -0.480 OA
ATOM     24  H   UNL     1     -33.543  25.339   1.942  0.00  0.00    +0.295 HD
ENDBRANCH  22  23
ENDBRANCH  20  22
ENDBRANCH  17  20
ENDBRANCH  16  17
ENDBRANCH   3  16
TORSDOF 7
ENDMDL
MODEL 2
REMARK VINA RESULT:      -5.6      2.983      4.689
REMARK  Name = 190948
REMARK  7 active torsions:
REMARK  status: ('A' for Active; 'I' for Inactive)
REMARK    1  A    between atoms: C_3  and  C_16
REMARK    2  A    between atoms: C_10  and  O_14
REMARK    3  A    between atoms: C_16  and  C_17
REMARK    4  A    between atoms: C_17  and  O_18
REMARK    5  A    between atoms: C_17  and  C_20
REMARK    6  A    between atoms: C_20  and  C_22
REMARK    7  A    between atoms: C_22  and  O_23
REMARK                            x       y       z     vdW  Elec       q    Type
REMARK                         _______ _______ _______ _____ _____    ______ ____
ROOT
ATOM      1  O   UNL     1     -35.609  20.143   2.656  0.00  0.00    -0.287 OA
ATOM      2  O   UNL     1     -32.572  22.883  -0.772  0.00  0.00    -0.287 OA
ATOM      3  C   UNL     1     -35.215  22.201   1.533  0.00  0.00    +0.018 C 
ATOM      4  C   UNL     1     -34.458  22.880   0.652  0.00  0.00    +0.016 C 
ATOM      5  C   UNL     1     -34.908  20.778   1.874  0.00  0.00    +0.192 C 
ATOM      6  C   UNL     1     -33.742  20.139   1.245  0.00  0.00    +0.045 C 
ATOM      7  C   UNL     1     -32.950  20.846   0.346  0.00  0.00    +0.075 C 
ATOM      8  C   UNL     1     -33.267  22.243   0.011  0.00  0.00    +0.194 C 
ATOM      9  C   UNL     1     -34.715  24.296   0.209  0.00  0.00    +0.034 C 
ATOM     10  C   UNL     1     -31.842  20.226  -0.246  0.00  0.00    +0.137 C 
ATOM     11  C   UNL     1     -33.429  18.809   1.554  0.00  0.00    +0.003 C 
ATOM     12  C   UNL     1     -31.532  18.902   0.065  0.00  0.00    +0.037 C 
ATOM     13  C   UNL     1     -32.325  18.194   0.964  0.00  0.00    +0.003 C 
ENDROOT
BRANCH  10  14
ATOM     14  O   UNL     1     -31.025  20.861  -1.134  0.00  0.00    -0.505 OA
ATOM     15  H   UNL     1     -31.355  21.567  -1.654  0.00  0.00    +0.292 HD
ENDBRANCH  10  14
BRANCH   3  16
ATOM     16  C   UNL     1     -36.401  22.767   2.268  0.00  0.00    +0.059 C 
BRANCH  16  17
ATOM     17  C   UNL     1     -36.054  23.335   3.645  0.00  0.00    +0.126 C 
BRANCH  17  18
ATOM     18  O   UNL     1     -36.459  22.394   4.640  0.00  0.00    -0.384 OA
ATOM     19  H   UNL     1     -36.689  22.865   5.456  0.00  0.00    +0.210 HD
ENDBRANCH  17  18
BRANCH  17  20
ATOM     20  C   UNL     1     -36.702  24.698   3.923  0.00  0.00    +0.139 C 
BRANCH  20  22
ATOM     21  O   UNL     1     -35.138  24.982   5.772  0.00  0.00    -0.250 OA
ATOM     22  C   UNL     1     -36.053  25.418   5.087  0.00  0.00    +0.316 C 
BRANCH  22  23
ATOM     23  O   UNL     1     -36.621  26.634   5.295  0.00  0.00    -0.480 OA
ATOM     24  H   UNL     1     -37.471  26.821   4.947  0.00  0.00    +0.295 HD
ENDBRANCH  22  23
ENDBRANCH  20  22
ENDBRANCH  17  20
ENDBRANCH  16  17
ENDBRANCH   3  16
TORSDOF 7
ENDMDL
MODEL 3
REMARK VINA RESULT:      -5.5      3.180      5.490
REMARK  Name = 190948
REMARK  7 active torsions:
REMARK  status: ('A' for Active; 'I' for Inactive)
REMARK    1  A    between atoms: C_3  and  C_16
REMARK    2  A    between atoms: C_10  and  O_14
REMARK    3  A    between atoms: C_16  and  C_17
REMARK    4  A    between atoms: C_17  and  O_18
REMARK    5  A    between atoms: C_17  and  C_20
REMARK    6  A    between atoms: C_20  and  C_22
REMARK    7  A    between atoms: C_22  and  O_23
REMARK                            x       y       z     vdW  Elec       q    Type
REMARK                         _______ _______ _______ _____ _____    ______ ____
ROOT
ATOM      1  O   UNL     1     -38.171  26.026   3.318  0.00  0.00    -0.287 OA
ATOM      2  O   UNL     1     -37.117  20.912   2.213  0.00  0.00    -0.287 OA
ATOM      3  C   UNL     1     -38.645  24.132   1.962  0.00  0.00    +0.018 C 
ATOM      4  C   UNL     1     -38.390  22.837   1.702  0.00  0.00    +0.016 C 
ATOM      5  C   UNL     1     -37.925  24.853   3.056  0.00  0.00    +0.192 C 
ATOM      6  C   UNL     1     -36.909  24.123   3.830  0.00  0.00    +0.045 C 
ATOM      7  C   UNL     1     -36.634  22.788   3.551  0.00  0.00    +0.075 C 
ATOM      8  C   UNL     1     -37.355  22.086   2.478  0.00  0.00    +0.194 C 
ATOM      9  C   UNL     1     -39.097  22.014   0.656  0.00  0.00    +0.034 C 
ATOM     10  C   UNL     1     -35.663  22.105   4.295  0.00  0.00    +0.137 C 
ATOM     11  C   UNL     1     -36.215  24.779   4.855  0.00  0.00    +0.003 C 
ATOM     12  C   UNL     1     -34.973  22.761   5.314  0.00  0.00    +0.037 C 
ATOM     13  C   UNL     1     -35.248  24.096   5.594  0.00  0.00    +0.003 C 
ENDROOT
BRANCH  10  14
ATOM     14  O   UNL     1     -35.345  20.797   4.073  0.00  0.00    -0.505 OA
ATOM     15  H   UNL     1     -35.933  20.246   3.594  0.00  0.00    +0.292 HD
ENDBRANCH  10  14
BRANCH   3  16
ATOM     16  C   UNL     1     -39.629  24.986   1.207  0.00  0.00    +0.059 C 
BRANCH  16  17
ATOM     17  C   UNL     1     -41.022  25.018   1.836  0.00  0.00    +0.126 C 
BRANCH  17  18
ATOM     18  O   UNL     1     -41.908  24.255   1.016  0.00  0.00    -0.384 OA
ATOM     19  H   UNL     1     -42.816  24.574   1.139  0.00  0.00    +0.210 HD
ENDBRANCH  17  18
BRANCH  17  20
ATOM     20  C   UNL     1     -41.575  26.437   2.020  0.00  0.00    +0.139 C 
BRANCH  20  22
ATOM     21  O   UNL     1     -41.960  27.955   3.889  0.00  0.00    -0.250 OA
ATOM     22  C   UNL     1     -41.560  26.878   3.469  0.00  0.00    +0.316 C 
BRANCH  22  23
ATOM     23  O   UNL     1     -41.032  25.919   4.274  0.00  0.00    -0.480 OA
ATOM     24  H   UNL     1     -40.867  25.061   3.934  0.00  0.00    +0.295 HD
ENDBRANCH  22  23
ENDBRANCH  20  22
ENDBRANCH  17  20
ENDBRANCH  16  17
ENDBRANCH   3  16
TORSDOF 7
ENDMDL
MODEL 4
REMARK VINA RESULT:      -5.5      2.269      3.927
REMARK  Name = 190948
REMARK  7 active torsions:
REMARK  status: ('A' for Active; 'I' for Inactive)
REMARK    1  A    between atoms: C_3  and  C_16
REMARK    2  A    between atoms: C_10  and  O_14
REMARK    3  A    between atoms: C_16  and  C_17
REMARK    4  A    between atoms: C_17  and  O_18
REMARK    5  A    between atoms: C_17  and  C_20
REMARK    6  A    between atoms: C_20  and  C_22
REMARK    7  A    between atoms: C_22  and  O_23
REMARK                            x       y       z     vdW  Elec       q    Type
REMARK                         _______ _______ _______ _____ _____    ______ ____
ROOT
ATOM      1  O   UNL     1     -35.756  26.240   5.283  0.00  0.00    -0.287 OA
ATOM      2  O   UNL     1     -35.503  22.560   1.426  0.00  0.00    -0.287 OA
ATOM      3  C   UNL     1     -35.777  25.780   2.951  0.00  0.00    +0.018 C 
ATOM      4  C   UNL     1     -35.733  24.845   1.984  0.00  0.00    +0.016 C 
ATOM      5  C   UNL     1     -35.690  25.397   4.394  0.00  0.00    +0.192 C 
ATOM      6  C   UNL     1     -35.530  23.976   4.737  0.00  0.00    +0.045 C 
ATOM      7  C   UNL     1     -35.470  23.011   3.737  0.00  0.00    +0.075 C 
ATOM      8  C   UNL     1     -35.565  23.398   2.320  0.00  0.00    +0.194 C 
ATOM      9  C   UNL     1     -35.862  25.126   0.509  0.00  0.00    +0.034 C 
ATOM     10  C   UNL     1     -35.317  21.661   4.077  0.00  0.00    +0.137 C 
ATOM     11  C   UNL     1     -35.439  23.594   6.082  0.00  0.00    +0.003 C 
ATOM     12  C   UNL     1     -35.224  21.283   5.417  0.00  0.00    +0.037 C 
ATOM     13  C   UNL     1     -35.286  22.248   6.418  0.00  0.00    +0.003 C 
ENDROOT
BRANCH  10  14
ATOM     14  O   UNL     1     -35.250  20.666   3.147  0.00  0.00    -0.505 OA
ATOM     15  H   UNL     1     -35.926  20.578   2.504  0.00  0.00    +0.292 HD
ENDBRANCH  10  14
BRANCH   3  16
ATOM     16  C   UNL     1     -35.893  27.262   2.714  0.00  0.00    +0.059 C 
BRANCH  16  17
ATOM     17  C   UNL     1     -34.544  27.973   2.603  0.00  0.00    +0.126 C 
BRANCH  17  18
ATOM     18  O   UNL     1     -33.981  28.085   3.911  0.00  0.00    -0.384 OA
ATOM     19  H   UNL     1     -34.498  28.722   4.430  0.00  0.00    +0.210 HD
ENDBRANCH  17  18
BRANCH  17  20
ATOM     20  C   UNL     1     -34.637  29.360   1.954  0.00  0.00    +0.139 C 
BRANCH  20  22
ATOM     21  O   UNL     1     -33.386  31.091   3.132  0.00  0.00    -0.250 OA
ATOM     22  C   UNL     1     -34.431  30.478   2.954  0.00  0.00    +0.316 C 
BRANCH  22  23
ATOM     23  O   UNL     1     -35.566  30.730   3.657  0.00  0.00    -0.480 OA
ATOM     24  H   UNL     1     -36.372  30.322   3.407  0.00  0.00    +0.295 HD
ENDBRANCH  22  23
ENDBRANCH  20  22
ENDBRANCH  17  20
ENDBRANCH  16  17
ENDBRANCH   3  16
TORSDOF 7
ENDMDL
MODEL 5
REMARK VINA RESULT:      -5.5      1.433      1.624
REMARK  Name = 190948
REMARK  7 active torsions:
REMARK  status: ('A' for Active; 'I' for Inactive)
REMARK    1  A    between atoms: C_3  and  C_16
REMARK    2  A    between atoms: C_10  and  O_14
REMARK    3  A    between atoms: C_16  and  C_17
REMARK    4  A    between atoms: C_17  and  O_18
REMARK    5  A    between atoms: C_17  and  C_20
REMARK    6  A    between atoms: C_20  and  C_22
REMARK    7  A    between atoms: C_22  and  O_23
REMARK                            x       y       z     vdW  Elec       q    Type
REMARK                         _______ _______ _______ _____ _____    ______ ____
ROOT
ATOM      1  O   UNL     1     -37.280  25.929   3.625  0.00  0.00    -0.287 OA
ATOM      2  O   UNL     1     -35.767  20.820   3.920  0.00  0.00    -0.287 OA
ATOM      3  C   UNL     1     -35.925  24.302   4.706  0.00  0.00    +0.018 C 
ATOM      4  C   UNL     1     -35.532  23.016   4.761  0.00  0.00    +0.016 C 
ATOM      5  C   UNL     1     -36.937  24.754   3.701  0.00  0.00    +0.192 C 
ATOM      6  C   UNL     1     -37.515  23.757   2.787  0.00  0.00    +0.045 C 
ATOM      7  C   UNL     1     -37.120  22.425   2.855  0.00  0.00    +0.075 C 
ATOM      8  C   UNL     1     -36.118  21.993   3.841  0.00  0.00    +0.194 C 
ATOM      9  C   UNL     1     -34.487  22.476   5.702  0.00  0.00    +0.034 C 
ATOM     10  C   UNL     1     -37.680  21.485   1.979  0.00  0.00    +0.137 C 
ATOM     11  C   UNL     1     -38.470  24.155   1.842  0.00  0.00    +0.003 C 
ATOM     12  C   UNL     1     -38.632  21.884   1.040  0.00  0.00    +0.037 C 
ATOM     13  C   UNL     1     -39.026  23.217   0.972  0.00  0.00    +0.003 C 
ENDROOT
BRANCH  10  14
ATOM     14  O   UNL     1     -37.338  20.165   1.992  0.00  0.00    -0.505 OA
ATOM     15  H   UNL     1     -36.438  19.913   1.934  0.00  0.00    +0.292 HD
ENDBRANCH  10  14
BRANCH   3  16
ATOM     16  C   UNL     1     -35.434  25.394   5.618  0.00  0.00    +0.059 C 
BRANCH  16  17
ATOM     17  C   UNL     1     -33.993  25.822   5.341  0.00  0.00    +0.126 C 
BRANCH  17  18
ATOM     18  O   UNL     1     -33.676  26.927   6.189  0.00  0.00    -0.384 OA
ATOM     19  H   UNL     1     -32.929  26.691   6.760  0.00  0.00    +0.210 HD
ENDBRANCH  17  18
BRANCH  17  20
ATOM     20  C   UNL     1     -33.741  26.202   3.876  0.00  0.00    +0.139 C 
BRANCH  20  22
ATOM     21  O   UNL     1     -32.937  28.471   3.488  0.00  0.00    -0.250 OA
ATOM     22  C   UNL     1     -33.868  27.691   3.636  0.00  0.00    +0.316 C 
BRANCH  22  23
ATOM     23  O   UNL     1     -35.170  28.079   3.608  0.00  0.00    -0.480 OA
ATOM     24  H   UNL     1     -35.388  28.991   3.627  0.00  0.00    +0.295 HD
ENDBRANCH  22  23
ENDBRANCH  20  22
ENDBRANCH  17  20
ENDBRANCH  16  17
ENDBRANCH   3  16
TORSDOF 7
ENDMDL
MODEL 6
REMARK VINA RESULT:      -5.4      1.961      3.913
REMARK  Name = 190948
REMARK  7 active torsions:
REMARK  status: ('A' for Active; 'I' for Inactive)
REMARK    1  A    between atoms: C_3  and  C_16
REMARK    2  A    between atoms: C_10  and  O_14
REMARK    3  A    between atoms: C_16  and  C_17
REMARK    4  A    between atoms: C_17  and  O_18
REMARK    5  A    between atoms: C_17  and  C_20
REMARK    6  A    between atoms: C_20  and  C_22
REMARK    7  A    between atoms: C_22  and  O_23
REMARK                            x       y       z     vdW  Elec       q    Type
REMARK                         _______ _______ _______ _____ _____    ______ ____
ROOT
ATOM      1  O   UNL     1     -34.682  26.276   5.621  0.00  0.00    -0.287 OA
ATOM      2  O   UNL     1     -35.049  23.011   1.415  0.00  0.00    -0.287 OA
ATOM      3  C   UNL     1     -34.604  26.040   3.256  0.00  0.00    +0.018 C 
ATOM      4  C   UNL     1     -34.719  25.216   2.199  0.00  0.00    +0.016 C 
ATOM      5  C   UNL     1     -34.758  25.526   4.653  0.00  0.00    +0.192 C 
ATOM      6  C   UNL     1     -35.013  24.091   4.850  0.00  0.00    +0.045 C 
ATOM      7  C   UNL     1     -35.116  23.236   3.758  0.00  0.00    +0.075 C 
ATOM      8  C   UNL     1     -34.972  23.754   2.388  0.00  0.00    +0.194 C 
ATOM      9  C   UNL     1     -34.629  25.646   0.759  0.00  0.00    +0.034 C 
ATOM     10  C   UNL     1     -35.358  21.871   3.960  0.00  0.00    +0.137 C 
ATOM     11  C   UNL     1     -35.153  23.585   6.149  0.00  0.00    +0.003 C 
ATOM     12  C   UNL     1     -35.495  21.369   5.254  0.00  0.00    +0.037 C 
ATOM     13  C   UNL     1     -35.393  22.225   6.348  0.00  0.00    +0.003 C 
ENDROOT
BRANCH  10  14
ATOM     14  O   UNL     1     -35.470  20.979   2.935  0.00  0.00    -0.505 OA
ATOM     15  H   UNL     1     -34.723  20.777   2.405  0.00  0.00    +0.292 HD
ENDBRANCH  10  14
BRANCH   3  16
ATOM     16  C   UNL     1     -34.301  27.513   3.173  0.00  0.00    +0.059 C 
BRANCH  16  17
ATOM     17  C   UNL     1     -32.809  27.837   3.248  0.00  0.00    +0.126 C 
BRANCH  17  18
ATOM     18  O   UNL     1     -32.095  26.629   3.516  0.00  0.00    -0.384 OA
ATOM     19  H   UNL     1     -31.403  26.509   2.847  0.00  0.00    +0.210 HD
ENDBRANCH  17  18
BRANCH  17  20
ATOM     20  C   UNL     1     -32.466  28.891   4.308  0.00  0.00    +0.139 C 
BRANCH  20  22
ATOM     21  O   UNL     1     -30.520  28.155   5.580  0.00  0.00    -0.250 OA
ATOM     22  C   UNL     1     -31.732  28.299   5.493  0.00  0.00    +0.316 C 
BRANCH  22  23
ATOM     23  O   UNL     1     -32.594  27.928   6.476  0.00  0.00    -0.480 OA
ATOM     24  H   UNL     1     -32.338  27.282   7.105  0.00  0.00    +0.295 HD
ENDBRANCH  22  23
ENDBRANCH  20  22
ENDBRANCH  17  20
ENDBRANCH  16  17
ENDBRANCH   3  16
TORSDOF 7
ENDMDL
MODEL 7
REMARK VINA RESULT:      -5.4      2.209      2.933
REMARK  Name = 190948
REMARK  7 active torsions:
REMARK  status: ('A' for Active; 'I' for Inactive)
REMARK    1  A    between atoms: C_3  and  C_16
REMARK    2  A    between atoms: C_10  and  O_14
REMARK    3  A    between atoms: C_16  and  C_17
REMARK    4  A    between atoms: C_17  and  O_18
REMARK    5  A    between atoms: C_17  and  C_20
REMARK    6  A    between atoms: C_20  and  C_22
REMARK    7  A    between atoms: C_22  and  O_23
REMARK                            x       y       z     vdW  Elec       q    Type
REMARK                         _______ _______ _______ _____ _____    ______ ____
ROOT
ATOM      1  O   UNL     1     -35.277  25.224   0.856  0.00  0.00    -0.287 OA
ATOM      2  O   UNL     1     -35.937  23.133   5.723  0.00  0.00    -0.287 OA
ATOM      3  C   UNL     1     -35.726  25.613   3.159  0.00  0.00    +0.018 C 
ATOM      4  C   UNL     1     -35.870  25.082   4.386  0.00  0.00    +0.016 C 
ATOM      5  C   UNL     1     -35.438  24.745   1.975  0.00  0.00    +0.192 C 
ATOM      6  C   UNL     1     -35.341  23.291   2.175  0.00  0.00    +0.045 C 
ATOM      7  C   UNL     1     -35.505  22.740   3.442  0.00  0.00    +0.075 C 
ATOM      8  C   UNL     1     -35.779  23.604   4.601  0.00  0.00    +0.194 C 
ATOM      9  C   UNL     1     -36.111  25.875   5.644  0.00  0.00    +0.034 C 
ATOM     10  C   UNL     1     -35.411  21.354   3.618  0.00  0.00    +0.137 C 
ATOM     11  C   UNL     1     -35.080  22.457   1.080  0.00  0.00    +0.003 C 
ATOM     12  C   UNL     1     -35.152  20.526   2.526  0.00  0.00    +0.037 C 
ATOM     13  C   UNL     1     -34.987  21.076   1.258  0.00  0.00    +0.003 C 
ENDROOT
BRANCH  10  14
ATOM     14  O   UNL     1     -35.562  20.750   4.831  0.00  0.00    -0.505 OA
ATOM     15  H   UNL     1     -36.399  20.415   5.088  0.00  0.00    +0.292 HD
ENDBRANCH  10  14
BRANCH   3  16
ATOM     16  C   UNL     1     -35.849  27.077   2.832  0.00  0.00    +0.059 C 
BRANCH  16  17
ATOM     17  C   UNL     1     -34.507  27.808   2.777  0.00  0.00    +0.126 C 
BRANCH  17  18
ATOM     18  O   UNL     1     -34.045  28.008   4.114  0.00  0.00    -0.384 OA
ATOM     19  H   UNL     1     -34.037  28.958   4.313  0.00  0.00    +0.210 HD
ENDBRANCH  17  18
BRANCH  17  20
ATOM     20  C   UNL     1     -34.574  29.152   2.042  0.00  0.00    +0.139 C 
BRANCH  20  22
ATOM     21  O   UNL     1     -33.389  30.977   3.144  0.00  0.00    -0.250 OA
ATOM     22  C   UNL     1     -34.415  30.331   2.980  0.00  0.00    +0.316 C 
BRANCH  22  23
ATOM     23  O   UNL     1     -35.571  30.595   3.644  0.00  0.00    -0.480 OA
ATOM     24  H   UNL     1     -36.381  30.236   3.336  0.00  0.00    +0.295 HD
ENDBRANCH  22  23
ENDBRANCH  20  22
ENDBRANCH  17  20
ENDBRANCH  16  17
ENDBRANCH   3  16
TORSDOF 7
ENDMDL
MODEL 8
REMARK VINA RESULT:      -5.3      1.783      2.593
REMARK  Name = 190948
REMARK  7 active torsions:
REMARK  status: ('A' for Active; 'I' for Inactive)
REMARK    1  A    between atoms: C_3  and  C_16
REMARK    2  A    between atoms: C_10  and  O_14
REMARK    3  A    between atoms: C_16  and  C_17
REMARK    4  A    between atoms: C_17  and  O_18
REMARK    5  A    between atoms: C_17  and  C_20
REMARK    6  A    between atoms: C_20  and  C_22
REMARK    7  A    between atoms: C_22  and  O_23
REMARK                            x       y       z     vdW  Elec       q    Type
REMARK                         _______ _______ _______ _____ _____    ______ ____
ROOT
ATOM      1  O   UNL     1     -35.014  25.206   0.854  0.00  0.00    -0.287 OA
ATOM      2  O   UNL     1     -35.923  23.130   5.685  0.00  0.00    -0.287 OA
ATOM      3  C   UNL     1     -35.524  25.606   3.141  0.00  0.00    +0.018 C 
ATOM      4  C   UNL     1     -35.731  25.078   4.361  0.00  0.00    +0.016 C 
ATOM      5  C   UNL     1     -35.231  24.731   1.964  0.00  0.00    +0.192 C 
ATOM      6  C   UNL     1     -35.200  23.274   2.161  0.00  0.00    +0.045 C 
ATOM      7  C   UNL     1     -35.430  22.727   3.419  0.00  0.00    +0.075 C 
ATOM      8  C   UNL     1     -35.708  23.597   4.572  0.00  0.00    +0.194 C 
ATOM      9  C   UNL     1     -35.983  25.877   5.613  0.00  0.00    +0.034 C 
ATOM     10  C   UNL     1     -35.398  21.337   3.593  0.00  0.00    +0.137 C 
ATOM     11  C   UNL     1     -34.936  22.433   1.072  0.00  0.00    +0.003 C 
ATOM     12  C   UNL     1     -35.136  20.502   2.506  0.00  0.00    +0.037 C 
ATOM     13  C   UNL     1     -34.905  21.049   1.247  0.00  0.00    +0.003 C 
ENDROOT
BRANCH  10  14
ATOM     14  O   UNL     1     -35.614  20.736   4.797  0.00  0.00    -0.505 OA
ATOM     15  H   UNL     1     -35.076  20.952   5.533  0.00  0.00    +0.292 HD
ENDBRANCH  10  14
BRANCH   3  16
ATOM     16  C   UNL     1     -35.576  27.076   2.817  0.00  0.00    +0.059 C 
BRANCH  16  17
ATOM     17  C   UNL     1     -34.200  27.736   2.740  0.00  0.00    +0.126 C 
BRANCH  17  18
ATOM     18  O   UNL     1     -33.823  27.841   1.366  0.00  0.00    -0.384 OA
ATOM     19  H   UNL     1     -33.028  27.309   1.208  0.00  0.00    +0.210 HD
ENDBRANCH  17  18
BRANCH  17  20
ATOM     20  C   UNL     1     -33.117  26.980   3.520  0.00  0.00    +0.139 C 
BRANCH  20  22
ATOM     21  O   UNL     1     -32.560  27.036   5.893  0.00  0.00    -0.250 OA
ATOM     22  C   UNL     1     -32.806  27.630   4.852  0.00  0.00    +0.316 C 
BRANCH  22  23
ATOM     23  O   UNL     1     -32.839  28.985   4.762  0.00  0.00    -0.480 OA
ATOM     24  H   UNL     1     -32.089  29.489   5.010  0.00  0.00    +0.295 HD
ENDBRANCH  22  23
ENDBRANCH  20  22
ENDBRANCH  17  20
ENDBRANCH  16  17
ENDBRANCH   3  16
TORSDOF 7
ENDMDL
MODEL 9
REMARK VINA RESULT:      -5.3      2.729      6.941
REMARK  Name = 190948
REMARK  7 active torsions:
REMARK  status: ('A' for Active; 'I' for Inactive)
REMARK    1  A    between atoms: C_3  and  C_16
REMARK    2  A    between atoms: C_10  and  O_14
REMARK    3  A    between atoms: C_16  and  C_17
REMARK    4  A    between atoms: C_17  and  O_18
REMARK    5  A    between atoms: C_17  and  C_20
REMARK    6  A    between atoms: C_20  and  C_22
REMARK    7  A    between atoms: C_22  and  O_23
REMARK                            x       y       z     vdW  Elec       q    Type
REMARK                         _______ _______ _______ _____ _____    ______ ____
ROOT
ATOM      1  O   UNL     1     -33.688  26.262   6.543  0.00  0.00    -0.287 OA
ATOM      2  O   UNL     1     -33.904  28.759   1.832  0.00  0.00    -0.287 OA
ATOM      3  C   UNL     1     -34.838  26.553   4.483  0.00  0.00    +0.018 C 
ATOM      4  C   UNL     1     -34.875  27.171   3.288  0.00  0.00    +0.016 C 
ATOM      5  C   UNL     1     -33.745  26.840   5.463  0.00  0.00    +0.192 C 
ATOM      6  C   UNL     1     -32.721  27.834   5.105  0.00  0.00    +0.045 C 
ATOM      7  C   UNL     1     -32.768  28.484   3.875  0.00  0.00    +0.075 C 
ATOM      8  C   UNL     1     -33.843  28.187   2.915  0.00  0.00    +0.194 C 
ATOM      9  C   UNL     1     -35.903  26.913   2.218  0.00  0.00    +0.034 C 
ATOM     10  C   UNL     1     -31.788  29.429   3.547  0.00  0.00    +0.137 C 
ATOM     11  C   UNL     1     -31.693  28.126   6.009  0.00  0.00    +0.003 C 
ATOM     12  C   UNL     1     -30.765  29.719   4.451  0.00  0.00    +0.037 C 
ATOM     13  C   UNL     1     -30.717  29.068   5.680  0.00  0.00    +0.003 C 
ENDROOT
BRANCH  10  14
ATOM     14  O   UNL     1     -31.775  30.102   2.361  0.00  0.00    -0.505 OA
ATOM     15  H   UNL     1     -32.354  29.845   1.670  0.00  0.00    +0.292 HD
ENDBRANCH  10  14
BRANCH   3  16
ATOM     16  C   UNL     1     -35.854  25.556   4.970  0.00  0.00    +0.059 C 
BRANCH  16  17
ATOM     17  C   UNL     1     -35.704  24.170   4.342  0.00  0.00    +0.126 C 
BRANCH  17  18
ATOM     18  O   UNL     1     -36.995  23.567   4.257  0.00  0.00    -0.384 OA
ATOM     19  H   UNL     1     -37.613  24.046   4.832  0.00  0.00    +0.210 HD
ENDBRANCH  17  18
BRANCH  17  20
ATOM     20  C   UNL     1     -34.749  23.251   5.114  0.00  0.00    +0.139 C 
BRANCH  20  22
ATOM     21  O   UNL     1     -36.085  22.022   6.743  0.00  0.00    -0.250 OA
ATOM     22  C   UNL     1     -35.454  22.043   5.694  0.00  0.00    +0.316 C 
BRANCH  22  23
ATOM     23  O   UNL     1     -35.300  20.951   4.901  0.00  0.00    -0.480 OA
ATOM     24  H   UNL     1     -34.728  20.987   4.159  0.00  0.00    +0.295 HD
ENDBRANCH  22  23
ENDBRANCH  20  22
ENDBRANCH  17  20
ENDBRANCH  16  17
ENDBRANCH   3  16
TORSDOF 7
ENDMDL
