MODEL 1
REMARK VINA RESULT:      -5.9      0.000      0.000
REMARK  Name = 5318820
REMARK  10 active torsions:
REMARK  status: ('A' for Active; 'I' for Inactive)
REMARK    1  A    between atoms: C_2  and  O_7
REMARK    2  A    between atoms: C_3  and  O_9
REMARK    3  A    between atoms: C_4  and  O_11
REMARK    4  A    between atoms: C_5  and  C_26
REMARK    5  A    between atoms: C_6  and  O_13
REMARK    6  A    between atoms: O_13  and  C_14
REMARK    7  A    between atoms: C_17  and  O_20
REMARK    8  A    between atoms: C_18  and  O_22
REMARK    9  A    between atoms: C_19  and  O_24
REMARK   10  A    between atoms: C_26  and  O_27
REMARK                            x       y       z     vdW  Elec       q    Type
REMARK                         _______ _______ _______ _____ _____    ______ ____
ROOT
ATOM      1  O   UNL     1     -32.376  28.285   3.959  0.00  0.00    -0.316 OA
ATOM      2  C   UNL     1     -31.756  29.310   6.570  0.00  0.00    +0.173 C 
ATOM      3  C   UNL     1     -31.337  30.028   5.286  0.00  0.00    +0.169 C 
ATOM      4  C   UNL     1     -32.011  27.824   6.315  0.00  0.00    +0.210 C 
ATOM      5  C   UNL     1     -32.299  29.701   4.143  0.00  0.00    +0.177 C 
ATOM      6  C   UNL     1     -32.911  27.615   5.097  0.00  0.00    +0.318 C 
ENDROOT
BRANCH   2   7
ATOM      7  O   UNL     1     -30.702  29.455   7.521  0.00  0.00    -0.379 OA
ATOM      8  H   UNL     1     -31.076  29.497   8.415  0.00  0.00    +0.211 HD
ENDBRANCH   2   7
BRANCH   3   9
ATOM      9  O   UNL     1     -31.335  31.434   5.513  0.00  0.00    -0.379 OA
ATOM     10  H   UNL     1     -30.617  31.663   6.125  0.00  0.00    +0.211 HD
ENDBRANCH   3   9
BRANCH   4  11
ATOM     11  O   UNL     1     -32.657  27.252   7.452  0.00  0.00    -0.377 OA
ATOM     12  H   UNL     1     -32.629  26.285   7.387  0.00  0.00    +0.211 HD
ENDBRANCH   4  11
BRANCH   6  13
ATOM     13  O   UNL     1     -32.984  26.213   4.841  0.00  0.00    -0.450 OA
BRANCH  13  14
ATOM     14  C   UNL     1     -34.230  25.697   4.609  0.00  0.00    +0.148 C 
ATOM     15  C   UNL     1     -35.097  26.349   3.739  0.00  0.00    +0.077 C 
ATOM     16  C   UNL     1     -34.620  24.524   5.247  0.00  0.00    +0.077 C 
ATOM     17  C   UNL     1     -35.891  23.997   5.012  0.00  0.00    +0.178 C 
ATOM     18  C   UNL     1     -36.367  25.824   3.503  0.00  0.00    +0.178 C 
ATOM     19  C   UNL     1     -36.764  24.647   4.140  0.00  0.00    +0.203 C 
BRANCH  17  20
ATOM     20  O   UNL     1     -36.265  22.848   5.640  0.00  0.00    -0.468 OA
ATOM     21  C   UNL     1     -35.229  22.061   6.225  0.00  0.00    +0.253 C 
ENDBRANCH  17  20
BRANCH  18  22
ATOM     22  O   UNL     1     -37.210  26.468   2.650  0.00  0.00    -0.468 OA
ATOM     23  C   UNL     1     -36.614  27.263   1.627  0.00  0.00    +0.253 C 
ENDBRANCH  18  22
BRANCH  19  24
ATOM     24  O   UNL     1     -38.005  24.133   3.910  0.00  0.00    -0.501 OA
ATOM     25  H   UNL     1     -38.182  23.674   3.112  0.00  0.00    +0.292 HD
ENDBRANCH  19  24
ENDBRANCH  13  14
ENDBRANCH   6  13
BRANCH   5  26
ATOM     26  C   UNL     1     -31.837  30.311   2.823  0.00  0.00    +0.169 C 
BRANCH  26  27
ATOM     27  O   UNL     1     -32.309  31.644   2.752  0.00  0.00    -0.379 OA
ATOM     28  H   UNL     1     -31.671  32.236   3.179  0.00  0.00    +0.211 HD
ENDBRANCH  26  27
ENDBRANCH   5  26
TORSDOF 10
ENDMDL
MODEL 2
REMARK VINA RESULT:      -5.9      0.054      2.720
REMARK  Name = 5318820
REMARK  10 active torsions:
REMARK  status: ('A' for Active; 'I' for Inactive)
REMARK    1  A    between atoms: C_2  and  O_7
REMARK    2  A    between atoms: C_3  and  O_9
REMARK    3  A    between atoms: C_4  and  O_11
REMARK    4  A    between atoms: C_5  and  C_26
REMARK    5  A    between atoms: C_6  and  O_13
REMARK    6  A    between atoms: O_13  and  C_14
REMARK    7  A    between atoms: C_17  and  O_20
REMARK    8  A    between atoms: C_18  and  O_22
REMARK    9  A    between atoms: C_19  and  O_24
REMARK   10  A    between atoms: C_26  and  O_27
REMARK                            x       y       z     vdW  Elec       q    Type
REMARK                         _______ _______ _______ _____ _____    ______ ____
ROOT
ATOM      1  O   UNL     1     -32.375  28.285   3.919  0.00  0.00    -0.316 OA
ATOM      2  C   UNL     1     -31.779  29.291   6.542  0.00  0.00    +0.173 C 
ATOM      3  C   UNL     1     -31.349  30.018   5.268  0.00  0.00    +0.169 C 
ATOM      4  C   UNL     1     -32.031  27.807   6.275  0.00  0.00    +0.210 C 
ATOM      5  C   UNL     1     -32.300  29.699   4.113  0.00  0.00    +0.177 C 
ATOM      6  C   UNL     1     -32.920  27.607   5.048  0.00  0.00    +0.318 C 
ENDROOT
BRANCH   2   7
ATOM      7  O   UNL     1     -30.734  29.430   7.505  0.00  0.00    -0.379 OA
ATOM      8  H   UNL     1     -30.027  28.795   7.309  0.00  0.00    +0.211 HD
ENDBRANCH   2   7
BRANCH   3   9
ATOM      9  O   UNL     1     -31.349  31.422   5.505  0.00  0.00    -0.379 OA
ATOM     10  H   UNL     1     -31.321  31.590   6.460  0.00  0.00    +0.211 HD
ENDBRANCH   3   9
BRANCH   4  11
ATOM     11  O   UNL     1     -32.688  27.227   7.402  0.00  0.00    -0.377 OA
ATOM     12  H   UNL     1     -33.448  27.775   7.650  0.00  0.00    +0.211 HD
ENDBRANCH   4  11
BRANCH   6  13
ATOM     13  O   UNL     1     -32.990  26.206   4.780  0.00  0.00    -0.450 OA
BRANCH  13  14
ATOM     14  C   UNL     1     -34.237  25.686   4.561  0.00  0.00    +0.148 C 
ATOM     15  C   UNL     1     -34.628  24.525   5.221  0.00  0.00    +0.077 C 
ATOM     16  C   UNL     1     -35.104  26.323   3.679  0.00  0.00    +0.077 C 
ATOM     17  C   UNL     1     -36.376  25.793   3.455  0.00  0.00    +0.178 C 
ATOM     18  C   UNL     1     -35.898  23.995   4.997  0.00  0.00    +0.178 C 
ATOM     19  C   UNL     1     -36.772  24.630   4.113  0.00  0.00    +0.203 C 
BRANCH  17  20
ATOM     20  O   UNL     1     -37.219  26.422   2.589  0.00  0.00    -0.468 OA
ATOM     21  C   UNL     1     -36.643  27.380   1.703  0.00  0.00    +0.253 C 
ENDBRANCH  17  20
BRANCH  18  22
ATOM     22  O   UNL     1     -36.273  22.859   5.647  0.00  0.00    -0.468 OA
ATOM     23  C   UNL     1     -35.243  22.107   6.285  0.00  0.00    +0.253 C 
ENDBRANCH  18  22
BRANCH  19  24
ATOM     24  O   UNL     1     -38.014  24.112   3.895  0.00  0.00    -0.501 OA
ATOM     25  H   UNL     1     -38.248  23.799   3.043  0.00  0.00    +0.292 HD
ENDBRANCH  19  24
ENDBRANCH  13  14
ENDBRANCH   6  13
BRANCH   5  26
ATOM     26  C   UNL     1     -31.826  30.318   2.803  0.00  0.00    +0.169 C 
BRANCH  26  27
ATOM     27  O   UNL     1     -32.266  31.663   2.754  0.00  0.00    -0.379 OA
ATOM     28  H   UNL     1     -31.941  32.080   1.940  0.00  0.00    +0.211 HD
ENDBRANCH  26  27
ENDBRANCH   5  26
TORSDOF 10
ENDMDL
MODEL 3
REMARK VINA RESULT:      -5.6      4.003      6.862
REMARK  Name = 5318820
REMARK  10 active torsions:
REMARK  status: ('A' for Active; 'I' for Inactive)
REMARK    1  A    between atoms: C_2  and  O_7
REMARK    2  A    between atoms: C_3  and  O_9
REMARK    3  A    between atoms: C_4  and  O_11
REMARK    4  A    between atoms: C_5  and  C_26
REMARK    5  A    between atoms: C_6  and  O_13
REMARK    6  A    between atoms: O_13  and  C_14
REMARK    7  A    between atoms: C_17  and  O_20
REMARK    8  A    between atoms: C_18  and  O_22
REMARK    9  A    between atoms: C_19  and  O_24
REMARK   10  A    between atoms: C_26  and  O_27
REMARK                            x       y       z     vdW  Elec       q    Type
REMARK                         _______ _______ _______ _____ _____    ______ ____
ROOT
ATOM      1  O   UNL     1     -36.706  23.017   4.554  0.00  0.00    -0.316 OA
ATOM      2  C   UNL     1     -35.618  25.661   4.274  0.00  0.00    +0.173 C 
ATOM      3  C   UNL     1     -35.195  24.715   5.398  0.00  0.00    +0.169 C 
ATOM      4  C   UNL     1     -36.989  25.278   3.715  0.00  0.00    +0.210 C 
ATOM      5  C   UNL     1     -35.360  23.255   4.970  0.00  0.00    +0.177 C 
ATOM      6  C   UNL     1     -37.066  23.783   3.407  0.00  0.00    +0.318 C 
ENDROOT
BRANCH   2   7
ATOM      7  O   UNL     1     -35.674  26.984   4.807  0.00  0.00    -0.379 OA
ATOM      8  H   UNL     1     -36.592  27.298   4.800  0.00  0.00    +0.211 HD
ENDBRANCH   2   7
BRANCH   3   9
ATOM      9  O   UNL     1     -33.832  24.958   5.730  0.00  0.00    -0.379 OA
ATOM     10  H   UNL     1     -33.708  24.860   6.687  0.00  0.00    +0.211 HD
ENDBRANCH   3   9
BRANCH   4  11
ATOM     11  O   UNL     1     -37.224  25.997   2.504  0.00  0.00    -0.377 OA
ATOM     12  H   UNL     1     -36.539  26.675   2.392  0.00  0.00    +0.211 HD
ENDBRANCH   4  11
BRANCH   6  13
ATOM     13  O   UNL     1     -38.409  23.482   3.029  0.00  0.00    -0.450 OA
BRANCH  13  14
ATOM     14  C   UNL     1     -38.577  22.476   2.116  0.00  0.00    +0.148 C 
ATOM     15  C   UNL     1     -39.843  22.215   1.601  0.00  0.00    +0.077 C 
ATOM     16  C   UNL     1     -37.481  21.722   1.712  0.00  0.00    +0.077 C 
ATOM     17  C   UNL     1     -37.652  20.696   0.781  0.00  0.00    +0.178 C 
ATOM     18  C   UNL     1     -40.015  21.190   0.671  0.00  0.00    +0.178 C 
ATOM     19  C   UNL     1     -38.918  20.430   0.262  0.00  0.00    +0.203 C 
BRANCH  17  20
ATOM     20  O   UNL     1     -36.574  19.961   0.390  0.00  0.00    -0.468 OA
ATOM     21  C   UNL     1     -35.486  19.867   1.307  0.00  0.00    +0.253 C 
ENDBRANCH  17  20
BRANCH  18  22
ATOM     22  O   UNL     1     -41.257  20.941   0.171  0.00  0.00    -0.468 OA
ATOM     23  C   UNL     1     -41.712  21.785  -0.884  0.00  0.00    +0.253 C 
ENDBRANCH  18  22
BRANCH  19  24
ATOM     24  O   UNL     1     -39.086  19.428  -0.647  0.00  0.00    -0.501 OA
ATOM     25  H   UNL     1     -38.836  18.552  -0.429  0.00  0.00    +0.292 HD
ENDBRANCH  19  24
ENDBRANCH  13  14
ENDBRANCH   6  13
BRANCH   5  26
ATOM     26  C   UNL     1     -35.056  22.294   6.114  0.00  0.00    +0.169 C 
BRANCH  26  27
ATOM     27  O   UNL     1     -35.282  20.970   5.664  0.00  0.00    -0.379 OA
ATOM     28  H   UNL     1     -34.945  20.343   6.322  0.00  0.00    +0.211 HD
ENDBRANCH  26  27
ENDBRANCH   5  26
TORSDOF 10
ENDMDL
MODEL 4
REMARK VINA RESULT:      -5.6      4.004      7.123
REMARK  Name = 5318820
REMARK  10 active torsions:
REMARK  status: ('A' for Active; 'I' for Inactive)
REMARK    1  A    between atoms: C_2  and  O_7
REMARK    2  A    between atoms: C_3  and  O_9
REMARK    3  A    between atoms: C_4  and  O_11
REMARK    4  A    between atoms: C_5  and  C_26
REMARK    5  A    between atoms: C_6  and  O_13
REMARK    6  A    between atoms: O_13  and  C_14
REMARK    7  A    between atoms: C_17  and  O_20
REMARK    8  A    between atoms: C_18  and  O_22
REMARK    9  A    between atoms: C_19  and  O_24
REMARK   10  A    between atoms: C_26  and  O_27
REMARK                            x       y       z     vdW  Elec       q    Type
REMARK                         _______ _______ _______ _____ _____    ______ ____
ROOT
ATOM      1  O   UNL     1     -36.700  23.014   4.557  0.00  0.00    -0.316 OA
ATOM      2  C   UNL     1     -35.626  25.662   4.263  0.00  0.00    +0.173 C 
ATOM      3  C   UNL     1     -35.194  24.722   5.389  0.00  0.00    +0.169 C 
ATOM      4  C   UNL     1     -36.997  25.271   3.711  0.00  0.00    +0.210 C 
ATOM      5  C   UNL     1     -35.354  23.260   4.967  0.00  0.00    +0.177 C 
ATOM      6  C   UNL     1     -37.069  23.774   3.409  0.00  0.00    +0.318 C 
ENDROOT
BRANCH   2   7
ATOM      7  O   UNL     1     -35.686  26.986   4.792  0.00  0.00    -0.379 OA
ATOM      8  H   UNL     1     -34.966  27.114   5.429  0.00  0.00    +0.211 HD
ENDBRANCH   2   7
BRANCH   3   9
ATOM      9  O   UNL     1     -33.830  24.972   5.714  0.00  0.00    -0.379 OA
ATOM     10  H   UNL     1     -33.568  25.838   5.364  0.00  0.00    +0.211 HD
ENDBRANCH   3   9
BRANCH   4  11
ATOM     11  O   UNL     1     -37.241  25.984   2.499  0.00  0.00    -0.377 OA
ATOM     12  H   UNL     1     -38.171  26.259   2.467  0.00  0.00    +0.211 HD
ENDBRANCH   4  11
BRANCH   6  13
ATOM     13  O   UNL     1     -38.413  23.465   3.038  0.00  0.00    -0.450 OA
BRANCH  13  14
ATOM     14  C   UNL     1     -38.579  22.463   2.120  0.00  0.00    +0.148 C 
ATOM     15  C   UNL     1     -37.485  21.701   1.723  0.00  0.00    +0.077 C 
ATOM     16  C   UNL     1     -39.842  22.216   1.591  0.00  0.00    +0.077 C 
ATOM     17  C   UNL     1     -40.012  21.194   0.656  0.00  0.00    +0.178 C 
ATOM     18  C   UNL     1     -37.655  20.680   0.788  0.00  0.00    +0.178 C 
ATOM     19  C   UNL     1     -38.919  20.427   0.255  0.00  0.00    +0.203 C 
BRANCH  17  20
ATOM     20  O   UNL     1     -41.251  20.957   0.142  0.00  0.00    -0.468 OA
ATOM     21  C   UNL     1     -41.701  21.828  -0.894  0.00  0.00    +0.253 C 
ENDBRANCH  17  20
BRANCH  18  22
ATOM     22  O   UNL     1     -36.579  19.939   0.405  0.00  0.00    -0.468 OA
ATOM     23  C   UNL     1     -35.457  19.921   1.285  0.00  0.00    +0.253 C 
ENDBRANCH  18  22
BRANCH  19  24
ATOM     24  O   UNL     1     -39.085  19.429  -0.659  0.00  0.00    -0.501 OA
ATOM     25  H   UNL     1     -39.287  19.639  -1.550  0.00  0.00    +0.292 HD
ENDBRANCH  19  24
ENDBRANCH  13  14
ENDBRANCH   6  13
BRANCH   5  26
ATOM     26  C   UNL     1     -35.041  22.303   6.113  0.00  0.00    +0.169 C 
BRANCH  26  27
ATOM     27  O   UNL     1     -35.284  20.979   5.675  0.00  0.00    -0.379 OA
ATOM     28  H   UNL     1     -36.233  20.863   5.508  0.00  0.00    +0.211 HD
ENDBRANCH  26  27
ENDBRANCH   5  26
TORSDOF 10
ENDMDL
MODEL 5
REMARK VINA RESULT:      -5.5      3.808      7.003
REMARK  Name = 5318820
REMARK  10 active torsions:
REMARK  status: ('A' for Active; 'I' for Inactive)
REMARK    1  A    between atoms: C_2  and  O_7
REMARK    2  A    between atoms: C_3  and  O_9
REMARK    3  A    between atoms: C_4  and  O_11
REMARK    4  A    between atoms: C_5  and  C_26
REMARK    5  A    between atoms: C_6  and  O_13
REMARK    6  A    between atoms: O_13  and  C_14
REMARK    7  A    between atoms: C_17  and  O_20
REMARK    8  A    between atoms: C_18  and  O_22
REMARK    9  A    between atoms: C_19  and  O_24
REMARK   10  A    between atoms: C_26  and  O_27
REMARK                            x       y       z     vdW  Elec       q    Type
REMARK                         _______ _______ _______ _____ _____    ______ ____
ROOT
ATOM      1  O   UNL     1     -36.904  23.630   4.578  0.00  0.00    -0.316 OA
ATOM      2  C   UNL     1     -35.569  26.080   3.893  0.00  0.00    +0.173 C 
ATOM      3  C   UNL     1     -34.975  25.068   4.873  0.00  0.00    +0.169 C 
ATOM      4  C   UNL     1     -37.086  25.917   3.782  0.00  0.00    +0.210 C 
ATOM      5  C   UNL     1     -35.475  23.655   4.565  0.00  0.00    +0.177 C 
ATOM      6  C   UNL     1     -37.473  24.455   3.564  0.00  0.00    +0.318 C 
ENDROOT
BRANCH   2   7
ATOM      7  O   UNL     1     -35.265  27.390   4.372  0.00  0.00    -0.379 OA
ATOM      8  H   UNL     1     -36.021  27.977   4.213  0.00  0.00    +0.211 HD
ENDBRANCH   2   7
BRANCH   3   9
ATOM      9  O   UNL     1     -33.554  25.097   4.775  0.00  0.00    -0.379 OA
ATOM     10  H   UNL     1     -33.277  25.905   4.314  0.00  0.00    +0.211 HD
ENDBRANCH   3   9
BRANCH   4  11
ATOM     11  O   UNL     1     -37.564  26.677   2.671  0.00  0.00    -0.377 OA
ATOM     12  H   UNL     1     -37.185  27.569   2.704  0.00  0.00    +0.211 HD
ENDBRANCH   4  11
BRANCH   6  13
ATOM     13  O   UNL     1     -38.897  24.367   3.614  0.00  0.00    -0.450 OA
BRANCH  13  14
ATOM     14  C   UNL     1     -39.517  23.838   2.514  0.00  0.00    +0.148 C 
ATOM     15  C   UNL     1     -39.258  22.523   2.140  0.00  0.00    +0.077 C 
ATOM     16  C   UNL     1     -40.401  24.621   1.778  0.00  0.00    +0.077 C 
ATOM     17  C   UNL     1     -41.033  24.082   0.656  0.00  0.00    +0.178 C 
ATOM     18  C   UNL     1     -39.889  21.985   1.019  0.00  0.00    +0.178 C 
ATOM     19  C   UNL     1     -40.777  22.765   0.277  0.00  0.00    +0.203 C 
BRANCH  17  20
ATOM     20  O   UNL     1     -41.897  24.855  -0.060  0.00  0.00    -0.468 OA
ATOM     21  C   UNL     1     -43.200  25.049   0.488  0.00  0.00    +0.253 C 
ENDBRANCH  17  20
BRANCH  18  22
ATOM     22  O   UNL     1     -39.631  20.697   0.660  0.00  0.00    -0.468 OA
ATOM     23  C   UNL     1     -38.413  20.451  -0.040  0.00  0.00    +0.253 C 
ENDBRANCH  18  22
BRANCH  19  24
ATOM     24  O   UNL     1     -41.394  22.239  -0.819  0.00  0.00    -0.501 OA
ATOM     25  H   UNL     1     -41.409  22.719  -1.623  0.00  0.00    +0.292 HD
ENDBRANCH  19  24
ENDBRANCH  13  14
ENDBRANCH   6  13
BRANCH   5  26
ATOM     26  C   UNL     1     -34.990  22.646   5.600  0.00  0.00    +0.169 C 
BRANCH  26  27
ATOM     27  O   UNL     1     -36.113  21.967   6.131  0.00  0.00    -0.379 OA
ATOM     28  H   UNL     1     -36.904  22.202   5.620  0.00  0.00    +0.211 HD
ENDBRANCH  26  27
ENDBRANCH   5  26
TORSDOF 10
ENDMDL
MODEL 6
REMARK VINA RESULT:      -5.5      3.808      6.638
REMARK  Name = 5318820
REMARK  10 active torsions:
REMARK  status: ('A' for Active; 'I' for Inactive)
REMARK    1  A    between atoms: C_2  and  O_7
REMARK    2  A    between atoms: C_3  and  O_9
REMARK    3  A    between atoms: C_4  and  O_11
REMARK    4  A    between atoms: C_5  and  C_26
REMARK    5  A    between atoms: C_6  and  O_13
REMARK    6  A    between atoms: O_13  and  C_14
REMARK    7  A    between atoms: C_17  and  O_20
REMARK    8  A    between atoms: C_18  and  O_22
REMARK    9  A    between atoms: C_19  and  O_24
REMARK   10  A    between atoms: C_26  and  O_27
REMARK                            x       y       z     vdW  Elec       q    Type
REMARK                         _______ _______ _______ _____ _____    ______ ____
ROOT
ATOM      1  O   UNL     1     -36.893  23.631   4.566  0.00  0.00    -0.316 OA
ATOM      2  C   UNL     1     -35.561  26.070   3.838  0.00  0.00    +0.173 C 
ATOM      3  C   UNL     1     -34.967  25.078   4.838  0.00  0.00    +0.169 C 
ATOM      4  C   UNL     1     -37.077  25.902   3.727  0.00  0.00    +0.210 C 
ATOM      5  C   UNL     1     -35.464  23.659   4.556  0.00  0.00    +0.177 C 
ATOM      6  C   UNL     1     -37.462  24.436   3.536  0.00  0.00    +0.318 C 
ENDROOT
BRANCH   2   7
ATOM      7  O   UNL     1     -35.261  27.390   4.293  0.00  0.00    -0.379 OA
ATOM      8  H   UNL     1     -35.756  28.035   3.764  0.00  0.00    +0.211 HD
ENDBRANCH   2   7
BRANCH   3   9
ATOM      9  O   UNL     1     -33.546  25.108   4.743  0.00  0.00    -0.379 OA
ATOM     10  H   UNL     1     -33.203  24.200   4.738  0.00  0.00    +0.211 HD
ENDBRANCH   3   9
BRANCH   4  11
ATOM     11  O   UNL     1     -37.554  26.640   2.601  0.00  0.00    -0.377 OA
ATOM     12  H   UNL     1     -38.433  26.316   2.352  0.00  0.00    +0.211 HD
ENDBRANCH   4  11
BRANCH   6  13
ATOM     13  O   UNL     1     -38.886  24.345   3.585  0.00  0.00    -0.450 OA
BRANCH  13  14
ATOM     14  C   UNL     1     -39.503  23.805   2.489  0.00  0.00    +0.148 C 
ATOM     15  C   UNL     1     -40.418  24.565   1.767  0.00  0.00    +0.077 C 
ATOM     16  C   UNL     1     -39.210  22.500   2.106  0.00  0.00    +0.077 C 
ATOM     17  C   UNL     1     -39.839  21.950   0.988  0.00  0.00    +0.178 C 
ATOM     18  C   UNL     1     -41.047  24.015   0.650  0.00  0.00    +0.178 C 
ATOM     19  C   UNL     1     -40.757  22.706   0.261  0.00  0.00    +0.203 C 
BRANCH  17  20
ATOM     20  O   UNL     1     -39.548  20.671   0.619  0.00  0.00    -0.468 OA
ATOM     21  C   UNL     1     -38.290  20.450  -0.017  0.00  0.00    +0.253 C 
ENDBRANCH  17  20
BRANCH  18  22
ATOM     22  O   UNL     1     -41.941  24.765  -0.051  0.00  0.00    -0.468 OA
ATOM     23  C   UNL     1     -43.171  25.083   0.598  0.00  0.00    +0.253 C 
ENDBRANCH  18  22
BRANCH  19  24
ATOM     24  O   UNL     1     -41.372  22.169  -0.830  0.00  0.00    -0.501 OA
ATOM     25  H   UNL     1     -42.208  21.755  -0.740  0.00  0.00    +0.292 HD
ENDBRANCH  19  24
ENDBRANCH  13  14
ENDBRANCH   6  13
BRANCH   5  26
ATOM     26  C   UNL     1     -34.979  22.670   5.611  0.00  0.00    +0.169 C 
BRANCH  26  27
ATOM     27  O   UNL     1     -36.102  22.001   6.154  0.00  0.00    -0.379 OA
ATOM     28  H   UNL     1     -35.902  21.716   7.060  0.00  0.00    +0.211 HD
ENDBRANCH  26  27
ENDBRANCH   5  26
TORSDOF 10
ENDMDL
MODEL 7
REMARK VINA RESULT:      -5.4      2.036      3.087
REMARK  Name = 5318820
REMARK  10 active torsions:
REMARK  status: ('A' for Active; 'I' for Inactive)
REMARK    1  A    between atoms: C_2  and  O_7
REMARK    2  A    between atoms: C_3  and  O_9
REMARK    3  A    between atoms: C_4  and  O_11
REMARK    4  A    between atoms: C_5  and  C_26
REMARK    5  A    between atoms: C_6  and  O_13
REMARK    6  A    between atoms: O_13  and  C_14
REMARK    7  A    between atoms: C_17  and  O_20
REMARK    8  A    between atoms: C_18  and  O_22
REMARK    9  A    between atoms: C_19  and  O_24
REMARK   10  A    between atoms: C_26  and  O_27
REMARK                            x       y       z     vdW  Elec       q    Type
REMARK                         _______ _______ _______ _____ _____    ______ ____
ROOT
ATOM      1  O   UNL     1     -30.925  27.692   6.274  0.00  0.00    -0.316 OA
ATOM      2  C   UNL     1     -30.811  30.231   4.936  0.00  0.00    +0.173 C 
ATOM      3  C   UNL     1     -29.678  29.722   5.828  0.00  0.00    +0.169 C 
ATOM      4  C   UNL     1     -32.135  29.547   5.279  0.00  0.00    +0.210 C 
ATOM      5  C   UNL     1     -29.654  28.193   5.856  0.00  0.00    +0.177 C 
ATOM      6  C   UNL     1     -31.971  28.030   5.366  0.00  0.00    +0.318 C 
ENDROOT
BRANCH   2   7
ATOM      7  O   UNL     1     -30.936  31.638   5.139  0.00  0.00    -0.379 OA
ATOM      8  H   UNL     1     -30.754  31.849   6.068  0.00  0.00    +0.211 HD
ENDBRANCH   2   7
BRANCH   3   9
ATOM      9  O   UNL     1     -28.434  30.205   5.330  0.00  0.00    -0.379 OA
ATOM     10  H   UNL     1     -27.773  29.495   5.365  0.00  0.00    +0.211 HD
ENDBRANCH   3   9
BRANCH   4  11
ATOM     11  O   UNL     1     -33.095  29.835   4.262  0.00  0.00    -0.377 OA
ATOM     12  H   UNL     1     -33.122  29.102   3.627  0.00  0.00    +0.211 HD
ENDBRANCH   4  11
BRANCH   6  13
ATOM     13  O   UNL     1     -33.205  27.481   5.828  0.00  0.00    -0.450 OA
BRANCH  13  14
ATOM     14  C   UNL     1     -33.736  26.459   5.087  0.00  0.00    +0.148 C 
ATOM     15  C   UNL     1     -33.437  26.361   3.732  0.00  0.00    +0.077 C 
ATOM     16  C   UNL     1     -34.570  25.528   5.695  0.00  0.00    +0.077 C 
ATOM     17  C   UNL     1     -35.111  24.486   4.940  0.00  0.00    +0.178 C 
ATOM     18  C   UNL     1     -33.977  25.321   2.977  0.00  0.00    +0.178 C 
ATOM     19  C   UNL     1     -34.815  24.383   3.582  0.00  0.00    +0.203 C 
BRANCH  17  20
ATOM     20  O   UNL     1     -35.928  23.577   5.543  0.00  0.00    -0.468 OA
ATOM     21  C   UNL     1     -35.301  22.472   6.192  0.00  0.00    +0.253 C 
ENDBRANCH  17  20
BRANCH  18  22
ATOM     22  O   UNL     1     -33.679  25.231   1.651  0.00  0.00    -0.468 OA
ATOM     23  C   UNL     1     -32.343  25.546   1.264  0.00  0.00    +0.253 C 
ENDBRANCH  18  22
BRANCH  19  24
ATOM     24  O   UNL     1     -35.343  23.366   2.844  0.00  0.00    -0.501 OA
ATOM     25  H   UNL     1     -36.263  23.190   2.879  0.00  0.00    +0.292 HD
ENDBRANCH  19  24
ENDBRANCH  13  14
ENDBRANCH   6  13
BRANCH   5  26
ATOM     26  C   UNL     1     -28.608  27.662   6.830  0.00  0.00    +0.169 C 
BRANCH  26  27
ATOM     27  O   UNL     1     -28.466  28.590   7.890  0.00  0.00    -0.379 OA
ATOM     28  H   UNL     1     -27.549  28.906   7.923  0.00  0.00    +0.211 HD
ENDBRANCH  26  27
ENDBRANCH   5  26
TORSDOF 10
ENDMDL
MODEL 8
REMARK VINA RESULT:      -5.3      1.820      3.495
REMARK  Name = 5318820
REMARK  10 active torsions:
REMARK  status: ('A' for Active; 'I' for Inactive)
REMARK    1  A    between atoms: C_2  and  O_7
REMARK    2  A    between atoms: C_3  and  O_9
REMARK    3  A    between atoms: C_4  and  O_11
REMARK    4  A    between atoms: C_5  and  C_26
REMARK    5  A    between atoms: C_6  and  O_13
REMARK    6  A    between atoms: O_13  and  C_14
REMARK    7  A    between atoms: C_17  and  O_20
REMARK    8  A    between atoms: C_18  and  O_22
REMARK    9  A    between atoms: C_19  and  O_24
REMARK   10  A    between atoms: C_26  and  O_27
REMARK                            x       y       z     vdW  Elec       q    Type
REMARK                         _______ _______ _______ _____ _____    ______ ____
ROOT
ATOM      1  O   UNL     1     -32.197  26.743   3.675  0.00  0.00    -0.316 OA
ATOM      2  C   UNL     1     -30.802  29.117   4.495  0.00  0.00    +0.173 C 
ATOM      3  C   UNL     1     -30.306  28.227   3.355  0.00  0.00    +0.169 C 
ATOM      4  C   UNL     1     -31.725  28.345   5.438  0.00  0.00    +0.210 C 
ATOM      5  C   UNL     1     -31.473  27.490   2.695  0.00  0.00    +0.177 C 
ATOM      6  C   UNL     1     -32.796  27.578   4.663  0.00  0.00    +0.318 C 
ENDROOT
BRANCH   2   7
ATOM      7  O   UNL     1     -29.663  29.583   5.219  0.00  0.00    -0.379 OA
ATOM      8  H   UNL     1     -29.504  30.516   5.008  0.00  0.00    +0.211 HD
ENDBRANCH   2   7
BRANCH   3   9
ATOM      9  O   UNL     1     -29.646  29.031   2.383  0.00  0.00    -0.379 OA
ATOM     10  H   UNL     1     -30.095  29.888   2.312  0.00  0.00    +0.211 HD
ENDBRANCH   3   9
BRANCH   4  11
ATOM     11  O   UNL     1     -32.379  29.262   6.316  0.00  0.00    -0.377 OA
ATOM     12  H   UNL     1     -32.673  28.792   7.113  0.00  0.00    +0.211 HD
ENDBRANCH   4  11
BRANCH   6  13
ATOM     13  O   UNL     1     -33.522  26.776   5.595  0.00  0.00    -0.450 OA
BRANCH  13  14
ATOM     14  C   UNL     1     -34.582  26.067   5.098  0.00  0.00    +0.148 C 
ATOM     15  C   UNL     1     -34.837  24.783   5.567  0.00  0.00    +0.077 C 
ATOM     16  C   UNL     1     -35.397  26.638   4.125  0.00  0.00    +0.077 C 
ATOM     17  C   UNL     1     -36.478  25.916   3.618  0.00  0.00    +0.178 C 
ATOM     18  C   UNL     1     -35.916  24.061   5.060  0.00  0.00    +0.178 C 
ATOM     19  C   UNL     1     -36.738  24.628   4.085  0.00  0.00    +0.203 C 
BRANCH  17  20
ATOM     20  O   UNL     1     -37.272  26.481   2.666  0.00  0.00    -0.468 OA
ATOM     21  C   UNL     1     -36.634  27.320   1.704  0.00  0.00    +0.253 C 
ENDBRANCH  17  20
BRANCH  18  22
ATOM     22  O   UNL     1     -36.159  22.804   5.526  0.00  0.00    -0.468 OA
ATOM     23  C   UNL     1     -35.161  22.217   6.357  0.00  0.00    +0.253 C 
ENDBRANCH  18  22
BRANCH  19  24
ATOM     24  O   UNL     1     -37.793  23.923   3.589  0.00  0.00    -0.501 OA
ATOM     25  H   UNL     1     -38.117  23.176   4.054  0.00  0.00    +0.292 HD
ENDBRANCH  19  24
ENDBRANCH  13  14
ENDBRANCH   6  13
BRANCH   5  26
ATOM     26  C   UNL     1     -30.992  26.507   1.632  0.00  0.00    +0.169 C 
BRANCH  26  27
ATOM     27  O   UNL     1     -29.639  26.183   1.896  0.00  0.00    -0.379 OA
ATOM     28  H   UNL     1     -29.062  26.841   1.478  0.00  0.00    +0.211 HD
ENDBRANCH  26  27
ENDBRANCH   5  26
TORSDOF 10
ENDMDL
MODEL 9
REMARK VINA RESULT:      -5.3      5.858      9.199
REMARK  Name = 5318820
REMARK  10 active torsions:
REMARK  status: ('A' for Active; 'I' for Inactive)
REMARK    1  A    between atoms: C_2  and  O_7
REMARK    2  A    between atoms: C_3  and  O_9
REMARK    3  A    between atoms: C_4  and  O_11
REMARK    4  A    between atoms: C_5  and  C_26
REMARK    5  A    between atoms: C_6  and  O_13
REMARK    6  A    between atoms: O_13  and  C_14
REMARK    7  A    between atoms: C_17  and  O_20
REMARK    8  A    between atoms: C_18  and  O_22
REMARK    9  A    between atoms: C_19  and  O_24
REMARK   10  A    between atoms: C_26  and  O_27
REMARK                            x       y       z     vdW  Elec       q    Type
REMARK                         _______ _______ _______ _____ _____    ______ ____
ROOT
ATOM      1  O   UNL     1     -35.086  20.880   3.657  0.00  0.00    -0.316 OA
ATOM      2  C   UNL     1     -36.909  22.795   2.534  0.00  0.00    +0.173 C 
ATOM      3  C   UNL     1     -36.642  22.700   4.037  0.00  0.00    +0.169 C 
ATOM      4  C   UNL     1     -36.563  21.484   1.826  0.00  0.00    +0.210 C 
ATOM      5  C   UNL     1     -35.242  22.144   4.305  0.00  0.00    +0.177 C 
ATOM      6  C   UNL     1     -35.181  20.979   2.238  0.00  0.00    +0.318 C 
ENDROOT
BRANCH   2   7
ATOM      7  O   UNL     1     -38.295  23.084   2.349  0.00  0.00    -0.379 OA
ATOM      8  H   UNL     1     -38.736  22.316   1.953  0.00  0.00    +0.211 HD
ENDBRANCH   2   7
BRANCH   3   9
ATOM      9  O   UNL     1     -36.755  23.995   4.617  0.00  0.00    -0.379 OA
ATOM     10  H   UNL     1     -36.262  24.020   5.453  0.00  0.00    +0.211 HD
ENDBRANCH   3   9
BRANCH   4  11
ATOM     11  O   UNL     1     -36.560  21.695   0.414  0.00  0.00    -0.377 OA
ATOM     12  H   UNL     1     -36.370  20.857  -0.036  0.00  0.00    +0.211 HD
ENDBRANCH   4  11
BRANCH   6  13
ATOM     13  O   UNL     1     -34.992  19.691   1.652  0.00  0.00    -0.450 OA
BRANCH  13  14
ATOM     14  C   UNL     1     -33.755  19.432   1.126  0.00  0.00    +0.148 C 
ATOM     15  C   UNL     1     -33.230  18.146   1.195  0.00  0.00    +0.077 C 
ATOM     16  C   UNL     1     -33.032  20.459   0.528  0.00  0.00    +0.077 C 
ATOM     17  C   UNL     1     -31.771  20.196  -0.008  0.00  0.00    +0.178 C 
ATOM     18  C   UNL     1     -31.969  17.882   0.660  0.00  0.00    +0.178 C 
ATOM     19  C   UNL     1     -31.240  18.908   0.058  0.00  0.00    +0.203 C 
BRANCH  17  20
ATOM     20  O   UNL     1     -31.068  21.206  -0.593  0.00  0.00    -0.468 OA
ATOM     21  C   UNL     1     -31.780  22.408  -0.882  0.00  0.00    +0.253 C 
ENDBRANCH  17  20
BRANCH  18  22
ATOM     22  O   UNL     1     -31.463  16.621   0.732  0.00  0.00    -0.468 OA
ATOM     23  C   UNL     1     -32.043  15.639  -0.125  0.00  0.00    +0.253 C 
ENDBRANCH  18  22
BRANCH  19  24
ATOM     24  O   UNL     1     -30.007  18.651  -0.465  0.00  0.00    -0.501 OA
ATOM     25  H   UNL     1     -29.291  18.447   0.104  0.00  0.00    +0.292 HD
ENDBRANCH  19  24
ENDBRANCH  13  14
ENDBRANCH   6  13
BRANCH   5  26
ATOM     26  C   UNL     1     -34.996  21.930   5.795  0.00  0.00    +0.169 C 
BRANCH  26  27
ATOM     27  O   UNL     1     -36.247  21.867   6.455  0.00  0.00    -0.379 OA
ATOM     28  H   UNL     1     -36.164  22.252   7.342  0.00  0.00    +0.211 HD
ENDBRANCH  26  27
ENDBRANCH   5  26
TORSDOF 10
ENDMDL
