MODEL 1
REMARK VINA RESULT:      -5.9      0.000      0.000
REMARK  Name = 5773
REMARK  6 active torsions:
REMARK  status: ('A' for Active; 'I' for Inactive)
REMARK    1  A    between atoms: CA_5  and  N_11
REMARK    2  A    between atoms: CA_7  and  C_22
REMARK    3  A    between atoms: C_8  and  C_23
REMARK    4  A    between atoms: C_12  and  C_14
REMARK    5  A    between atoms: C_14  and  C_16
REMARK    6  A    between atoms: C_23  and  N_24
REMARK                            x       y       z     vdW  Elec       q    Type
REMARK                         _______ _______ _______ _____ _____    ______ ____
ROOT
ATOM      1  S   UNL     1     -32.225  28.769   4.922  0.00  0.00    -0.114 S 
ATOM      2  O   UNL     1     -31.988  25.346   1.783  0.00  0.00    -0.273 OA
ATOM      3  N   UNL     1     -31.397  27.375   2.823  0.00  0.00    -0.242 N 
ATOM      4  C   UNL     1     -32.446  28.305   3.190  0.00  0.00    +0.155 C 
ATOM      5  CA  UNL     1     -33.434  27.150   2.905  0.00  0.00    +0.178 C 
ATOM      6  C   UNL     1     -32.193  26.398   2.341  0.00  0.00    +0.251 C 
ATOM      7  CA  UNL     1     -30.072  27.607   3.001  0.00  0.00    +0.129 C 
ATOM      8  C   UNL     1     -29.639  28.609   3.800  0.00  0.00    +0.007 C 
ATOM      9  C   UNL     1     -30.571  29.486   4.633  0.00  0.00    +0.084 C 
ENDROOT
BRANCH   5  11
ATOM     10  O   UNL     1     -36.237  26.539   3.227  0.00  0.00    -0.275 OA
ATOM     11  N   UNL     1     -34.064  26.474   4.037  0.00  0.00    -0.296 N 
ATOM     12  C   UNL     1     -35.433  26.222   4.102  0.00  0.00    +0.228 C 
ATOM     13  H   UNL     1     -33.496  26.182   4.787  0.00  0.00    +0.150 HD
BRANCH  12  14
ATOM     14  C   UNL     1     -35.859  25.494   5.361  0.00  0.00    +0.118 C 
BRANCH  14  16
ATOM     15  S   UNL     1     -36.007  23.336   3.648  0.00  0.00    -0.090 S 
ATOM     16  C   UNL     1     -35.658  24.017   5.166  0.00  0.00    +0.016 C 
ATOM     17  C   UNL     1     -35.215  23.109   6.081  0.00  0.00    +0.003 C 
ATOM     18  C   UNL     1     -35.157  21.799   5.522  0.00  0.00    +0.007 C 
ATOM     19  C   UNL     1     -35.560  21.780   4.206  0.00  0.00    +0.035 C 
ENDBRANCH  14  16
ENDBRANCH  12  14
ENDBRANCH   5  11
BRANCH   7  22
ATOM     20  O   UNL     1     -28.722  25.688   2.988  0.00  0.00    -0.239 OA
ATOM     21  OXT UNL     1     -28.741  27.049   1.150  0.00  0.00    -0.239 OA
ATOM     22  C   UNL     1     -29.074  26.686   2.307  0.00  0.00    +0.401 C 
ENDBRANCH   7  22
BRANCH   8  23
ATOM     23  C   UNL     1     -28.187  28.957   4.039  0.00  0.00    +0.116 C 
BRANCH  23  24
ATOM     24  N   UNL     1     -27.812  28.611   5.419  0.00  0.00    -0.299 N 
ATOM     25  C   UNL     1     -27.363  29.582   6.216  0.00  0.00    +0.118 C 
ATOM     26  C   UNL     1     -27.939  27.341   5.812  0.00  0.00    +0.062 C 
ATOM     27  C   UNL     1     -27.003  29.285   7.523  0.00  0.00    -0.005 C 
ATOM     28  C   UNL     1     -27.593  26.988   7.109  0.00  0.00    +0.016 C 
ATOM     29  C   UNL     1     -27.121  27.973   7.970  0.00  0.00    -0.002 C 
ENDBRANCH  23  24
ENDBRANCH   8  23
TORSDOF 6
ENDMDL
MODEL 2
REMARK VINA RESULT:      -5.7      3.148      8.892
REMARK  Name = 5773
REMARK  6 active torsions:
REMARK  status: ('A' for Active; 'I' for Inactive)
REMARK    1  A    between atoms: CA_5  and  N_11
REMARK    2  A    between atoms: CA_7  and  C_22
REMARK    3  A    between atoms: C_8  and  C_23
REMARK    4  A    between atoms: C_12  and  C_14
REMARK    5  A    between atoms: C_14  and  C_16
REMARK    6  A    between atoms: C_23  and  N_24
REMARK                            x       y       z     vdW  Elec       q    Type
REMARK                         _______ _______ _______ _____ _____    ______ ____
ROOT
ATOM      1  S   UNL     1     -33.906  25.530   1.668  0.00  0.00    -0.114 S 
ATOM      2  O   UNL     1     -34.082  25.883   6.302  0.00  0.00    -0.273 OA
ATOM      3  N   UNL     1     -34.738  25.159   4.159  0.00  0.00    -0.242 N 
ATOM      4  C   UNL     1     -34.841  26.134   3.092  0.00  0.00    +0.155 C 
ATOM      5  CA  UNL     1     -34.102  27.105   4.041  0.00  0.00    +0.178 C 
ATOM      6  C   UNL     1     -34.299  25.999   5.119  0.00  0.00    +0.251 C 
ATOM      7  CA  UNL     1     -35.036  23.841   4.024  0.00  0.00    +0.129 C 
ATOM      8  C   UNL     1     -35.180  23.280   2.802  0.00  0.00    +0.007 C 
ATOM      9  C   UNL     1     -34.928  24.028   1.494  0.00  0.00    +0.084 C 
ENDROOT
BRANCH   5  11
ATOM     10  O   UNL     1     -32.548  29.262   5.167  0.00  0.00    -0.275 OA
ATOM     11  N   UNL     1     -32.699  27.415   3.771  0.00  0.00    -0.296 N 
ATOM     12  C   UNL     1     -32.032  28.484   4.367  0.00  0.00    +0.228 C 
ATOM     13  H   UNL     1     -32.203  26.843   3.141  0.00  0.00    +0.150 HD
BRANCH  12  14
ATOM     14  C   UNL     1     -30.580  28.603   3.952  0.00  0.00    +0.118 C 
BRANCH  14  16
ATOM     15  S   UNL     1     -29.048  30.478   5.274  0.00  0.00    -0.090 S 
ATOM     16  C   UNL     1     -29.749  28.934   5.160  0.00  0.00    +0.016 C 
ATOM     17  C   UNL     1     -29.467  28.129   6.223  0.00  0.00    +0.003 C 
ATOM     18  C   UNL     1     -28.644  28.798   7.174  0.00  0.00    +0.007 C 
ATOM     19  C   UNL     1     -28.342  30.083   6.783  0.00  0.00    +0.035 C 
ENDBRANCH  14  16
ENDBRANCH  12  14
ENDBRANCH   5  11
BRANCH   7  22
ATOM     20  O   UNL     1     -36.312  23.019   5.813  0.00  0.00    -0.239 OA
ATOM     21  OXT UNL     1     -34.121  22.388   5.624  0.00  0.00    -0.239 OA
ATOM     22  C   UNL     1     -35.170  22.995   5.285  0.00  0.00    +0.401 C 
ENDBRANCH   7  22
BRANCH   8  23
ATOM     23  C   UNL     1     -35.534  21.831   2.555  0.00  0.00    +0.116 C 
BRANCH  23  24
ATOM     24  N   UNL     1     -36.902  21.735   2.020  0.00  0.00    -0.299 N 
ATOM     25  C   UNL     1     -37.869  22.427   2.625  0.00  0.00    +0.118 C 
ATOM     26  C   UNL     1     -37.113  20.961   0.953  0.00  0.00    +0.062 C 
ATOM     27  C   UNL     1     -39.168  22.357   2.142  0.00  0.00    -0.005 C 
ATOM     28  C   UNL     1     -38.393  20.853   0.428  0.00  0.00    +0.016 C 
ATOM     29  C   UNL     1     -39.428  21.560   1.031  0.00  0.00    -0.002 C 
ENDBRANCH  23  24
ENDBRANCH   8  23
TORSDOF 6
ENDMDL
MODEL 3
REMARK VINA RESULT:      -5.6      3.554      5.125
REMARK  Name = 5773
REMARK  6 active torsions:
REMARK  status: ('A' for Active; 'I' for Inactive)
REMARK    1  A    between atoms: CA_5  and  N_11
REMARK    2  A    between atoms: CA_7  and  C_22
REMARK    3  A    between atoms: C_8  and  C_23
REMARK    4  A    between atoms: C_12  and  C_14
REMARK    5  A    between atoms: C_14  and  C_16
REMARK    6  A    between atoms: C_23  and  N_24
REMARK                            x       y       z     vdW  Elec       q    Type
REMARK                         _______ _______ _______ _____ _____    ______ ____
ROOT
ATOM      1  S   UNL     1     -35.010  24.310   4.633  0.00  0.00    -0.114 S 
ATOM      2  O   UNL     1     -37.930  26.700   1.914  0.00  0.00    -0.273 OA
ATOM      3  N   UNL     1     -36.129  26.373   3.397  0.00  0.00    -0.242 N 
ATOM      4  C   UNL     1     -36.329  25.544   4.568  0.00  0.00    +0.155 C 
ATOM      5  CA  UNL     1     -37.655  25.103   3.908  0.00  0.00    +0.178 C 
ATOM      6  C   UNL     1     -37.358  26.218   2.863  0.00  0.00    +0.251 C 
ATOM      7  CA  UNL     1     -34.971  27.020   3.105  0.00  0.00    +0.129 C 
ATOM      8  C   UNL     1     -33.819  26.710   3.741  0.00  0.00    +0.007 C 
ATOM      9  C   UNL     1     -33.691  25.567   4.746  0.00  0.00    +0.084 C 
ENDROOT
BRANCH   5  11
ATOM     10  O   UNL     1     -39.871  23.970   2.444  0.00  0.00    -0.275 OA
ATOM     11  N   UNL     1     -37.736  23.764   3.328  0.00  0.00    -0.296 N 
ATOM     12  C   UNL     1     -38.854  23.305   2.635  0.00  0.00    +0.228 C 
ATOM     13  H   UNL     1     -36.965  23.159   3.431  0.00  0.00    +0.150 HD
BRANCH  12  14
ATOM     14  C   UNL     1     -38.707  21.892   2.108  0.00  0.00    +0.118 C 
BRANCH  14  16
ATOM     15  S   UNL     1     -36.729  22.471   0.273  0.00  0.00    -0.090 S 
ATOM     16  C   UNL     1     -37.285  21.677   1.669  0.00  0.00    +0.016 C 
ATOM     17  C   UNL     1     -36.339  20.897   2.264  0.00  0.00    +0.003 C 
ATOM     18  C   UNL     1     -35.106  20.947   1.553  0.00  0.00    +0.007 C 
ATOM     19  C   UNL     1     -35.178  21.767   0.449  0.00  0.00    +0.035 C 
ENDBRANCH  14  16
ENDBRANCH  12  14
ENDBRANCH   5  11
BRANCH   7  22
ATOM     20  O   UNL     1     -34.646  27.673   0.875  0.00  0.00    -0.239 OA
ATOM     21  OXT UNL     1     -35.348  29.227   2.400  0.00  0.00    -0.239 OA
ATOM     22  C   UNL     1     -34.990  28.084   2.014  0.00  0.00    +0.401 C 
ENDBRANCH   7  22
BRANCH   8  23
ATOM     23  C   UNL     1     -32.491  27.390   3.501  0.00  0.00    +0.116 C 
BRANCH  23  24
ATOM     24  N   UNL     1     -32.293  28.463   4.488  0.00  0.00    -0.299 N 
ATOM     25  C   UNL     1     -31.988  28.124   5.741  0.00  0.00    +0.118 C 
ATOM     26  C   UNL     1     -32.427  29.729   4.084  0.00  0.00    +0.062 C 
ATOM     27  C   UNL     1     -31.795  29.115   6.693  0.00  0.00    -0.005 C 
ATOM     28  C   UNL     1     -32.245  30.761   4.994  0.00  0.00    +0.016 C 
ATOM     29  C   UNL     1     -31.926  30.447   6.311  0.00  0.00    -0.002 C 
ENDBRANCH  23  24
ENDBRANCH   8  23
TORSDOF 6
ENDMDL
MODEL 4
REMARK VINA RESULT:      -5.6      4.120      8.398
REMARK  Name = 5773
REMARK  6 active torsions:
REMARK  status: ('A' for Active; 'I' for Inactive)
REMARK    1  A    between atoms: CA_5  and  N_11
REMARK    2  A    between atoms: CA_7  and  C_22
REMARK    3  A    between atoms: C_8  and  C_23
REMARK    4  A    between atoms: C_12  and  C_14
REMARK    5  A    between atoms: C_14  and  C_16
REMARK    6  A    between atoms: C_23  and  N_24
REMARK                            x       y       z     vdW  Elec       q    Type
REMARK                         _______ _______ _______ _____ _____    ______ ____
ROOT
ATOM      1  S   UNL     1     -33.673  24.357   1.093  0.00  0.00    -0.114 S 
ATOM      2  O   UNL     1     -37.046  23.136   4.053  0.00  0.00    -0.273 OA
ATOM      3  N   UNL     1     -35.903  23.241   1.995  0.00  0.00    -0.242 N 
ATOM      4  C   UNL     1     -35.418  24.525   1.529  0.00  0.00    +0.155 C 
ATOM      5  CA  UNL     1     -35.727  25.047   2.951  0.00  0.00    +0.178 C 
ATOM      6  C   UNL     1     -36.407  23.664   3.174  0.00  0.00    +0.251 C 
ATOM      7  CA  UNL     1     -35.781  22.079   1.304  0.00  0.00    +0.129 C 
ATOM      8  C   UNL     1     -34.941  21.979   0.249  0.00  0.00    +0.007 C 
ATOM      9  C   UNL     1     -34.001  23.100  -0.190  0.00  0.00    +0.084 C 
ENDROOT
BRANCH   5  11
ATOM     10  O   UNL     1     -35.736  26.749   5.283  0.00  0.00    -0.275 OA
ATOM     11  N   UNL     1     -34.611  25.304   3.859  0.00  0.00    -0.296 N 
ATOM     12  C   UNL     1     -34.713  26.146   4.965  0.00  0.00    +0.228 C 
ATOM     13  H   UNL     1     -33.749  24.861   3.683  0.00  0.00    +0.150 HD
BRANCH  12  14
ATOM     14  C   UNL     1     -33.435  26.248   5.773  0.00  0.00    +0.118 C 
BRANCH  14  16
ATOM     15  S   UNL     1     -32.770  28.153   3.891  0.00  0.00    -0.090 S 
ATOM     16  C   UNL     1     -32.778  27.569   5.488  0.00  0.00    +0.016 C 
ATOM     17  C   UNL     1     -32.158  28.400   6.373  0.00  0.00    +0.003 C 
ATOM     18  C   UNL     1     -31.655  29.564   5.725  0.00  0.00    +0.007 C 
ATOM     19  C   UNL     1     -31.919  29.558   4.373  0.00  0.00    +0.035 C 
ENDBRANCH  14  16
ENDBRANCH  12  14
ENDBRANCH   5  11
BRANCH   7  22
ATOM     20  O   UNL     1     -36.039  20.189   2.670  0.00  0.00    -0.239 OA
ATOM     21  OXT UNL     1     -37.694  20.724   1.184  0.00  0.00    -0.239 OA
ATOM     22  C   UNL     1     -36.589  20.872   1.767  0.00  0.00    +0.401 C 
ENDBRANCH   7  22
BRANCH   8  23
ATOM     23  C   UNL     1     -34.758  20.737  -0.593  0.00  0.00    +0.116 C 
BRANCH  23  24
ATOM     24  N   UNL     1     -33.642  19.936  -0.065  0.00  0.00    -0.299 N 
ATOM     25  C   UNL     1     -32.397  20.359  -0.288  0.00  0.00    +0.118 C 
ATOM     26  C   UNL     1     -33.927  18.823   0.614  0.00  0.00    +0.062 C 
ATOM     27  C   UNL     1     -31.325  19.624   0.200  0.00  0.00    -0.005 C 
ATOM     28  C   UNL     1     -32.894  18.049   1.125  0.00  0.00    +0.016 C 
ATOM     29  C   UNL     1     -31.582  18.458   0.913  0.00  0.00    -0.002 C 
ENDBRANCH  23  24
ENDBRANCH   8  23
TORSDOF 6
ENDMDL
MODEL 5
REMARK VINA RESULT:      -5.6      5.029      8.215
REMARK  Name = 5773
REMARK  6 active torsions:
REMARK  status: ('A' for Active; 'I' for Inactive)
REMARK    1  A    between atoms: CA_5  and  N_11
REMARK    2  A    between atoms: CA_7  and  C_22
REMARK    3  A    between atoms: C_8  and  C_23
REMARK    4  A    between atoms: C_12  and  C_14
REMARK    5  A    between atoms: C_14  and  C_16
REMARK    6  A    between atoms: C_23  and  N_24
REMARK                            x       y       z     vdW  Elec       q    Type
REMARK                         _______ _______ _______ _____ _____    ______ ____
ROOT
ATOM      1  S   UNL     1     -34.168  26.551   1.841  0.00  0.00    -0.114 S 
ATOM      2  O   UNL     1     -38.766  27.179   1.539  0.00  0.00    -0.273 OA
ATOM      3  N   UNL     1     -36.717  26.037   1.321  0.00  0.00    -0.242 N 
ATOM      4  C   UNL     1     -35.588  26.732   0.737  0.00  0.00    +0.155 C 
ATOM      5  CA  UNL     1     -36.425  28.021   0.896  0.00  0.00    +0.178 C 
ATOM      6  C   UNL     1     -37.590  27.065   1.285  0.00  0.00    +0.251 C 
ATOM      7  CA  UNL     1     -36.695  24.740   1.722  0.00  0.00    +0.129 C 
ATOM      8  C   UNL     1     -35.526  24.076   1.872  0.00  0.00    +0.007 C 
ATOM      9  C   UNL     1     -34.156  24.730   1.707  0.00  0.00    +0.084 C 
ENDROOT
BRANCH   5  11
ATOM     10  O   UNL     1     -36.170  30.887   0.658  0.00  0.00    -0.275 OA
ATOM     11  N   UNL     1     -36.064  28.964   1.952  0.00  0.00    -0.296 N 
ATOM     12  C   UNL     1     -35.966  30.338   1.740  0.00  0.00    +0.228 C 
ATOM     13  H   UNL     1     -35.882  28.614   2.854  0.00  0.00    +0.150 HD
BRANCH  12  14
ATOM     14  C   UNL     1     -35.595  31.122   2.982  0.00  0.00    +0.118 C 
BRANCH  14  16
ATOM     15  S   UNL     1     -32.990  30.461   3.610  0.00  0.00    -0.090 S 
ATOM     16  C   UNL     1     -34.141  31.498   2.910  0.00  0.00    +0.016 C 
ATOM     17  C   UNL     1     -33.596  32.607   2.335  0.00  0.00    +0.003 C 
ATOM     18  C   UNL     1     -32.177  32.614   2.469  0.00  0.00    +0.007 C 
ATOM     19  C   UNL     1     -31.716  31.505   3.142  0.00  0.00    +0.035 C 
ENDBRANCH  14  16
ENDBRANCH  12  14
ENDBRANCH   5  11
BRANCH   7  22
ATOM     20  O   UNL     1     -38.386  24.152   3.239  0.00  0.00    -0.239 OA
ATOM     21  OXT UNL     1     -38.566  23.489   1.056  0.00  0.00    -0.239 OA
ATOM     22  C   UNL     1     -38.020  24.056   2.038  0.00  0.00    +0.401 C 
ENDBRANCH   7  22
BRANCH   8  23
ATOM     23  C   UNL     1     -35.404  22.628   2.290  0.00  0.00    +0.116 C 
BRANCH  23  24
ATOM     24  N   UNL     1     -35.331  22.537   3.757  0.00  0.00    -0.299 N 
ATOM     25  C   UNL     1     -35.330  21.327   4.318  0.00  0.00    +0.118 C 
ATOM     26  C   UNL     1     -35.268  23.670   4.461  0.00  0.00    +0.062 C 
ATOM     27  C   UNL     1     -35.261  21.210   5.699  0.00  0.00    -0.005 C 
ATOM     28  C   UNL     1     -35.197  23.613   5.846  0.00  0.00    +0.016 C 
ATOM     29  C   UNL     1     -35.193  22.369   6.467  0.00  0.00    -0.002 C 
ENDBRANCH  23  24
ENDBRANCH   8  23
TORSDOF 6
ENDMDL
MODEL 6
REMARK VINA RESULT:      -5.6      3.332      8.697
REMARK  Name = 5773
REMARK  6 active torsions:
REMARK  status: ('A' for Active; 'I' for Inactive)
REMARK    1  A    between atoms: CA_5  and  N_11
REMARK    2  A    between atoms: CA_7  and  C_22
REMARK    3  A    between atoms: C_8  and  C_23
REMARK    4  A    between atoms: C_12  and  C_14
REMARK    5  A    between atoms: C_14  and  C_16
REMARK    6  A    between atoms: C_23  and  N_24
REMARK                            x       y       z     vdW  Elec       q    Type
REMARK                         _______ _______ _______ _____ _____    ______ ____
ROOT
ATOM      1  S   UNL     1     -34.265  25.881   1.076  0.00  0.00    -0.114 S 
ATOM      2  O   UNL     1     -35.199  26.341   5.609  0.00  0.00    -0.273 OA
ATOM      3  N   UNL     1     -35.340  25.402   3.453  0.00  0.00    -0.242 N 
ATOM      4  C   UNL     1     -35.517  26.283   2.317  0.00  0.00    +0.155 C 
ATOM      5  CA  UNL     1     -35.181  27.440   3.286  0.00  0.00    +0.178 C 
ATOM      6  C   UNL     1     -35.262  26.358   4.402  0.00  0.00    +0.251 C 
ATOM      7  CA  UNL     1     -35.288  24.048   3.372  0.00  0.00    +0.129 C 
ATOM      8  C   UNL     1     -35.111  23.426   2.183  0.00  0.00    +0.007 C 
ATOM      9  C   UNL     1     -34.858  24.167   0.873  0.00  0.00    +0.084 C 
ENDROOT
BRANCH   5  11
ATOM     10  O   UNL     1     -34.611  30.267   3.401  0.00  0.00    -0.275 OA
ATOM     11  N   UNL     1     -33.871  28.079   3.185  0.00  0.00    -0.296 N 
ATOM     12  C   UNL     1     -33.696  29.460   3.253  0.00  0.00    +0.228 C 
ATOM     13  H   UNL     1     -33.077  27.509   3.065  0.00  0.00    +0.150 HD
BRANCH  12  14
ATOM     14  C   UNL     1     -32.249  29.896   3.142  0.00  0.00    +0.118 C 
BRANCH  14  16
ATOM     15  S   UNL     1     -30.188  28.587   4.428  0.00  0.00    -0.090 S 
ATOM     16  C   UNL     1     -31.548  29.608   4.440  0.00  0.00    +0.016 C 
ATOM     17  C   UNL     1     -31.868  30.073   5.681  0.00  0.00    +0.003 C 
ATOM     18  C   UNL     1     -30.967  29.577   6.667  0.00  0.00    +0.007 C 
ATOM     19  C   UNL     1     -30.004  28.757   6.122  0.00  0.00    +0.035 C 
ENDBRANCH  14  16
ENDBRANCH  12  14
ENDBRANCH   5  11
BRANCH   7  22
ATOM     20  O   UNL     1     -36.566  22.872   4.950  0.00  0.00    -0.239 OA
ATOM     21  OXT UNL     1     -34.305  23.048   5.254  0.00  0.00    -0.239 OA
ATOM     22  C   UNL     1     -35.397  23.239   4.659  0.00  0.00    +0.401 C 
ENDBRANCH   7  22
BRANCH   8  23
ATOM     23  C   UNL     1     -35.065  21.927   1.993  0.00  0.00    +0.116 C 
BRANCH  23  24
ATOM     24  N   UNL     1     -36.279  21.475   1.295  0.00  0.00    -0.299 N 
ATOM     25  C   UNL     1     -36.142  20.861   0.118  0.00  0.00    +0.118 C 
ATOM     26  C   UNL     1     -37.463  21.697   1.871  0.00  0.00    +0.062 C 
ATOM     27  C   UNL     1     -37.269  20.423  -0.562  0.00  0.00    -0.005 C 
ATOM     28  C   UNL     1     -38.624  21.280   1.235  0.00  0.00    +0.016 C 
ATOM     29  C   UNL     1     -38.521  20.636   0.006  0.00  0.00    -0.002 C 
ENDBRANCH  23  24
ENDBRANCH   8  23
TORSDOF 6
ENDMDL
MODEL 7
REMARK VINA RESULT:      -5.6      3.137      7.737
REMARK  Name = 5773
REMARK  6 active torsions:
REMARK  status: ('A' for Active; 'I' for Inactive)
REMARK    1  A    between atoms: CA_5  and  N_11
REMARK    2  A    between atoms: CA_7  and  C_22
REMARK    3  A    between atoms: C_8  and  C_23
REMARK    4  A    between atoms: C_12  and  C_14
REMARK    5  A    between atoms: C_14  and  C_16
REMARK    6  A    between atoms: C_23  and  N_24
REMARK                            x       y       z     vdW  Elec       q    Type
REMARK                         _______ _______ _______ _____ _____    ______ ____
ROOT
ATOM      1  S   UNL     1     -33.323  26.634   2.949  0.00  0.00    -0.114 S 
ATOM      2  O   UNL     1     -36.788  29.377   1.500  0.00  0.00    -0.273 OA
ATOM      3  N   UNL     1     -35.515  27.402   1.668  0.00  0.00    -0.242 N 
ATOM      4  C   UNL     1     -34.074  27.486   1.543  0.00  0.00    +0.155 C 
ATOM      5  CA  UNL     1     -34.250  29.016   1.677  0.00  0.00    +0.178 C 
ATOM      6  C   UNL     1     -35.775  28.722   1.565  0.00  0.00    +0.251 C 
ATOM      7  CA  UNL     1     -36.202  26.244   1.838  0.00  0.00    +0.129 C 
ATOM      8  C   UNL     1     -35.570  25.102   2.191  0.00  0.00    +0.007 C 
ATOM      9  C   UNL     1     -34.081  25.029   2.522  0.00  0.00    +0.084 C 
ENDROOT
BRANCH   5  11
ATOM     10  O   UNL     1     -31.814  30.467   2.222  0.00  0.00    -0.275 OA
ATOM     11  N   UNL     1     -33.868  29.656   2.934  0.00  0.00    -0.296 N 
ATOM     12  C   UNL     1     -32.664  30.338   3.101  0.00  0.00    +0.228 C 
ATOM     13  H   UNL     1     -34.489  29.605   3.697  0.00  0.00    +0.150 HD
BRANCH  12  14
ATOM     14  C   UNL     1     -32.489  30.936   4.483  0.00  0.00    +0.118 C 
BRANCH  14  16
ATOM     15  S   UNL     1     -31.554  28.745   5.875  0.00  0.00    -0.090 S 
ATOM     16  C   UNL     1     -31.324  30.271   5.162  0.00  0.00    +0.016 C 
ATOM     17  C   UNL     1     -30.054  30.746   5.291  0.00  0.00    +0.003 C 
ATOM     18  C   UNL     1     -29.228  29.828   6.001  0.00  0.00    +0.007 C 
ATOM     19  C   UNL     1     -29.917  28.697   6.378  0.00  0.00    +0.035 C 
ENDBRANCH  14  16
ENDBRANCH  12  14
ENDBRANCH   5  11
BRANCH   7  22
ATOM     20  O   UNL     1     -38.366  26.490   2.713  0.00  0.00    -0.239 OA
ATOM     21  OXT UNL     1     -38.108  26.059   0.480  0.00  0.00    -0.239 OA
ATOM     22  C   UNL     1     -37.716  26.266   1.658  0.00  0.00    +0.401 C 
ENDBRANCH   7  22
BRANCH   8  23
ATOM     23  C   UNL     1     -36.248  23.764   2.380  0.00  0.00    +0.116 C 
BRANCH  23  24
ATOM     24  N   UNL     1     -35.879  23.197   3.686  0.00  0.00    -0.299 N 
ATOM     25  C   UNL     1     -35.904  23.996   4.754  0.00  0.00    +0.118 C 
ATOM     26  C   UNL     1     -35.538  21.907   3.746  0.00  0.00    +0.062 C 
ATOM     27  C   UNL     1     -35.562  23.488   6.000  0.00  0.00    -0.005 C 
ATOM     28  C   UNL     1     -35.187  21.346   4.965  0.00  0.00    +0.016 C 
ATOM     29  C   UNL     1     -35.201  22.148   6.102  0.00  0.00    -0.002 C 
ENDBRANCH  23  24
ENDBRANCH   8  23
TORSDOF 6
ENDMDL
MODEL 8
REMARK VINA RESULT:      -5.6      4.666      6.921
REMARK  Name = 5773
REMARK  6 active torsions:
REMARK  status: ('A' for Active; 'I' for Inactive)
REMARK    1  A    between atoms: CA_5  and  N_11
REMARK    2  A    between atoms: CA_7  and  C_22
REMARK    3  A    between atoms: C_8  and  C_23
REMARK    4  A    between atoms: C_12  and  C_14
REMARK    5  A    between atoms: C_14  and  C_16
REMARK    6  A    between atoms: C_23  and  N_24
REMARK                            x       y       z     vdW  Elec       q    Type
REMARK                         _______ _______ _______ _____ _____    ______ ____
ROOT
ATOM      1  S   UNL     1     -35.754  23.981   1.051  0.00  0.00    -0.114 S 
ATOM      2  O   UNL     1     -36.064  23.690   5.682  0.00  0.00    -0.273 OA
ATOM      3  N   UNL     1     -35.069  24.186   3.605  0.00  0.00    -0.242 N 
ATOM      4  C   UNL     1     -35.121  23.194   2.550  0.00  0.00    +0.155 C 
ATOM      5  CA  UNL     1     -36.155  22.455   3.429  0.00  0.00    +0.178 C 
ATOM      6  C   UNL     1     -35.782  23.500   4.522  0.00  0.00    +0.251 C 
ATOM      7  CA  UNL     1     -34.444  25.387   3.498  0.00  0.00    +0.129 C 
ATOM      8  C   UNL     1     -34.063  25.871   2.294  0.00  0.00    +0.007 C 
ATOM      9  C   UNL     1     -34.380  25.181   0.969  0.00  0.00    +0.084 C 
ENDROOT
BRANCH   5  11
ATOM     10  O   UNL     1     -37.495  20.697   1.573  0.00  0.00    -0.275 OA
ATOM     11  N   UNL     1     -37.562  22.495   3.038  0.00  0.00    -0.296 N 
ATOM     12  C   UNL     1     -38.121  21.598   2.129  0.00  0.00    +0.228 C 
ATOM     13  H   UNL     1     -38.142  23.186   3.434  0.00  0.00    +0.150 HD
BRANCH  12  14
ATOM     14  C   UNL     1     -39.600  21.818   1.888  0.00  0.00    +0.118 C 
BRANCH  14  16
ATOM     15  S   UNL     1     -39.296  23.337  -0.396  0.00  0.00    -0.090 S 
ATOM     16  C   UNL     1     -39.797  23.149   1.218  0.00  0.00    +0.016 C 
ATOM     17  C   UNL     1     -40.345  24.277   1.752  0.00  0.00    +0.003 C 
ATOM     18  C   UNL     1     -40.359  25.343   0.806  0.00  0.00    +0.007 C 
ATOM     19  C   UNL     1     -39.819  24.967  -0.403  0.00  0.00    +0.035 C 
ENDBRANCH  14  16
ENDBRANCH  12  14
ENDBRANCH   5  11
BRANCH   7  22
ATOM     20  O   UNL     1     -35.196  26.897   5.128  0.00  0.00    -0.239 OA
ATOM     21  OXT UNL     1     -33.072  26.061   5.279  0.00  0.00    -0.239 OA
ATOM     22  C   UNL     1     -34.213  26.200   4.767  0.00  0.00    +0.401 C 
ENDBRANCH   7  22
BRANCH   8  23
ATOM     23  C   UNL     1     -33.342  27.182   2.080  0.00  0.00    +0.116 C 
BRANCH  23  24
ATOM     24  N   UNL     1     -34.317  28.282   2.012  0.00  0.00    -0.299 N 
ATOM     25  C   UNL     1     -35.308  28.197   1.123  0.00  0.00    +0.118 C 
ATOM     26  C   UNL     1     -34.167  29.316   2.844  0.00  0.00    +0.062 C 
ATOM     27  C   UNL     1     -36.243  29.219   1.037  0.00  0.00    -0.005 C 
ATOM     28  C   UNL     1     -35.072  30.366   2.802  0.00  0.00    +0.016 C 
ATOM     29  C   UNL     1     -36.120  30.313   1.888  0.00  0.00    -0.002 C 
ENDBRANCH  23  24
ENDBRANCH   8  23
TORSDOF 6
ENDMDL
MODEL 9
REMARK VINA RESULT:      -5.5      6.464      9.043
REMARK  Name = 5773
REMARK  6 active torsions:
REMARK  status: ('A' for Active; 'I' for Inactive)
REMARK    1  A    between atoms: CA_5  and  N_11
REMARK    2  A    between atoms: CA_7  and  C_22
REMARK    3  A    between atoms: C_8  and  C_23
REMARK    4  A    between atoms: C_12  and  C_14
REMARK    5  A    between atoms: C_14  and  C_16
REMARK    6  A    between atoms: C_23  and  N_24
REMARK                            x       y       z     vdW  Elec       q    Type
REMARK                         _______ _______ _______ _____ _____    ______ ____
ROOT
ATOM      1  S   UNL     1     -35.045  26.134   1.203  0.00  0.00    -0.114 S 
ATOM      2  O   UNL     1     -39.622  26.948   1.333  0.00  0.00    -0.273 OA
ATOM      3  N   UNL     1     -37.654  25.686   1.041  0.00  0.00    -0.242 N 
ATOM      4  C   UNL     1     -36.577  26.244   0.249  0.00  0.00    +0.155 C 
ATOM      5  CA  UNL     1     -37.344  27.583   0.328  0.00  0.00    +0.178 C 
ATOM      6  C   UNL     1     -38.488  26.744   0.967  0.00  0.00    +0.251 C 
ATOM      7  CA  UNL     1     -37.631  24.452   1.606  0.00  0.00    +0.129 C 
ATOM      8  C   UNL     1     -36.477  23.754   1.711  0.00  0.00    +0.007 C 
ATOM      9  C   UNL     1     -35.113  24.313   1.310  0.00  0.00    +0.084 C 
ENDROOT
BRANCH   5  11
ATOM     10  O   UNL     1     -36.540  30.248  -0.437  0.00  0.00    -0.275 OA
ATOM     11  N   UNL     1     -36.829  28.634   1.204  0.00  0.00    -0.296 N 
ATOM     12  C   UNL     1     -36.465  29.896   0.739  0.00  0.00    +0.228 C 
ATOM     13  H   UNL     1     -36.735  28.441   2.165  0.00  0.00    +0.150 HD
BRANCH  12  14
ATOM     14  C   UNL     1     -35.975  30.828   1.828  0.00  0.00    +0.118 C 
BRANCH  14  16
ATOM     15  S   UNL     1     -35.606  33.444   1.030  0.00  0.00    -0.090 S 
ATOM     16  C   UNL     1     -36.585  32.187   1.624  0.00  0.00    +0.016 C 
ATOM     17  C   UNL     1     -37.872  32.566   1.862  0.00  0.00    +0.003 C 
ATOM     18  C   UNL     1     -38.073  33.941   1.546  0.00  0.00    +0.007 C 
ATOM     19  C   UNL     1     -36.922  34.538   1.082  0.00  0.00    +0.035 C 
ENDBRANCH  14  16
ENDBRANCH  12  14
ENDBRANCH   5  11
BRANCH   7  22
ATOM     20  O   UNL     1     -39.555  23.132   1.356  0.00  0.00    -0.239 OA
ATOM     21  OXT UNL     1     -39.207  24.233   3.331  0.00  0.00    -0.239 OA
ATOM     22  C   UNL     1     -38.933  23.880   2.155  0.00  0.00    +0.401 C 
ENDBRANCH   7  22
BRANCH   8  23
ATOM     23  C   UNL     1     -36.358  22.367   2.301  0.00  0.00    +0.116 C 
BRANCH  23  24
ATOM     24  N   UNL     1     -35.927  22.457   3.705  0.00  0.00    -0.299 N 
ATOM     25  C   UNL     1     -35.502  21.347   4.311  0.00  0.00    +0.118 C 
ATOM     26  C   UNL     1     -35.978  23.646   4.310  0.00  0.00    +0.062 C 
ATOM     27  C   UNL     1     -35.087  21.402   5.634  0.00  0.00    -0.005 C 
ATOM     28  C   UNL     1     -35.576  23.760   5.633  0.00  0.00    +0.016 C 
ATOM     29  C   UNL     1     -35.126  22.624   6.298  0.00  0.00    -0.002 C 
ENDBRANCH  23  24
ENDBRANCH   8  23
TORSDOF 6
ENDMDL
