MODEL 1
REMARK VINA RESULT:      -6.0      0.000      0.000
REMARK  Name = 56841102
REMARK  9 active torsions:
REMARK  status: ('A' for Active; 'I' for Inactive)
REMARK    1  A    between atoms: C_4  and  N_11
REMARK    2  A    between atoms: C_4  and  O_20
REMARK    3  A    between atoms: C_8  and  C_23
REMARK    4  A    between atoms: C_9  and  C_26
REMARK    5  A    between atoms: C_12  and  C_14
REMARK    6  A    between atoms: C_14  and  C_16
REMARK    7  A    between atoms: C_23  and  O_24
REMARK    8  A    between atoms: C_26  and  O_27
REMARK    9  A    between atoms: O_27  and  C_30
REMARK                            x       y       z     vdW  Elec       q    Type
REMARK                         _______ _______ _______ _____ _____    ______ ____
ROOT
ATOM      1  O   UNL     1     -34.577  23.939   0.555  0.00  0.00    -0.270 OA
ATOM      2  N   UNL     1     -35.230  23.972   2.817  0.00  0.00    -0.247 N 
ATOM      3  C   UNL     1     -36.118  22.929   3.316  0.00  0.00    +0.132 C 
ATOM      4  C   UNL     1     -35.855  22.210   1.962  0.00  0.00    +0.240 C 
ATOM      5  C   UNL     1     -35.577  22.438   4.641  0.00  0.00    +0.029 C 
ATOM      6  C   UNL     1     -35.115  23.518   1.553  0.00  0.00    +0.274 C 
ATOM      7  C   UNL     1     -35.519  23.646   5.592  0.00  0.00    +0.029 C 
ATOM      8  C   UNL     1     -34.771  24.975   3.608  0.00  0.00    +0.126 C 
ATOM      9  C   UNL     1     -34.921  24.899   4.950  0.00  0.00    +0.019 C 
ENDROOT
BRANCH   4  11
ATOM     10  O   UNL     1     -35.044  20.377  -0.118  0.00  0.00    -0.275 OA
ATOM     11  N   UNL     1     -34.945  21.066   2.095  0.00  0.00    -0.278 N 
ATOM     12  C   UNL     1     -34.615  20.239   1.025  0.00  0.00    +0.229 C 
ATOM     13  H   UNL     1     -34.550  20.877   2.977  0.00  0.00    +0.152 HD
BRANCH  12  14
ATOM     14  C   UNL     1     -33.661  19.134   1.437  0.00  0.00    +0.118 C 
BRANCH  14  16
ATOM     15  S   UNL     1     -31.238  17.901   0.846  0.00  0.00    -0.090 S 
ATOM     16  C   UNL     1     -32.312  19.233   0.774  0.00  0.00    +0.016 C 
ATOM     17  C   UNL     1     -31.775  20.293   0.077  0.00  0.00    +0.003 C 
ATOM     18  C   UNL     1     -30.465  20.008  -0.403  0.00  0.00    +0.007 C 
ATOM     19  C   UNL     1     -30.050  18.742  -0.057  0.00  0.00    +0.035 C 
ENDBRANCH  14  16
ENDBRANCH  12  14
ENDBRANCH   4  11
BRANCH   4  20
ATOM     20  O   UNL     1     -37.011  21.955   1.142  0.00  0.00    -0.330 OA
ATOM     21  C   UNL     1     -37.990  21.102   1.715  0.00  0.00    +0.176 C 
ENDBRANCH   4  20
BRANCH   8  23
ATOM     22  O   UNL     1     -34.625  27.044   2.448  0.00  0.00    -0.244 OA
ATOM     23  C   UNL     1     -34.071  26.088   2.958  0.00  0.00    +0.351 C 
BRANCH  23  24
ATOM     24  O   UNL     1     -32.740  25.880   3.018  0.00  0.00    -0.476 OA
ATOM     25  H   UNL     1     -32.171  26.566   3.307  0.00  0.00    +0.295 HD
ENDBRANCH  23  24
ENDBRANCH   8  23
BRANCH   9  26
ATOM     26  C   UNL     1     -34.531  25.956   5.948  0.00  0.00    +0.234 C 
BRANCH  26  27
ATOM     27  O   UNL     1     -33.131  26.150   5.907  0.00  0.00    -0.430 OA
BRANCH  27  30
ATOM     28  O   UNL     1     -32.505  28.237   5.164  0.00  0.00    -0.227 OA
ATOM     29  N   UNL     1     -32.477  27.718   7.403  0.00  0.00    -0.295 N 
ATOM     30  C   UNL     1     -32.689  27.439   6.076  0.00  0.00    +0.399 C 
ATOM     31  H   UNL     1     -32.645  27.028   8.084  0.00  0.00    +0.148 HD
ATOM     32  H   UNL     1     -32.158  28.609   7.674  0.00  0.00    +0.148 HD
ENDBRANCH  27  30
ENDBRANCH  26  27
ENDBRANCH   9  26
TORSDOF 9
ENDMDL
MODEL 2
REMARK VINA RESULT:      -5.9      1.989      2.322
REMARK  Name = 56841102
REMARK  9 active torsions:
REMARK  status: ('A' for Active; 'I' for Inactive)
REMARK    1  A    between atoms: C_4  and  N_11
REMARK    2  A    between atoms: C_4  and  O_20
REMARK    3  A    between atoms: C_8  and  C_23
REMARK    4  A    between atoms: C_9  and  C_26
REMARK    5  A    between atoms: C_12  and  C_14
REMARK    6  A    between atoms: C_14  and  C_16
REMARK    7  A    between atoms: C_23  and  O_24
REMARK    8  A    between atoms: C_26  and  O_27
REMARK    9  A    between atoms: O_27  and  C_30
REMARK                            x       y       z     vdW  Elec       q    Type
REMARK                         _______ _______ _______ _____ _____    ______ ____
ROOT
ATOM      1  O   UNL     1     -38.026  24.389   0.699  0.00  0.00    -0.270 OA
ATOM      2  N   UNL     1     -37.008  23.618   2.677  0.00  0.00    -0.247 N 
ATOM      3  C   UNL     1     -37.018  22.190   2.972  0.00  0.00    +0.132 C 
ATOM      4  C   UNL     1     -37.525  22.004   1.514  0.00  0.00    +0.240 C 
ATOM      5  C   UNL     1     -35.632  21.790   3.431  0.00  0.00    +0.029 C 
ATOM      6  C   UNL     1     -37.632  23.557   1.484  0.00  0.00    +0.274 C 
ATOM      7  C   UNL     1     -35.297  22.631   4.675  0.00  0.00    +0.029 C 
ATOM      8  C   UNL     1     -36.440  24.527   3.508  0.00  0.00    +0.126 C 
ATOM      9  C   UNL     1     -35.642  24.113   4.520  0.00  0.00    +0.019 C 
ENDROOT
BRANCH   4  11
ATOM     10  O   UNL     1     -36.748  19.248   1.130  0.00  0.00    -0.275 OA
ATOM     11  N   UNL     1     -36.486  21.494   0.612  0.00  0.00    -0.278 N 
ATOM     12  C   UNL     1     -36.186  20.139   0.499  0.00  0.00    +0.229 C 
ATOM     13  H   UNL     1     -35.981  22.136   0.064  0.00  0.00    +0.152 HD
BRANCH  12  14
ATOM     14  C   UNL     1     -35.071  19.887  -0.498  0.00  0.00    +0.118 C 
BRANCH  14  16
ATOM     15  S   UNL     1     -33.707  17.474  -0.737  0.00  0.00    -0.090 S 
ATOM     16  C   UNL     1     -33.992  18.978   0.031  0.00  0.00    +0.016 C 
ATOM     17  C   UNL     1     -33.149  19.181   1.101  0.00  0.00    +0.003 C 
ATOM     18  C   UNL     1     -32.257  18.087   1.293  0.00  0.00    +0.007 C 
ATOM     19  C   UNL     1     -32.452  17.090   0.363  0.00  0.00    +0.035 C 
ENDBRANCH  14  16
ENDBRANCH  12  14
ENDBRANCH   4  11
BRANCH   4  20
ATOM     20  O   UNL     1     -38.806  21.363   1.363  0.00  0.00    -0.330 OA
ATOM     21  C   UNL     1     -39.311  21.310   0.037  0.00  0.00    +0.176 C 
ENDBRANCH   4  20
BRANCH   8  23
ATOM     22  O   UNL     1     -35.913  26.669   2.623  0.00  0.00    -0.244 OA
ATOM     23  C   UNL     1     -36.681  25.948   3.230  0.00  0.00    +0.351 C 
BRANCH  23  24
ATOM     24  O   UNL     1     -37.871  26.312   3.749  0.00  0.00    -0.476 OA
ATOM     25  H   UNL     1     -38.124  27.214   3.753  0.00  0.00    +0.295 HD
ENDBRANCH  23  24
ENDBRANCH   8  23
BRANCH   9  26
ATOM     26  C   UNL     1     -35.002  24.991   5.561  0.00  0.00    +0.234 C 
BRANCH  26  27
ATOM     27  O   UNL     1     -33.750  25.447   5.090  0.00  0.00    -0.430 OA
BRANCH  27  30
ATOM     28  O   UNL     1     -32.939  27.074   6.502  0.00  0.00    -0.227 OA
ATOM     29  N   UNL     1     -33.652  27.593   4.379  0.00  0.00    -0.295 N 
ATOM     30  C   UNL     1     -33.405  26.734   5.420  0.00  0.00    +0.399 C 
ATOM     31  H   UNL     1     -34.028  27.252   3.537  0.00  0.00    +0.148 HD
ATOM     32  H   UNL     1     -33.452  28.553   4.475  0.00  0.00    +0.148 HD
ENDBRANCH  27  30
ENDBRANCH  26  27
ENDBRANCH   9  26
TORSDOF 9
ENDMDL
MODEL 3
REMARK VINA RESULT:      -5.9      3.747      7.986
REMARK  Name = 56841102
REMARK  9 active torsions:
REMARK  status: ('A' for Active; 'I' for Inactive)
REMARK    1  A    between atoms: C_4  and  N_11
REMARK    2  A    between atoms: C_4  and  O_20
REMARK    3  A    between atoms: C_8  and  C_23
REMARK    4  A    between atoms: C_9  and  C_26
REMARK    5  A    between atoms: C_12  and  C_14
REMARK    6  A    between atoms: C_14  and  C_16
REMARK    7  A    between atoms: C_23  and  O_24
REMARK    8  A    between atoms: C_26  and  O_27
REMARK    9  A    between atoms: O_27  and  C_30
REMARK                            x       y       z     vdW  Elec       q    Type
REMARK                         _______ _______ _______ _____ _____    ______ ____
ROOT
ATOM      1  O   UNL     1     -34.385  26.506   5.908  0.00  0.00    -0.270 OA
ATOM      2  N   UNL     1     -34.569  25.620   3.735  0.00  0.00    -0.247 N 
ATOM      3  C   UNL     1     -34.349  26.495   2.589  0.00  0.00    +0.132 C 
ATOM      4  C   UNL     1     -33.817  27.530   3.621  0.00  0.00    +0.240 C 
ATOM      5  C   UNL     1     -33.463  25.770   1.600  0.00  0.00    +0.029 C 
ATOM      6  C   UNL     1     -34.318  26.526   4.701  0.00  0.00    +0.274 C 
ATOM      7  C   UNL     1     -34.183  24.470   1.200  0.00  0.00    +0.029 C 
ATOM      8  C   UNL     1     -34.889  24.309   3.596  0.00  0.00    +0.126 C 
ATOM      9  C   UNL     1     -34.770  23.708   2.390  0.00  0.00    +0.019 C 
ENDROOT
BRANCH   4  11
ATOM     10  O   UNL     1     -32.157  28.951   5.511  0.00  0.00    -0.275 OA
ATOM     11  N   UNL     1     -32.354  27.650   3.600  0.00  0.00    -0.278 N 
ATOM     12  C   UNL     1     -31.644  28.362   4.563  0.00  0.00    +0.229 C 
ATOM     13  H   UNL     1     -31.855  27.208   2.875  0.00  0.00    +0.152 HD
BRANCH  12  14
ATOM     14  C   UNL     1     -30.150  28.330   4.303  0.00  0.00    +0.118 C 
BRANCH  14  16
ATOM     15  S   UNL     1     -28.794  30.312   5.707  0.00  0.00    -0.090 S 
ATOM     16  C   UNL     1     -29.327  28.697   5.510  0.00  0.00    +0.016 C 
ATOM     17  C   UNL     1     -28.910  27.885   6.542  0.00  0.00    +0.003 C 
ATOM     18  C   UNL     1     -28.143  28.600   7.507  0.00  0.00    +0.007 C 
ATOM     19  C   UNL     1     -28.003  29.929   7.177  0.00  0.00    +0.035 C 
ENDBRANCH  14  16
ENDBRANCH  12  14
ENDBRANCH   4  11
BRANCH   4  20
ATOM     20  O   UNL     1     -34.514  28.789   3.677  0.00  0.00    -0.330 OA
ATOM     21  C   UNL     1     -34.218  29.699   2.629  0.00  0.00    +0.176 C 
ENDBRANCH   4  20
BRANCH   8  23
ATOM     22  O   UNL     1     -34.571  22.883   5.470  0.00  0.00    -0.244 OA
ATOM     23  C   UNL     1     -35.307  23.579   4.799  0.00  0.00    +0.351 C 
BRANCH  23  24
ATOM     24  O   UNL     1     -36.616  23.805   5.030  0.00  0.00    -0.476 OA
ATOM     25  H   UNL     1     -37.015  24.598   4.728  0.00  0.00    +0.295 HD
ENDBRANCH  23  24
ENDBRANCH   8  23
BRANCH   9  26
ATOM     26  C   UNL     1     -35.150  22.289   2.063  0.00  0.00    +0.234 C 
BRANCH  26  27
ATOM     27  O   UNL     1     -36.417  22.271   1.437  0.00  0.00    -0.430 OA
BRANCH  27  30
ATOM     28  O   UNL     1     -38.151  22.687   2.892  0.00  0.00    -0.227 OA
ATOM     29  N   UNL     1     -37.700  20.554   2.163  0.00  0.00    -0.295 N 
ATOM     30  C   UNL     1     -37.482  21.908   2.223  0.00  0.00    +0.399 C 
ATOM     31  H   UNL     1     -37.123  19.986   1.603  0.00  0.00    +0.148 HD
ATOM     32  H   UNL     1     -38.436  20.150   2.679  0.00  0.00    +0.148 HD
ENDBRANCH  27  30
ENDBRANCH  26  27
ENDBRANCH   9  26
TORSDOF 9
ENDMDL
MODEL 4
REMARK VINA RESULT:      -5.9      3.345      7.780
REMARK  Name = 56841102
REMARK  9 active torsions:
REMARK  status: ('A' for Active; 'I' for Inactive)
REMARK    1  A    between atoms: C_4  and  N_11
REMARK    2  A    between atoms: C_4  and  O_20
REMARK    3  A    between atoms: C_8  and  C_23
REMARK    4  A    between atoms: C_9  and  C_26
REMARK    5  A    between atoms: C_12  and  C_14
REMARK    6  A    between atoms: C_14  and  C_16
REMARK    7  A    between atoms: C_23  and  O_24
REMARK    8  A    between atoms: C_26  and  O_27
REMARK    9  A    between atoms: O_27  and  C_30
REMARK                            x       y       z     vdW  Elec       q    Type
REMARK                         _______ _______ _______ _____ _____    ______ ____
ROOT
ATOM      1  O   UNL     1     -36.317  23.564   4.595  0.00  0.00    -0.270 OA
ATOM      2  N   UNL     1     -35.562  23.034   2.429  0.00  0.00    -0.247 N 
ATOM      3  C   UNL     1     -35.442  24.098   1.438  0.00  0.00    +0.132 C 
ATOM      4  C   UNL     1     -35.666  25.078   2.624  0.00  0.00    +0.240 C 
ATOM      5  C   UNL     1     -34.116  23.937   0.727  0.00  0.00    +0.029 C 
ATOM      6  C   UNL     1     -35.961  23.800   3.464  0.00  0.00    +0.274 C 
ATOM      7  C   UNL     1     -34.107  22.542   0.077  0.00  0.00    +0.029 C 
ATOM      8  C   UNL     1     -35.264  21.741   2.146  0.00  0.00    +0.126 C 
ATOM      9  C   UNL     1     -34.605  21.433   1.005  0.00  0.00    +0.019 C 
ENDROOT
BRANCH   4  11
ATOM     10  O   UNL     1     -35.315  26.812   4.908  0.00  0.00    -0.275 OA
ATOM     11  N   UNL     1     -34.431  25.753   3.043  0.00  0.00    -0.278 N 
ATOM     12  C   UNL     1     -34.366  26.573   4.166  0.00  0.00    +0.229 C 
ATOM     13  H   UNL     1     -33.616  25.619   2.507  0.00  0.00    +0.152 HD
BRANCH  12  14
ATOM     14  C   UNL     1     -32.976  27.146   4.368  0.00  0.00    +0.118 C 
BRANCH  14  16
ATOM     15  S   UNL     1     -33.748  29.284   2.763  0.00  0.00    -0.090 S 
ATOM     16  C   UNL     1     -32.896  28.625   4.095  0.00  0.00    +0.016 C 
ATOM     17  C   UNL     1     -32.201  29.589   4.792  0.00  0.00    +0.003 C 
ATOM     18  C   UNL     1     -32.370  30.885   4.224  0.00  0.00    +0.007 C 
ATOM     19  C   UNL     1     -33.188  30.863   3.117  0.00  0.00    +0.035 C 
ENDBRANCH  14  16
ENDBRANCH  12  14
ENDBRANCH   4  11
BRANCH   4  20
ATOM     20  O   UNL     1     -36.811  25.946   2.525  0.00  0.00    -0.330 OA
ATOM     21  C   UNL     1     -36.675  27.037   1.627  0.00  0.00    +0.176 C 
ENDBRANCH   4  20
BRANCH   8  23
ATOM     22  O   UNL     1     -35.065  20.569   4.204  0.00  0.00    -0.244 OA
ATOM     23  C   UNL     1     -35.631  20.725   3.139  0.00  0.00    +0.351 C 
BRANCH  23  24
ATOM     24  O   UNL     1     -36.679  20.009   2.683  0.00  0.00    -0.476 OA
ATOM     25  H   UNL     1     -36.566  19.419   1.964  0.00  0.00    +0.295 HD
ENDBRANCH  23  24
ENDBRANCH   8  23
BRANCH   9  26
ATOM     26  C   UNL     1     -34.268  20.049   0.521  0.00  0.00    +0.234 C 
BRANCH  26  27
ATOM     27  O   UNL     1     -33.050  19.628   1.103  0.00  0.00    -0.430 OA
BRANCH  27  30
ATOM     28  O   UNL     1     -31.891  17.747   1.748  0.00  0.00    -0.227 OA
ATOM     29  N   UNL     1     -33.939  17.583   0.715  0.00  0.00    -0.295 N 
ATOM     30  C   UNL     1     -32.873  18.274   1.235  0.00  0.00    +0.399 C 
ATOM     31  H   UNL     1     -34.695  18.071   0.318  0.00  0.00    +0.148 HD
ATOM     32  H   UNL     1     -33.948  16.599   0.742  0.00  0.00    +0.148 HD
ENDBRANCH  27  30
ENDBRANCH  26  27
ENDBRANCH   9  26
TORSDOF 9
ENDMDL
MODEL 5
REMARK VINA RESULT:      -5.8      2.810      3.753
REMARK  Name = 56841102
REMARK  9 active torsions:
REMARK  status: ('A' for Active; 'I' for Inactive)
REMARK    1  A    between atoms: C_4  and  N_11
REMARK    2  A    between atoms: C_4  and  O_20
REMARK    3  A    between atoms: C_8  and  C_23
REMARK    4  A    between atoms: C_9  and  C_26
REMARK    5  A    between atoms: C_12  and  C_14
REMARK    6  A    between atoms: C_14  and  C_16
REMARK    7  A    between atoms: C_23  and  O_24
REMARK    8  A    between atoms: C_26  and  O_27
REMARK    9  A    between atoms: O_27  and  C_30
REMARK                            x       y       z     vdW  Elec       q    Type
REMARK                         _______ _______ _______ _____ _____    ______ ____
ROOT
ATOM      1  O   UNL     1     -33.769  26.083   1.186  0.00  0.00    -0.270 OA
ATOM      2  N   UNL     1     -33.907  26.539   3.491  0.00  0.00    -0.247 N 
ATOM      3  C   UNL     1     -35.041  26.026   4.251  0.00  0.00    +0.132 C 
ATOM      4  C   UNL     1     -35.367  25.183   2.986  0.00  0.00    +0.240 C 
ATOM      5  C   UNL     1     -34.518  25.430   5.540  0.00  0.00    +0.029 C 
ATOM      6  C   UNL     1     -34.235  26.004   2.299  0.00  0.00    +0.274 C 
ATOM      7  C   UNL     1     -33.776  26.545   6.298  0.00  0.00    +0.029 C 
ATOM      8  C   UNL     1     -32.927  27.284   4.063  0.00  0.00    +0.126 C 
ATOM      9  C   UNL     1     -32.838  27.365   5.410  0.00  0.00    +0.019 C 
ENDROOT
BRANCH   4  11
ATOM     10  O   UNL     1     -36.904  23.149   4.344  0.00  0.00    -0.275 OA
ATOM     11  N   UNL     1     -35.018  23.766   3.143  0.00  0.00    -0.278 N 
ATOM     12  C   UNL     1     -35.832  22.861   3.819  0.00  0.00    +0.229 C 
ATOM     13  H   UNL     1     -34.174  23.442   2.754  0.00  0.00    +0.152 HD
BRANCH  12  14
ATOM     14  C   UNL     1     -35.235  21.467   3.838  0.00  0.00    +0.118 C 
BRANCH  14  16
ATOM     15  S   UNL     1     -36.940  20.797   1.745  0.00  0.00    -0.090 S 
ATOM     16  C   UNL     1     -35.429  20.718   2.546  0.00  0.00    +0.016 C 
ATOM     17  C   UNL     1     -34.525  19.929   1.869  0.00  0.00    +0.003 C 
ATOM     18  C   UNL     1     -35.082  19.383   0.676  0.00  0.00    +0.007 C 
ATOM     19  C   UNL     1     -36.388  19.775   0.487  0.00  0.00    +0.035 C 
ENDBRANCH  14  16
ENDBRANCH  12  14
ENDBRANCH   4  11
BRANCH   4  20
ATOM     20  O   UNL     1     -36.654  25.413   2.383  0.00  0.00    -0.330 OA
ATOM     21  C   UNL     1     -36.920  24.664   1.207  0.00  0.00    +0.176 C 
ENDBRANCH   4  20
BRANCH   8  23
ATOM     22  O   UNL     1     -32.118  29.029   2.667  0.00  0.00    -0.244 OA
ATOM     23  C   UNL     1     -31.959  27.934   3.172  0.00  0.00    +0.351 C 
BRANCH  23  24
ATOM     24  O   UNL     1     -30.888  27.132   3.010  0.00  0.00    -0.476 OA
ATOM     25  H   UNL     1     -30.031  27.444   3.225  0.00  0.00    +0.295 HD
ENDBRANCH  23  24
ENDBRANCH   8  23
BRANCH   9  26
ATOM     26  C   UNL     1     -31.857  28.201   6.187  0.00  0.00    +0.234 C 
BRANCH  26  27
ATOM     27  O   UNL     1     -30.756  27.403   6.571  0.00  0.00    -0.430 OA
BRANCH  27  30
ATOM     28  O   UNL     1     -29.000  27.804   5.137  0.00  0.00    -0.227 OA
ATOM     29  N   UNL     1     -28.911  28.468   7.336  0.00  0.00    -0.295 N 
ATOM     30  C   UNL     1     -29.511  27.884   6.248  0.00  0.00    +0.399 C 
ATOM     31  H   UNL     1     -29.380  28.498   8.200  0.00  0.00    +0.148 HD
ATOM     32  H   UNL     1     -28.011  28.859   7.251  0.00  0.00    +0.148 HD
ENDBRANCH  27  30
ENDBRANCH  26  27
ENDBRANCH   9  26
TORSDOF 9
ENDMDL
MODEL 6
REMARK VINA RESULT:      -5.8      2.293      3.021
REMARK  Name = 56841102
REMARK  9 active torsions:
REMARK  status: ('A' for Active; 'I' for Inactive)
REMARK    1  A    between atoms: C_4  and  N_11
REMARK    2  A    between atoms: C_4  and  O_20
REMARK    3  A    between atoms: C_8  and  C_23
REMARK    4  A    between atoms: C_9  and  C_26
REMARK    5  A    between atoms: C_12  and  C_14
REMARK    6  A    between atoms: C_14  and  C_16
REMARK    7  A    between atoms: C_23  and  O_24
REMARK    8  A    between atoms: C_26  and  O_27
REMARK    9  A    between atoms: O_27  and  C_30
REMARK                            x       y       z     vdW  Elec       q    Type
REMARK                         _______ _______ _______ _____ _____    ______ ____
ROOT
ATOM      1  O   UNL     1     -34.971  25.324   0.854  0.00  0.00    -0.270 OA
ATOM      2  N   UNL     1     -35.262  25.769   3.148  0.00  0.00    -0.247 N 
ATOM      3  C   UNL     1     -36.588  25.626   3.737  0.00  0.00    +0.132 C 
ATOM      4  C   UNL     1     -36.989  24.945   2.399  0.00  0.00    +0.240 C 
ATOM      5  C   UNL     1     -36.448  24.878   5.046  0.00  0.00    +0.029 C 
ATOM      6  C   UNL     1     -35.580  25.379   1.898  0.00  0.00    +0.274 C 
ATOM      7  C   UNL     1     -35.504  25.695   5.946  0.00  0.00    +0.029 C 
ATOM      8  C   UNL     1     -34.183  26.162   3.872  0.00  0.00    +0.126 C 
ATOM      9  C   UNL     1     -34.251  26.192   5.223  0.00  0.00    +0.019 C 
ENDROOT
BRANCH   4  11
ATOM     10  O   UNL     1     -37.361  23.042   0.257  0.00  0.00    -0.275 OA
ATOM     11  N   UNL     1     -37.118  23.488   2.520  0.00  0.00    -0.278 N 
ATOM     12  C   UNL     1     -37.295  22.653   1.420  0.00  0.00    +0.229 C 
ATOM     13  H   UNL     1     -37.077  23.083   3.417  0.00  0.00    +0.152 HD
BRANCH  12  14
ATOM     14  C   UNL     1     -37.404  21.196   1.825  0.00  0.00    +0.118 C 
BRANCH  14  16
ATOM     15  S   UNL     1     -36.173  19.420   0.073  0.00  0.00    -0.090 S 
ATOM     16  C   UNL     1     -36.178  20.389   1.485  0.00  0.00    +0.016 C 
ATOM     17  C   UNL     1     -34.989  20.304   2.175  0.00  0.00    +0.003 C 
ATOM     18  C   UNL     1     -34.061  19.431   1.537  0.00  0.00    +0.007 C 
ATOM     19  C   UNL     1     -34.576  18.884   0.383  0.00  0.00    +0.035 C 
ENDBRANCH  14  16
ENDBRANCH  12  14
ENDBRANCH   4  11
BRANCH   4  20
ATOM     20  O   UNL     1     -38.053  25.574   1.659  0.00  0.00    -0.330 OA
ATOM     21  C   UNL     1     -39.362  25.348   2.158  0.00  0.00    +0.176 C 
ENDBRANCH   4  20
BRANCH   8  23
ATOM     22  O   UNL     1     -32.111  25.675   2.816  0.00  0.00    -0.244 OA
ATOM     23  C   UNL     1     -32.954  26.488   3.140  0.00  0.00    +0.351 C 
BRANCH  23  24
ATOM     24  O   UNL     1     -32.918  27.813   2.892  0.00  0.00    -0.476 OA
ATOM     25  H   UNL     1     -32.137  28.301   3.066  0.00  0.00    +0.295 HD
ENDBRANCH  23  24
ENDBRANCH   8  23
BRANCH   9  26
ATOM     26  C   UNL     1     -33.170  26.669   6.155  0.00  0.00    +0.234 C 
BRANCH  26  27
ATOM     27  O   UNL     1     -32.922  28.042   5.929  0.00  0.00    -0.430 OA
BRANCH  27  30
ATOM     28  O   UNL     1     -30.730  28.150   5.235  0.00  0.00    -0.227 OA
ATOM     29  N   UNL     1     -31.428  29.242   7.134  0.00  0.00    -0.295 N 
ATOM     30  C   UNL     1     -31.616  28.451   6.028  0.00  0.00    +0.399 C 
ATOM     31  H   UNL     1     -32.185  29.444   7.729  0.00  0.00    +0.148 HD
ATOM     32  H   UNL     1     -30.536  29.609   7.331  0.00  0.00    +0.148 HD
ENDBRANCH  27  30
ENDBRANCH  26  27
ENDBRANCH   9  26
TORSDOF 9
ENDMDL
MODEL 7
REMARK VINA RESULT:      -5.7      2.114      2.768
REMARK  Name = 56841102
REMARK  9 active torsions:
REMARK  status: ('A' for Active; 'I' for Inactive)
REMARK    1  A    between atoms: C_4  and  N_11
REMARK    2  A    between atoms: C_4  and  O_20
REMARK    3  A    between atoms: C_8  and  C_23
REMARK    4  A    between atoms: C_9  and  C_26
REMARK    5  A    between atoms: C_12  and  C_14
REMARK    6  A    between atoms: C_14  and  C_16
REMARK    7  A    between atoms: C_23  and  O_24
REMARK    8  A    between atoms: C_26  and  O_27
REMARK    9  A    between atoms: O_27  and  C_30
REMARK                            x       y       z     vdW  Elec       q    Type
REMARK                         _______ _______ _______ _____ _____    ______ ____
ROOT
ATOM      1  O   UNL     1     -38.603  23.587   0.465  0.00  0.00    -0.270 OA
ATOM      2  N   UNL     1     -37.376  22.740   2.286  0.00  0.00    -0.247 N 
ATOM      3  C   UNL     1     -37.030  21.323   2.313  0.00  0.00    +0.132 C 
ATOM      4  C   UNL     1     -37.515  21.289   0.837  0.00  0.00    +0.240 C 
ATOM      5  C   UNL     1     -35.577  21.196   2.718  0.00  0.00    +0.029 C 
ATOM      6  C   UNL     1     -37.998  22.748   1.091  0.00  0.00    +0.274 C 
ATOM      7  C   UNL     1     -35.425  21.851   4.102  0.00  0.00    +0.029 C 
ATOM      8  C   UNL     1     -37.025  23.592   3.283  0.00  0.00    +0.126 C 
ATOM      9  C   UNL     1     -36.125  23.207   4.216  0.00  0.00    +0.019 C 
ENDROOT
BRANCH   4  11
ATOM     10  O   UNL     1     -36.072  18.930  -0.001  0.00  0.00    -0.275 OA
ATOM     11  N   UNL     1     -36.406  21.223  -0.123  0.00  0.00    -0.278 N 
ATOM     12  C   UNL     1     -35.774  20.029  -0.462  0.00  0.00    +0.229 C 
ATOM     13  H   UNL     1     -36.098  22.057  -0.546  0.00  0.00    +0.152 HD
BRANCH  12  14
ATOM     14  C   UNL     1     -34.662  20.244  -1.469  0.00  0.00    +0.118 C 
BRANCH  14  16
ATOM     15  S   UNL     1     -32.424  18.651  -1.911  0.00  0.00    -0.090 S 
ATOM     16  C   UNL     1     -33.315  19.778  -0.980  0.00  0.00    +0.016 C 
ATOM     17  C   UNL     1     -32.650  20.140   0.171  0.00  0.00    +0.003 C 
ATOM     18  C   UNL     1     -31.392  19.482   0.289  0.00  0.00    +0.007 C 
ATOM     19  C   UNL     1     -31.143  18.644  -0.775  0.00  0.00    +0.035 C 
ENDBRANCH  14  16
ENDBRANCH  12  14
ENDBRANCH   4  11
BRANCH   4  20
ATOM     20  O   UNL     1     -38.605  20.394   0.545  0.00  0.00    -0.330 OA
ATOM     21  C   UNL     1     -39.093  20.438  -0.787  0.00  0.00    +0.176 C 
ENDBRANCH   4  20
BRANCH   8  23
ATOM     22  O   UNL     1     -37.110  25.899   2.719  0.00  0.00    -0.244 OA
ATOM     23  C   UNL     1     -37.612  24.937   3.266  0.00  0.00    +0.351 C 
BRANCH  23  24
ATOM     24  O   UNL     1     -38.778  24.927   3.944  0.00  0.00    -0.476 OA
ATOM     25  H   UNL     1     -39.560  25.243   3.536  0.00  0.00    +0.295 HD
ENDBRANCH  23  24
ENDBRANCH   8  23
BRANCH   9  26
ATOM     26  C   UNL     1     -35.690  24.008   5.414  0.00  0.00    +0.234 C 
BRANCH  26  27
ATOM     27  O   UNL     1     -34.455  24.638   5.138  0.00  0.00    -0.430 OA
BRANCH  27  30
ATOM     28  O   UNL     1     -33.369  26.443   6.066  0.00  0.00    -0.227 OA
ATOM     29  N   UNL     1     -35.476  26.657   5.171  0.00  0.00    -0.295 N 
ATOM     30  C   UNL     1     -34.346  25.955   5.508  0.00  0.00    +0.399 C 
ATOM     31  H   UNL     1     -36.224  26.201   4.723  0.00  0.00    +0.148 HD
ATOM     32  H   UNL     1     -35.539  27.619   5.376  0.00  0.00    +0.148 HD
ENDBRANCH  27  30
ENDBRANCH  26  27
ENDBRANCH   9  26
TORSDOF 9
ENDMDL
MODEL 8
REMARK VINA RESULT:      -5.7      2.380      3.359
REMARK  Name = 56841102
REMARK  9 active torsions:
REMARK  status: ('A' for Active; 'I' for Inactive)
REMARK    1  A    between atoms: C_4  and  N_11
REMARK    2  A    between atoms: C_4  and  O_20
REMARK    3  A    between atoms: C_8  and  C_23
REMARK    4  A    between atoms: C_9  and  C_26
REMARK    5  A    between atoms: C_12  and  C_14
REMARK    6  A    between atoms: C_14  and  C_16
REMARK    7  A    between atoms: C_23  and  O_24
REMARK    8  A    between atoms: C_26  and  O_27
REMARK    9  A    between atoms: O_27  and  C_30
REMARK                            x       y       z     vdW  Elec       q    Type
REMARK                         _______ _______ _______ _____ _____    ______ ____
ROOT
ATOM      1  O   UNL     1     -37.670  27.191   1.787  0.00  0.00    -0.270 OA
ATOM      2  N   UNL     1     -35.759  26.559   3.007  0.00  0.00    -0.247 N 
ATOM      3  C   UNL     1     -35.776  25.308   3.758  0.00  0.00    +0.132 C 
ATOM      4  C   UNL     1     -37.099  25.000   3.001  0.00  0.00    +0.240 C 
ATOM      5  C   UNL     1     -34.475  24.580   3.497  0.00  0.00    +0.029 C 
ATOM      6  C   UNL     1     -36.990  26.459   2.469  0.00  0.00    +0.274 C 
ATOM      7  C   UNL     1     -33.330  25.504   3.946  0.00  0.00    +0.029 C 
ATOM      8  C   UNL     1     -34.681  27.383   2.994  0.00  0.00    +0.126 C 
ATOM      9  C   UNL     1     -33.493  26.950   3.475  0.00  0.00    +0.019 C 
ENDROOT
BRANCH   4  11
ATOM     10  O   UNL     1     -36.926  22.133   3.318  0.00  0.00    -0.275 OA
ATOM     11  N   UNL     1     -36.926  24.000   1.941  0.00  0.00    -0.278 N 
ATOM     12  C   UNL     1     -36.854  22.633   2.199  0.00  0.00    +0.229 C 
ATOM     13  H   UNL     1     -36.859  24.308   1.008  0.00  0.00    +0.152 HD
BRANCH  12  14
ATOM     14  C   UNL     1     -36.670  21.826   0.928  0.00  0.00    +0.118 C 
BRANCH  14  16
ATOM     15  S   UNL     1     -34.044  21.721   0.017  0.00  0.00    -0.090 S 
ATOM     16  C   UNL     1     -35.368  21.070   0.885  0.00  0.00    +0.016 C 
ATOM     17  C   UNL     1     -35.059  19.862   1.472  0.00  0.00    +0.003 C 
ATOM     18  C   UNL     1     -33.717  19.466   1.204  0.00  0.00    +0.007 C 
ATOM     19  C   UNL     1     -33.052  20.386   0.424  0.00  0.00    +0.035 C 
ENDBRANCH  14  16
ENDBRANCH  12  14
ENDBRANCH   4  11
BRANCH   4  20
ATOM     20  O   UNL     1     -38.267  24.800   3.819  0.00  0.00    -0.330 OA
ATOM     21  C   UNL     1     -39.477  24.574   3.111  0.00  0.00    +0.176 C 
ENDBRANCH   4  20
BRANCH   8  23
ATOM     22  O   UNL     1     -34.706  28.957   1.214  0.00  0.00    -0.244 OA
ATOM     23  C   UNL     1     -34.848  28.712   2.396  0.00  0.00    +0.351 C 
BRANCH  23  24
ATOM     24  O   UNL     1     -35.178  29.599   3.357  0.00  0.00    -0.476 OA
ATOM     25  H   UNL     1     -35.008  29.401   4.257  0.00  0.00    +0.295 HD
ENDBRANCH  23  24
ENDBRANCH   8  23
BRANCH   9  26
ATOM     26  C   UNL     1     -32.233  27.764   3.592  0.00  0.00    +0.234 C 
BRANCH  26  27
ATOM     27  O   UNL     1     -31.795  27.768   4.937  0.00  0.00    -0.430 OA
BRANCH  27  30
ATOM     28  O   UNL     1     -32.653  29.878   5.273  0.00  0.00    -0.227 OA
ATOM     29  N   UNL     1     -32.080  28.533   7.048  0.00  0.00    -0.295 N 
ATOM     30  C   UNL     1     -32.216  28.820   5.712  0.00  0.00    +0.399 C 
ATOM     31  H   UNL     1     -31.721  27.661   7.330  0.00  0.00    +0.148 HD
ATOM     32  H   UNL     1     -32.345  29.199   7.724  0.00  0.00    +0.148 HD
ENDBRANCH  27  30
ENDBRANCH  26  27
ENDBRANCH   9  26
TORSDOF 9
ENDMDL
MODEL 9
REMARK VINA RESULT:      -5.7      3.239      5.587
REMARK  Name = 56841102
REMARK  9 active torsions:
REMARK  status: ('A' for Active; 'I' for Inactive)
REMARK    1  A    between atoms: C_4  and  N_11
REMARK    2  A    between atoms: C_4  and  O_20
REMARK    3  A    between atoms: C_8  and  C_23
REMARK    4  A    between atoms: C_9  and  C_26
REMARK    5  A    between atoms: C_12  and  C_14
REMARK    6  A    between atoms: C_14  and  C_16
REMARK    7  A    between atoms: C_23  and  O_24
REMARK    8  A    between atoms: C_26  and  O_27
REMARK    9  A    between atoms: O_27  and  C_30
REMARK                            x       y       z     vdW  Elec       q    Type
REMARK                         _______ _______ _______ _____ _____    ______ ____
ROOT
ATOM      1  O   UNL     1     -36.730  23.351   4.639  0.00  0.00    -0.270 OA
ATOM      2  N   UNL     1     -35.047  24.532   3.492  0.00  0.00    -0.247 N 
ATOM      3  C   UNL     1     -34.487  23.965   2.271  0.00  0.00    +0.132 C 
ATOM      4  C   UNL     1     -35.653  22.939   2.342  0.00  0.00    +0.240 C 
ATOM      5  C   UNL     1     -34.403  25.063   1.232  0.00  0.00    +0.029 C 
ATOM      6  C   UNL     1     -35.955  23.566   3.736  0.00  0.00    +0.274 C 
ATOM      7  C   UNL     1     -33.513  26.177   1.809  0.00  0.00    +0.029 C 
ATOM      8  C   UNL     1     -34.625  25.716   4.003  0.00  0.00    +0.126 C 
ATOM      9  C   UNL     1     -33.844  26.533   3.260  0.00  0.00    +0.019 C 
ENDROOT
BRANCH   4  11
ATOM     10  O   UNL     1     -38.247  21.678   2.177  0.00  0.00    -0.275 OA
ATOM     11  N   UNL     1     -36.710  23.213   1.362  0.00  0.00    -0.278 N 
ATOM     12  C   UNL     1     -37.933  22.547   1.368  0.00  0.00    +0.229 C 
ATOM     13  H   UNL     1     -36.549  23.897   0.672  0.00  0.00    +0.152 HD
BRANCH  12  14
ATOM     14  C   UNL     1     -38.839  23.017   0.246  0.00  0.00    +0.118 C 
BRANCH  14  16
ATOM     15  S   UNL     1     -39.220  25.762   0.005  0.00  0.00    -0.090 S 
ATOM     16  C   UNL     1     -39.663  24.224   0.612  0.00  0.00    +0.016 C 
ATOM     17  C   UNL     1     -40.786  24.286   1.407  0.00  0.00    +0.003 C 
ATOM     18  C   UNL     1     -41.289  25.614   1.520  0.00  0.00    +0.007 C 
ATOM     19  C   UNL     1     -40.532  26.516   0.807  0.00  0.00    +0.035 C 
ENDBRANCH  14  16
ENDBRANCH  12  14
ENDBRANCH   4  11
BRANCH   4  20
ATOM     20  O   UNL     1     -35.276  21.553   2.436  0.00  0.00    -0.330 OA
ATOM     21  C   UNL     1     -34.818  20.962   1.229  0.00  0.00    +0.176 C 
ENDBRANCH   4  20
BRANCH   8  23
ATOM     22  O   UNL     1     -34.429  25.965   6.359  0.00  0.00    -0.244 OA
ATOM     23  C   UNL     1     -35.091  26.083   5.345  0.00  0.00    +0.351 C 
BRANCH  23  24
ATOM     24  O   UNL     1     -36.349  26.561   5.269  0.00  0.00    -0.476 OA
ATOM     25  H   UNL     1     -37.070  25.971   5.174  0.00  0.00    +0.295 HD
ENDBRANCH  23  24
ENDBRANCH   8  23
BRANCH   9  26
ATOM     26  C   UNL     1     -33.243  27.837   3.709  0.00  0.00    +0.234 C 
BRANCH  26  27
ATOM     27  O   UNL     1     -32.189  27.584   4.616  0.00  0.00    -0.430 OA
BRANCH  27  30
ATOM     28  O   UNL     1     -32.288  29.596   5.731  0.00  0.00    -0.227 OA
ATOM     29  N   UNL     1     -31.907  27.630   6.862  0.00  0.00    -0.295 N 
ATOM     30  C   UNL     1     -32.141  28.378   5.735  0.00  0.00    +0.399 C 
ATOM     31  H   UNL     1     -31.799  26.655   6.792  0.00  0.00    +0.148 HD
ATOM     32  H   UNL     1     -31.848  28.070   7.741  0.00  0.00    +0.148 HD
ENDBRANCH  27  30
ENDBRANCH  26  27
ENDBRANCH   9  26
TORSDOF 9
ENDMDL
