MODEL 1
REMARK VINA RESULT:      -6.6      0.000      0.000
REMARK  Name = 191826
REMARK  5 active torsions:
REMARK  status: ('A' for Active; 'I' for Inactive)
REMARK    1  A    between atoms: O_1  and  C_4
REMARK    2  A    between atoms: O_1  and  C_18
REMARK    3  A    between atoms: C_15  and  O_20
REMARK    4  A    between atoms: C_16  and  O_22
REMARK    5  A    between atoms: C_17  and  O_24
REMARK                            x       y       z     vdW  Elec       q    Type
REMARK                         _______ _______ _______ _____ _____    ______ ____
ROOT
ATOM      1  O   UNL     1     -36.713  22.964   2.069  0.00  0.00    -0.450 OA
ENDROOT
BRANCH   1   4
ATOM      2  O   UNL     1     -32.663  22.026  -0.273  0.00  0.00    -0.421 OA
ATOM      3  O   UNL     1     -30.722  21.592  -1.402  0.00  0.00    -0.244 OA
ATOM      4  C   UNL     1     -35.719  22.091   1.751  0.00  0.00    +0.144 C 
ATOM      5  C   UNL     1     -34.690  22.483   0.903  0.00  0.00    +0.075 C 
ATOM      6  C   UNL     1     -33.663  20.273   1.103  0.00  0.00    +0.031 C 
ATOM      7  C   UNL     1     -35.729  20.800   2.278  0.00  0.00    +0.037 C 
ATOM      8  C   UNL     1     -33.679  21.570   0.591  0.00  0.00    +0.151 C 
ATOM      9  C   UNL     1     -34.709  19.897   1.956  0.00  0.00    +0.006 C 
ATOM     10  C   UNL     1     -32.560  19.380   0.721  0.00  0.00    -0.012 C 
ATOM     11  C   UNL     1     -31.608  19.839  -0.103  0.00  0.00    +0.078 C 
ATOM     12  C   UNL     1     -32.515  17.978   1.254  0.00  0.00    +0.031 C 
ATOM     13  C   UNL     1     -31.610  21.207  -0.650  0.00  0.00    +0.346 C 
ENDBRANCH   1   4
BRANCH   1  18
ATOM     14  O   UNL     1     -38.012  24.135   3.671  0.00  0.00    -0.316 OA
ATOM     15  C   UNL     1     -35.267  24.937   3.839  0.00  0.00    +0.173 C 
ATOM     16  C   UNL     1     -35.707  23.514   4.195  0.00  0.00    +0.210 C 
ATOM     17  C   UNL     1     -36.404  25.944   4.006  0.00  0.00    +0.169 C 
ATOM     18  C   UNL     1     -36.996  23.148   3.453  0.00  0.00    +0.318 C 
ATOM     19  C   UNL     1     -37.645  25.456   3.264  0.00  0.00    +0.178 C 
BRANCH  15  20
ATOM     20  O   UNL     1     -34.148  25.334   4.621  0.00  0.00    -0.379 OA
ATOM     21  H   UNL     1     -34.258  26.256   4.899  0.00  0.00    +0.211 HD
ENDBRANCH  15  20
BRANCH  16  22
ATOM     22  O   UNL     1     -35.935  23.417   5.600  0.00  0.00    -0.377 OA
ATOM     23  H   UNL     1     -35.087  23.470   6.069  0.00  0.00    +0.211 HD
ENDBRANCH  16  22
BRANCH  17  24
ATOM     24  O   UNL     1     -36.721  26.099   5.389  0.00  0.00    -0.379 OA
ATOM     25  H   UNL     1     -35.905  26.243   5.894  0.00  0.00    +0.211 HD
ENDBRANCH  17  24
ENDBRANCH   1  18
TORSDOF 5
ENDMDL
MODEL 2
REMARK VINA RESULT:      -6.5      4.027      6.359
REMARK  Name = 191826
REMARK  5 active torsions:
REMARK  status: ('A' for Active; 'I' for Inactive)
REMARK    1  A    between atoms: O_1  and  C_4
REMARK    2  A    between atoms: O_1  and  C_18
REMARK    3  A    between atoms: C_15  and  O_20
REMARK    4  A    between atoms: C_16  and  O_22
REMARK    5  A    between atoms: C_17  and  O_24
REMARK                            x       y       z     vdW  Elec       q    Type
REMARK                         _______ _______ _______ _____ _____    ______ ____
ROOT
ATOM      1  O   UNL     1     -33.576  27.873   4.251  0.00  0.00    -0.450 OA
ENDROOT
BRANCH   1   4
ATOM      2  O   UNL     1     -34.836  23.670   2.377  0.00  0.00    -0.421 OA
ATOM      3  O   UNL     1     -35.437  21.662   1.463  0.00  0.00    -0.244 OA
ATOM      4  C   UNL     1     -34.000  26.592   4.427  0.00  0.00    +0.144 C 
ATOM      5  C   UNL     1     -34.208  25.768   3.327  0.00  0.00    +0.075 C 
ATOM      6  C   UNL     1     -34.877  23.938   4.804  0.00  0.00    +0.031 C 
ATOM      7  C   UNL     1     -34.226  26.101   5.712  0.00  0.00    +0.037 C 
ATOM      8  C   UNL     1     -34.644  24.456   3.530  0.00  0.00    +0.151 C 
ATOM      9  C   UNL     1     -34.662  24.784   5.900  0.00  0.00    +0.006 C 
ATOM     10  C   UNL     1     -35.334  22.547   4.925  0.00  0.00    -0.012 C 
ATOM     11  C   UNL     1     -35.510  21.822   3.811  0.00  0.00    +0.078 C 
ATOM     12  C   UNL     1     -35.595  21.960   6.281  0.00  0.00    +0.031 C 
ATOM     13  C   UNL     1     -35.265  22.354   2.460  0.00  0.00    +0.346 C 
ENDBRANCH   1   4
BRANCH   1  18
ATOM     14  O   UNL     1     -31.464  27.973   5.324  0.00  0.00    -0.316 OA
ATOM     15  C   UNL     1     -32.231  30.572   4.394  0.00  0.00    +0.173 C 
ATOM     16  C   UNL     1     -31.928  29.431   3.418  0.00  0.00    +0.210 C 
ATOM     17  C   UNL     1     -31.517  30.382   5.732  0.00  0.00    +0.169 C 
ATOM     18  C   UNL     1     -32.176  28.074   4.085  0.00  0.00    +0.318 C 
ATOM     19  C   UNL     1     -31.799  28.985   6.278  0.00  0.00    +0.178 C 
BRANCH  15  20
ATOM     20  O   UNL     1     -31.879  31.829   3.831  0.00  0.00    -0.379 OA
ATOM     21  H   UNL     1     -31.778  31.737   2.871  0.00  0.00    +0.211 HD
ENDBRANCH  15  20
BRANCH  16  22
ATOM     22  O   UNL     1     -30.567  29.503   2.999  0.00  0.00    -0.377 OA
ATOM     23  H   UNL     1     -30.516  29.367   2.040  0.00  0.00    +0.211 HD
ENDBRANCH  16  22
BRANCH  17  24
ATOM     24  O   UNL     1     -30.109  30.539   5.562  0.00  0.00    -0.379 OA
ATOM     25  H   UNL     1     -29.697  30.715   6.423  0.00  0.00    +0.211 HD
ENDBRANCH  17  24
ENDBRANCH   1  18
TORSDOF 5
ENDMDL
MODEL 3
REMARK VINA RESULT:      -6.3      1.168      1.392
REMARK  Name = 191826
REMARK  5 active torsions:
REMARK  status: ('A' for Active; 'I' for Inactive)
REMARK    1  A    between atoms: O_1  and  C_4
REMARK    2  A    between atoms: O_1  and  C_18
REMARK    3  A    between atoms: C_15  and  O_20
REMARK    4  A    between atoms: C_16  and  O_22
REMARK    5  A    between atoms: C_17  and  O_24
REMARK                            x       y       z     vdW  Elec       q    Type
REMARK                         _______ _______ _______ _____ _____    ______ ____
ROOT
ATOM      1  O   UNL     1     -36.277  21.966   1.225  0.00  0.00    -0.450 OA
ENDROOT
BRANCH   1   4
ATOM      2  O   UNL     1     -31.875  21.741  -0.600  0.00  0.00    -0.421 OA
ATOM      3  O   UNL     1     -29.767  21.649  -1.482  0.00  0.00    -0.244 OA
ATOM      4  C   UNL     1     -35.119  21.276   1.042  0.00  0.00    +0.144 C 
ATOM      5  C   UNL     1     -34.076  21.841   0.318  0.00  0.00    +0.075 C 
ATOM      6  C   UNL     1     -32.722  19.837   0.673  0.00  0.00    +0.031 C 
ATOM      7  C   UNL     1     -34.974  19.999   1.584  0.00  0.00    +0.037 C 
ATOM      8  C   UNL     1     -32.896  21.115   0.143  0.00  0.00    +0.151 C 
ATOM      9  C   UNL     1     -33.785  19.284   1.400  0.00  0.00    +0.006 C 
ATOM     10  C   UNL     1     -31.447  19.146   0.440  0.00  0.00    -0.012 C 
ATOM     11  C   UNL     1     -30.494  19.764  -0.272  0.00  0.00    +0.078 C 
ATOM     12  C   UNL     1     -31.229  17.769   0.996  0.00  0.00    +0.031 C 
ATOM     13  C   UNL     1     -30.661  21.114  -0.836  0.00  0.00    +0.346 C 
ENDBRANCH   1   4
BRANCH   1  18
ATOM     14  O   UNL     1     -38.178  22.438   2.562  0.00  0.00    -0.316 OA
ATOM     15  C   UNL     1     -36.098  24.336   3.088  0.00  0.00    +0.173 C 
ATOM     16  C   UNL     1     -35.938  22.855   3.446  0.00  0.00    +0.210 C 
ATOM     17  C   UNL     1     -37.566  24.755   3.039  0.00  0.00    +0.169 C 
ATOM     18  C   UNL     1     -36.819  21.986   2.542  0.00  0.00    +0.318 C 
ATOM     19  C   UNL     1     -38.352  23.797   2.148  0.00  0.00    +0.178 C 
BRANCH  15  20
ATOM     20  O   UNL     1     -35.388  25.159   4.004  0.00  0.00    -0.379 OA
ATOM     21  H   UNL     1     -35.986  25.828   4.370  0.00  0.00    +0.211 HD
ENDBRANCH  15  20
BRANCH  16  22
ATOM     22  O   UNL     1     -36.314  22.644   4.805  0.00  0.00    -0.377 OA
ATOM     23  H   UNL     1     -36.758  23.437   5.144  0.00  0.00    +0.211 HD
ENDBRANCH  16  22
BRANCH  17  24
ATOM     24  O   UNL     1     -38.125  24.734   4.352  0.00  0.00    -0.379 OA
ATOM     25  H   UNL     1     -37.438  24.956   5.000  0.00  0.00    +0.211 HD
ENDBRANCH  17  24
ENDBRANCH   1  18
TORSDOF 5
ENDMDL
MODEL 4
REMARK VINA RESULT:      -6.2      2.200      2.895
REMARK  Name = 191826
REMARK  5 active torsions:
REMARK  status: ('A' for Active; 'I' for Inactive)
REMARK    1  A    between atoms: O_1  and  C_4
REMARK    2  A    between atoms: O_1  and  C_18
REMARK    3  A    between atoms: C_15  and  O_20
REMARK    4  A    between atoms: C_16  and  O_22
REMARK    5  A    between atoms: C_17  and  O_24
REMARK                            x       y       z     vdW  Elec       q    Type
REMARK                         _______ _______ _______ _____ _____    ______ ____
ROOT
ATOM      1  O   UNL     1     -36.507  22.860   3.431  0.00  0.00    -0.450 OA
ENDROOT
BRANCH   1   4
ATOM      2  O   UNL     1     -33.709  19.296   1.937  0.00  0.00    -0.421 OA
ATOM      3  O   UNL     1     -32.357  17.591   1.233  0.00  0.00    -0.244 OA
ATOM      4  C   UNL     1     -36.281  21.830   2.571  0.00  0.00    +0.144 C 
ATOM      5  C   UNL     1     -35.118  21.076   2.675  0.00  0.00    +0.075 C 
ATOM      6  C   UNL     1     -35.825  19.696   0.784  0.00  0.00    +0.031 C 
ATOM      7  C   UNL     1     -37.217  21.526   1.584  0.00  0.00    +0.037 C 
ATOM      8  C   UNL     1     -34.906  20.023   1.782  0.00  0.00    +0.151 C 
ATOM      9  C   UNL     1     -36.991  20.468   0.696  0.00  0.00    +0.006 C 
ATOM     10  C   UNL     1     -35.521  18.572  -0.112  0.00  0.00    -0.012 C 
ATOM     11  C   UNL     1     -34.374  17.898   0.058  0.00  0.00    +0.078 C 
ATOM     12  C   UNL     1     -36.488  18.196  -1.195  0.00  0.00    +0.031 C 
ATOM     13  C   UNL     1     -33.396  18.230   1.107  0.00  0.00    +0.346 C 
ENDBRANCH   1   4
BRANCH   1  18
ATOM     14  O   UNL     1     -36.116  24.698   1.985  0.00  0.00    -0.316 OA
ATOM     15  C   UNL     1     -36.212  25.580   4.709  0.00  0.00    +0.173 C 
ATOM     16  C   UNL     1     -37.449  25.008   4.010  0.00  0.00    +0.210 C 
ATOM     17  C   UNL     1     -35.218  26.175   3.712  0.00  0.00    +0.169 C 
ATOM     18  C   UNL     1     -37.037  24.061   2.879  0.00  0.00    +0.318 C 
ATOM     19  C   UNL     1     -34.916  25.162   2.611  0.00  0.00    +0.178 C 
BRANCH  15  20
ATOM     20  O   UNL     1     -36.579  26.559   5.672  0.00  0.00    -0.379 OA
ATOM     21  H   UNL     1     -36.890  26.120   6.478  0.00  0.00    +0.211 HD
ENDBRANCH  15  20
BRANCH  16  22
ATOM     22  O   UNL     1     -38.230  26.070   3.467  0.00  0.00    -0.377 OA
ATOM     23  H   UNL     1     -38.214  26.022   2.499  0.00  0.00    +0.211 HD
ENDBRANCH  16  22
BRANCH  17  24
ATOM     24  O   UNL     1     -35.763  27.354   3.123  0.00  0.00    -0.379 OA
ATOM     25  H   UNL     1     -35.074  28.035   3.063  0.00  0.00    +0.211 HD
ENDBRANCH  17  24
ENDBRANCH   1  18
TORSDOF 5
ENDMDL
MODEL 5
REMARK VINA RESULT:      -6.1      3.554      7.303
REMARK  Name = 191826
REMARK  5 active torsions:
REMARK  status: ('A' for Active; 'I' for Inactive)
REMARK    1  A    between atoms: O_1  and  C_4
REMARK    2  A    between atoms: O_1  and  C_18
REMARK    3  A    between atoms: C_15  and  O_20
REMARK    4  A    between atoms: C_16  and  O_22
REMARK    5  A    between atoms: C_17  and  O_24
REMARK                            x       y       z     vdW  Elec       q    Type
REMARK                         _______ _______ _______ _____ _____    ______ ____
ROOT
ATOM      1  O   UNL     1     -34.834  24.902   3.092  0.00  0.00    -0.450 OA
ENDROOT
BRANCH   1   4
ATOM      2  O   UNL     1     -32.670  28.916   4.494  0.00  0.00    -0.421 OA
ATOM      3  O   UNL     1     -31.623  30.831   5.177  0.00  0.00    -0.244 OA
ATOM      4  C   UNL     1     -34.710  26.254   3.012  0.00  0.00    +0.144 C 
ATOM      5  C   UNL     1     -33.761  26.915   3.784  0.00  0.00    +0.075 C 
ATOM      6  C   UNL     1     -34.460  29.058   2.838  0.00  0.00    +0.031 C 
ATOM      7  C   UNL     1     -35.533  26.983   2.155  0.00  0.00    +0.037 C 
ATOM      8  C   UNL     1     -33.650  28.304   3.687  0.00  0.00    +0.151 C 
ATOM      9  C   UNL     1     -35.410  28.375   2.068  0.00  0.00    +0.006 C 
ATOM     10  C   UNL     1     -34.274  30.515   2.800  0.00  0.00    -0.012 C 
ATOM     11  C   UNL     1     -33.335  31.071   3.579  0.00  0.00    +0.078 C 
ATOM     12  C   UNL     1     -35.130  31.355   1.897  0.00  0.00    +0.031 C 
ATOM     13  C   UNL     1     -32.471  30.288   4.478  0.00  0.00    +0.346 C 
ENDBRANCH   1   4
BRANCH   1  18
ATOM     14  O   UNL     1     -36.038  24.583   5.110  0.00  0.00    -0.316 OA
ATOM     15  C   UNL     1     -35.153  22.064   4.072  0.00  0.00    +0.173 C 
ATOM     16  C   UNL     1     -36.188  22.915   3.330  0.00  0.00    +0.210 C 
ATOM     17  C   UNL     1     -35.144  22.356   5.572  0.00  0.00    +0.169 C 
ATOM     18  C   UNL     1     -36.024  24.395   3.690  0.00  0.00    +0.318 C 
ATOM     19  C   UNL     1     -35.021  23.859   5.808  0.00  0.00    +0.178 C 
BRANCH  15  20
ATOM     20  O   UNL     1     -35.380  20.678   3.848  0.00  0.00    -0.379 OA
ATOM     21  H   UNL     1     -36.313  20.534   3.630  0.00  0.00    +0.211 HD
ENDBRANCH  15  20
BRANCH  16  22
ATOM     22  O   UNL     1     -37.503  22.492   3.685  0.00  0.00    -0.377 OA
ATOM     23  H   UNL     1     -38.020  23.258   3.983  0.00  0.00    +0.211 HD
ENDBRANCH  16  22
BRANCH  17  24
ATOM     24  O   UNL     1     -36.354  21.889   6.168  0.00  0.00    -0.379 OA
ATOM     25  H   UNL     1     -36.735  22.591   6.719  0.00  0.00    +0.211 HD
ENDBRANCH  17  24
ENDBRANCH   1  18
TORSDOF 5
ENDMDL
MODEL 6
REMARK VINA RESULT:      -6.1      3.623      7.400
REMARK  Name = 191826
REMARK  5 active torsions:
REMARK  status: ('A' for Active; 'I' for Inactive)
REMARK    1  A    between atoms: O_1  and  C_4
REMARK    2  A    between atoms: O_1  and  C_18
REMARK    3  A    between atoms: C_15  and  O_20
REMARK    4  A    between atoms: C_16  and  O_22
REMARK    5  A    between atoms: C_17  and  O_24
REMARK                            x       y       z     vdW  Elec       q    Type
REMARK                         _______ _______ _______ _____ _____    ______ ____
ROOT
ATOM      1  O   UNL     1     -34.887  25.013   2.882  0.00  0.00    -0.450 OA
ENDROOT
BRANCH   1   4
ATOM      2  O   UNL     1     -36.305  29.443   1.821  0.00  0.00    -0.421 OA
ATOM      3  O   UNL     1     -36.999  31.561   1.305  0.00  0.00    -0.244 OA
ATOM      4  C   UNL     1     -34.657  26.354   2.907  0.00  0.00    +0.144 C 
ATOM      5  C   UNL     1     -35.584  27.232   2.357  0.00  0.00    +0.075 C 
ATOM      6  C   UNL     1     -34.171  29.131   2.967  0.00  0.00    +0.031 C 
ATOM      7  C   UNL     1     -33.491  26.852   3.486  0.00  0.00    +0.037 C 
ATOM      8  C   UNL     1     -35.329  28.605   2.394  0.00  0.00    +0.151 C 
ATOM      9  C   UNL     1     -33.249  28.230   3.516  0.00  0.00    +0.006 C 
ATOM     10  C   UNL     1     -33.984  30.589   2.962  0.00  0.00    -0.012 C 
ATOM     11  C   UNL     1     -34.928  31.363   2.409  0.00  0.00    +0.078 C 
ATOM     12  C   UNL     1     -32.749  31.186   3.569  0.00  0.00    +0.031 C 
ATOM     13  C   UNL     1     -36.156  30.822   1.802  0.00  0.00    +0.346 C 
ENDBRANCH   1   4
BRANCH   1  18
ATOM     14  O   UNL     1     -35.985  24.752   4.968  0.00  0.00    -0.316 OA
ATOM     15  C   UNL     1     -35.217  22.198   3.923  0.00  0.00    +0.173 C 
ATOM     16  C   UNL     1     -36.272  23.063   3.225  0.00  0.00    +0.210 C 
ATOM     17  C   UNL     1     -35.120  22.511   5.415  0.00  0.00    +0.169 C 
ATOM     18  C   UNL     1     -36.054  24.544   3.552  0.00  0.00    +0.318 C 
ATOM     19  C   UNL     1     -34.949  24.014   5.621  0.00  0.00    +0.178 C 
BRANCH  15  20
ATOM     20  O   UNL     1     -35.488  20.815   3.734  0.00  0.00    -0.379 OA
ATOM     21  H   UNL     1     -34.780  20.288   4.134  0.00  0.00    +0.211 HD
ENDBRANCH  15  20
BRANCH  16  22
ATOM     22  O   UNL     1     -37.575  22.677   3.657  0.00  0.00    -0.377 OA
ATOM     23  H   UNL     1     -37.593  21.720   3.815  0.00  0.00    +0.211 HD
ENDBRANCH  16  22
BRANCH  17  24
ATOM     24  O   UNL     1     -36.305  22.082   6.084  0.00  0.00    -0.379 OA
ATOM     25  H   UNL     1     -36.635  21.270   5.668  0.00  0.00    +0.211 HD
ENDBRANCH  17  24
ENDBRANCH   1  18
TORSDOF 5
ENDMDL
MODEL 7
REMARK VINA RESULT:      -6.1      2.277      2.937
REMARK  Name = 191826
REMARK  5 active torsions:
REMARK  status: ('A' for Active; 'I' for Inactive)
REMARK    1  A    between atoms: O_1  and  C_4
REMARK    2  A    between atoms: O_1  and  C_18
REMARK    3  A    between atoms: C_15  and  O_20
REMARK    4  A    between atoms: C_16  and  O_22
REMARK    5  A    between atoms: C_17  and  O_24
REMARK                            x       y       z     vdW  Elec       q    Type
REMARK                         _______ _______ _______ _____ _____    ______ ____
ROOT
ATOM      1  O   UNL     1     -36.626  22.823   1.367  0.00  0.00    -0.450 OA
ENDROOT
BRANCH   1   4
ATOM      2  O   UNL     1     -33.368  19.344   1.580  0.00  0.00    -0.421 OA
ATOM      3  O   UNL     1     -31.797  17.686   1.694  0.00  0.00    -0.244 OA
ATOM      4  C   UNL     1     -36.205  21.588   0.982  0.00  0.00    +0.144 C 
ATOM      5  C   UNL     1     -35.006  21.078   1.465  0.00  0.00    +0.075 C 
ATOM      6  C   UNL     1     -35.343  19.026   0.180  0.00  0.00    +0.031 C 
ATOM      7  C   UNL     1     -36.977  20.829   0.103  0.00  0.00    +0.037 C 
ATOM      8  C   UNL     1     -34.592  19.807   1.057  0.00  0.00    +0.151 C 
ATOM      9  C   UNL     1     -36.550  19.557  -0.296  0.00  0.00    +0.006 C 
ATOM     10  C   UNL     1     -34.832  17.700  -0.195  0.00  0.00    -0.012 C 
ATOM     11  C   UNL     1     -33.665  17.285   0.316  0.00  0.00    +0.078 C 
ATOM     12  C   UNL     1     -35.617  16.835  -1.139  0.00  0.00    +0.031 C 
ATOM     13  C   UNL     1     -32.862  18.098   1.245  0.00  0.00    +0.346 C 
ENDBRANCH   1   4
BRANCH   1  18
ATOM     14  O   UNL     1     -38.410  22.513   2.898  0.00  0.00    -0.316 OA
ATOM     15  C   UNL     1     -37.959  25.306   2.452  0.00  0.00    +0.173 C 
ATOM     16  C   UNL     1     -36.914  24.429   3.150  0.00  0.00    +0.210 C 
ATOM     17  C   UNL     1     -39.370  24.740   2.602  0.00  0.00    +0.169 C 
ATOM     18  C   UNL     1     -37.064  22.968   2.715  0.00  0.00    +0.318 C 
ATOM     19  C   UNL     1     -39.389  23.273   2.184  0.00  0.00    +0.178 C 
BRANCH  15  20
ATOM     20  O   UNL     1     -37.915  26.639   2.946  0.00  0.00    -0.379 OA
ATOM     21  H   UNL     1     -38.140  27.256   2.234  0.00  0.00    +0.211 HD
ENDBRANCH  15  20
BRANCH  16  22
ATOM     22  O   UNL     1     -37.079  24.514   4.563  0.00  0.00    -0.377 OA
ATOM     23  H   UNL     1     -37.728  23.854   4.854  0.00  0.00    +0.211 HD
ENDBRANCH  16  22
BRANCH  17  24
ATOM     24  O   UNL     1     -39.796  24.842   3.960  0.00  0.00    -0.379 OA
ATOM     25  H   UNL     1     -39.021  24.920   4.538  0.00  0.00    +0.211 HD
ENDBRANCH  17  24
ENDBRANCH   1  18
TORSDOF 5
ENDMDL
MODEL 8
REMARK VINA RESULT:      -6.1      1.193      2.048
REMARK  Name = 191826
REMARK  5 active torsions:
REMARK  status: ('A' for Active; 'I' for Inactive)
REMARK    1  A    between atoms: O_1  and  C_4
REMARK    2  A    between atoms: O_1  and  C_18
REMARK    3  A    between atoms: C_15  and  O_20
REMARK    4  A    between atoms: C_16  and  O_22
REMARK    5  A    between atoms: C_17  and  O_24
REMARK                            x       y       z     vdW  Elec       q    Type
REMARK                         _______ _______ _______ _____ _____    ______ ____
ROOT
ATOM      1  O   UNL     1     -36.290  23.370   1.580  0.00  0.00    -0.450 OA
ENDROOT
BRANCH   1   4
ATOM      2  O   UNL     1     -32.246  21.902  -0.483  0.00  0.00    -0.421 OA
ATOM      3  O   UNL     1     -30.306  21.214  -1.479  0.00  0.00    -0.244 OA
ATOM      4  C   UNL     1     -35.373  22.387   1.367  0.00  0.00    +0.144 C 
ATOM      5  C   UNL     1     -34.271  22.624   0.555  0.00  0.00    +0.075 C 
ATOM      6  C   UNL     1     -33.479  20.343   0.936  0.00  0.00    +0.031 C 
ATOM      7  C   UNL     1     -35.536  21.139   1.966  0.00  0.00    +0.037 C 
ATOM      8  C   UNL     1     -33.342  21.601   0.350  0.00  0.00    +0.151 C 
ATOM      9  C   UNL     1     -34.596  20.124   1.752  0.00  0.00    +0.006 C 
ATOM     10  C   UNL     1     -32.453  19.326   0.667  0.00  0.00    -0.012 C 
ATOM     11  C   UNL     1     -31.422  19.639  -0.131  0.00  0.00    +0.078 C 
ATOM     12  C   UNL     1     -32.572  17.962   1.281  0.00  0.00    +0.031 C 
ATOM     13  C   UNL     1     -31.263  20.963  -0.755  0.00  0.00    +0.346 C 
ENDBRANCH   1   4
BRANCH   1  18
ATOM     14  O   UNL     1     -35.118  24.578   3.251  0.00  0.00    -0.316 OA
ATOM     15  C   UNL     1     -37.875  25.355   3.213  0.00  0.00    +0.173 C 
ATOM     16  C   UNL     1     -36.944  25.652   2.032  0.00  0.00    +0.210 C 
ATOM     17  C   UNL     1     -37.104  25.213   4.524  0.00  0.00    +0.169 C 
ATOM     18  C   UNL     1     -35.793  24.641   1.989  0.00  0.00    +0.318 C 
ATOM     19  C   UNL     1     -35.960  24.218   4.350  0.00  0.00    +0.178 C 
BRANCH  15  20
ATOM     20  O   UNL     1     -38.870  26.363   3.341  0.00  0.00    -0.379 OA
ATOM     21  H   UNL     1     -39.126  26.449   4.271  0.00  0.00    +0.211 HD
ENDBRANCH  15  20
BRANCH  16  22
ATOM     22  O   UNL     1     -36.406  26.966   2.161  0.00  0.00    -0.377 OA
ATOM     23  H   UNL     1     -36.110  27.281   1.293  0.00  0.00    +0.211 HD
ENDBRANCH  16  22
BRANCH  17  24
ATOM     24  O   UNL     1     -36.567  26.476   4.916  0.00  0.00    -0.379 OA
ATOM     25  H   UNL     1     -37.267  27.015   5.317  0.00  0.00    +0.211 HD
ENDBRANCH  17  24
ENDBRANCH   1  18
TORSDOF 5
ENDMDL
MODEL 9
REMARK VINA RESULT:      -6.0      1.491      2.215
REMARK  Name = 191826
REMARK  5 active torsions:
REMARK  status: ('A' for Active; 'I' for Inactive)
REMARK    1  A    between atoms: O_1  and  C_4
REMARK    2  A    between atoms: O_1  and  C_18
REMARK    3  A    between atoms: C_15  and  O_20
REMARK    4  A    between atoms: C_16  and  O_22
REMARK    5  A    between atoms: C_17  and  O_24
REMARK                            x       y       z     vdW  Elec       q    Type
REMARK                         _______ _______ _______ _____ _____    ______ ____
ROOT
ATOM      1  O   UNL     1     -36.261  23.012   2.120  0.00  0.00    -0.450 OA
ENDROOT
BRANCH   1   4
ATOM      2  O   UNL     1     -33.637  19.071   1.531  0.00  0.00    -0.421 OA
ATOM      3  O   UNL     1     -32.390  17.173   1.260  0.00  0.00    -0.244 OA
ATOM      4  C   UNL     1     -35.200  22.387   1.542  0.00  0.00    +0.144 C 
ATOM      5  C   UNL     1     -34.942  21.049   1.817  0.00  0.00    +0.075 C 
ATOM      6  C   UNL     1     -32.997  21.102   0.337  0.00  0.00    +0.031 C 
ATOM      7  C   UNL     1     -34.367  23.087   0.670  0.00  0.00    +0.037 C 
ATOM      8  C   UNL     1     -33.846  20.427   1.213  0.00  0.00    +0.151 C 
ATOM      9  C   UNL     1     -33.273  22.450   0.072  0.00  0.00    +0.006 C 
ATOM     10  C   UNL     1     -31.869  20.370  -0.253  0.00  0.00    -0.012 C 
ATOM     11  C   UNL     1     -31.692  19.080   0.068  0.00  0.00    +0.078 C 
ATOM     12  C   UNL     1     -30.936  21.068  -1.199  0.00  0.00    +0.031 C 
ATOM     13  C   UNL     1     -32.582  18.353   0.989  0.00  0.00    +0.346 C 
ENDBRANCH   1   4
BRANCH   1  18
ATOM     14  O   UNL     1     -37.461  23.716   4.041  0.00  0.00    -0.316 OA
ATOM     15  C   UNL     1     -35.058  25.248   3.753  0.00  0.00    +0.173 C 
ATOM     16  C   UNL     1     -35.017  23.747   4.056  0.00  0.00    +0.210 C 
ATOM     17  C   UNL     1     -36.361  25.890   4.225  0.00  0.00    +0.169 C 
ATOM     18  C   UNL     1     -36.287  23.061   3.543  0.00  0.00    +0.318 C 
ATOM     19  C   UNL     1     -37.553  25.100   3.692  0.00  0.00    +0.178 C 
BRANCH  15  20
ATOM     20  O   UNL     1     -33.947  25.915   4.339  0.00  0.00    -0.379 OA
ATOM     21  H   UNL     1     -33.212  25.936   3.708  0.00  0.00    +0.211 HD
ENDBRANCH  15  20
BRANCH  16  22
ATOM     22  O   UNL     1     -34.912  23.542   5.463  0.00  0.00    -0.377 OA
ATOM     23  H   UNL     1     -35.738  23.159   5.797  0.00  0.00    +0.211 HD
ENDBRANCH  16  22
BRANCH  17  24
ATOM     24  O   UNL     1     -36.412  25.902   5.652  0.00  0.00    -0.379 OA
ATOM     25  H   UNL     1     -37.084  26.536   5.946  0.00  0.00    +0.211 HD
ENDBRANCH  17  24
ENDBRANCH   1  18
TORSDOF 5
ENDMDL
