MODEL 1
REMARK VINA RESULT:      -6.6      0.000      0.000
REMARK  Name = 192389
REMARK  11 active torsions:
REMARK  status: ('A' for Active; 'I' for Inactive)
REMARK    1  A    between atoms: CA_1  and  C_5
REMARK    2  A    between atoms: CA_1  and  N_17
REMARK    3  A    between atoms: CA_1  and  CB_32
REMARK    4  A    between atoms: CA_4  and  C_11
REMARK    5  A    between atoms: N_10  and  CA_13
REMARK    6  A    between atoms: CA_13  and  C_15
REMARK    7  A    between atoms: C_18  and  C_20
REMARK    8  A    between atoms: C_20  and  N_21
REMARK    9  A    between atoms: N_21  and  C_24
REMARK   10  A    between atoms: C_24  and  C_26
REMARK   11  A    between atoms: CB_32  and  CG_33
REMARK                            x       y       z     vdW  Elec       q    Type
REMARK                         _______ _______ _______ _____ _____    ______ ____
ROOT
ATOM      1  CA  UNL     1     -35.457  21.604   1.643  0.00  0.00    +0.153 C 
ENDROOT
BRANCH   1   5
ATOM      2  O   UNL     1     -36.927  23.294   0.836  0.00  0.00    -0.273 OA
ATOM      3  N   UNL     1     -37.505  21.095   0.398  0.00  0.00    -0.264 N 
ATOM      4  CA  UNL     1     -38.655  21.401  -0.446  0.00  0.00    +0.175 C 
ATOM      5  C   UNL     1     -36.691  22.088   0.925  0.00  0.00    +0.245 C 
ATOM      6  CD  UNL     1     -37.260  19.655   0.482  0.00  0.00    +0.120 C 
ATOM      7  CB  UNL     1     -39.033  20.063  -0.984  0.00  0.00    -0.000 C 
ATOM      8  CG  UNL     1     -38.268  19.097  -0.465  0.00  0.00    -0.007 C 
BRANCH   4  11
ATOM      9  O   UNL     1     -40.628  21.126   0.866  0.00  0.00    -0.273 OA
ATOM     10  N   UNL     1     -39.731  23.259   0.610  0.00  0.00    -0.296 N 
ATOM     11  C   UNL     1     -39.776  21.889   0.418  0.00  0.00    +0.245 C 
ATOM     12  H   UNL     1     -38.995  23.765   0.197  0.00  0.00    +0.150 HD
BRANCH  10  13
ATOM     13  CA  UNL     1     -40.714  23.980   1.386  0.00  0.00    +0.163 C 
BRANCH  13  15
ATOM     14  O   UNL     1     -39.147  24.023   3.201  0.00  0.00    -0.286 OA
ATOM     15  C   UNL     1     -40.022  24.603   2.565  0.00  0.00    +0.229 C 
ENDBRANCH  13  15
ENDBRANCH  10  13
ENDBRANCH   4  11
ENDBRANCH   1   5
BRANCH   1  17
ATOM     16  O   UNL     1     -35.266  20.670   4.374  0.00  0.00    -0.277 OA
ATOM     17  N   UNL     1     -35.421  22.402   2.833  0.00  0.00    -0.300 N 
ATOM     18  C   ACE A   0     -35.328  21.871   4.118  0.00  0.00    +0.201 C 
ATOM     19  H   UNL     1     -35.465  23.381   2.738  0.00  0.00    +0.150 HD
BRANCH  18  20
ATOM     20  C   UNL     1     -35.341  22.944   5.186  0.00  0.00    +0.005 C 
BRANCH  20  21
ATOM     21  N   UNL     1     -36.390  23.905   4.872  0.00  0.00    +0.388 N 
ATOM     22  H   UNL     1     -36.532  23.924   3.862  0.00  0.00    -0.084 HD
ATOM     23  H   UNL     1     -37.246  23.619   5.347  0.00  0.00    -0.084 HD
BRANCH  21  24
ATOM     24  C   UNL     1     -36.028  25.240   5.328  0.00  0.00    -0.103 C 
BRANCH  24  26
ATOM     25  N   UNL     1     -35.598  27.180   3.864  0.00  0.00    +0.384 N 
ATOM     26  C   UNL     1     -35.068  25.910   4.360  0.00  0.00    -0.084 C 
ATOM     27  C   UNL     1     -33.759  26.334   5.010  0.00  0.00    -0.026 C 
ATOM     28  C   UNL     1     -33.266  27.485   4.142  0.00  0.00    -0.026 C 
ATOM     29  C   UNL     1     -34.454  27.867   3.268  0.00  0.00    -0.082 C 
ATOM     30  H   UNL     1     -35.984  27.730   4.630  0.00  0.00    -0.085 HD
ATOM     31  H   UNL     1     -36.351  27.042   3.191  0.00  0.00    -0.085 HD
ENDBRANCH  24  26
ENDBRANCH  21  24
ENDBRANCH  20  21
ENDBRANCH  18  20
ENDBRANCH   1  17
BRANCH   1  32
ATOM     32  CB  UNL     1     -34.228  21.792   0.763  0.00  0.00    +0.055 C 
BRANCH  32  33
ATOM     33  CG  UNL     1     -33.347  20.567   0.748  0.00  0.00    -0.020 C 
ATOM     34  CD1 UNL     1     -32.144  20.583   0.041  0.00  0.00    -0.004 C 
ATOM     35  CD2 UNL     1     -33.733  19.420   1.440  0.00  0.00    -0.004 C 
ATOM     36  CE1 UNL     1     -31.327  19.453   0.027  0.00  0.00    -0.000 C 
ATOM     37  CE2 UNL     1     -32.917  18.289   1.426  0.00  0.00    -0.000 C 
ATOM     38  CZ  UNL     1     -31.715  18.305   0.719  0.00  0.00    -0.000 C 
ENDBRANCH  32  33
ENDBRANCH   1  32
TORSDOF 11
ENDMDL
MODEL 2
REMARK VINA RESULT:      -6.1      2.698      6.783
REMARK  Name = 192389
REMARK  11 active torsions:
REMARK  status: ('A' for Active; 'I' for Inactive)
REMARK    1  A    between atoms: CA_1  and  C_5
REMARK    2  A    between atoms: CA_1  and  N_17
REMARK    3  A    between atoms: CA_1  and  CB_32
REMARK    4  A    between atoms: CA_4  and  C_11
REMARK    5  A    between atoms: N_10  and  CA_13
REMARK    6  A    between atoms: CA_13  and  C_15
REMARK    7  A    between atoms: C_18  and  C_20
REMARK    8  A    between atoms: C_20  and  N_21
REMARK    9  A    between atoms: N_21  and  C_24
REMARK   10  A    between atoms: C_24  and  C_26
REMARK   11  A    between atoms: CB_32  and  CG_33
REMARK                            x       y       z     vdW  Elec       q    Type
REMARK                         _______ _______ _______ _____ _____    ______ ____
ROOT
ATOM      1  CA  UNL     1     -34.651  19.825   1.088  0.00  0.00    +0.153 C 
ENDROOT
BRANCH   1   5
ATOM      2  O   UNL     1     -35.515  20.268   3.262  0.00  0.00    -0.273 OA
ATOM      3  N   UNL     1     -35.099  22.093   1.899  0.00  0.00    -0.264 N 
ATOM      4  CA  UNL     1     -35.391  23.109   2.904  0.00  0.00    +0.175 C 
ATOM      5  C   UNL     1     -35.129  20.737   2.190  0.00  0.00    +0.245 C 
ATOM      6  CD  UNL     1     -34.649  22.688   0.640  0.00  0.00    +0.120 C 
ATOM      7  CB  UNL     1     -34.971  24.370   2.230  0.00  0.00    -0.000 C 
ATOM      8  CG  UNL     1     -34.569  24.139   0.975  0.00  0.00    -0.007 C 
BRANCH   4  11
ATOM      9  O   UNL     1     -37.365  23.811   4.044  0.00  0.00    -0.273 OA
ATOM     10  N   UNL     1     -37.567  22.412   2.194  0.00  0.00    -0.296 N 
ATOM     11  C   UNL     1     -36.871  23.168   3.122  0.00  0.00    +0.245 C 
ATOM     12  H   UNL     1     -37.056  21.939   1.498  0.00  0.00    +0.150 HD
BRANCH  10  13
ATOM     13  CA  UNL     1     -39.006  22.284   2.200  0.00  0.00    +0.163 C 
BRANCH  13  15
ATOM     14  O   UNL     1     -40.563  20.959   0.946  0.00  0.00    -0.286 OA
ATOM     15  C   UNL     1     -39.400  21.309   1.126  0.00  0.00    +0.229 C 
ENDBRANCH  13  15
ENDBRANCH  10  13
ENDBRANCH   4  11
ENDBRANCH   1   5
BRANCH   1  17
ATOM     16  O   UNL     1     -36.471  20.194  -1.131  0.00  0.00    -0.277 OA
ATOM     17  N   UNL     1     -35.808  19.038   0.772  0.00  0.00    -0.300 N 
ATOM     18  C   ACE A   0     -36.636  19.284  -0.321  0.00  0.00    +0.201 C 
ATOM     19  H   UNL     1     -36.029  18.281   1.362  0.00  0.00    +0.150 HD
BRANCH  18  20
ATOM     20  C   UNL     1     -37.798  18.316  -0.391  0.00  0.00    +0.005 C 
BRANCH  20  21
ATOM     21  N   UNL     1     -37.452  17.113   0.354  0.00  0.00    +0.388 N 
ATOM     22  H   UNL     1     -36.623  17.299   0.920  0.00  0.00    -0.084 HD
ATOM     23  H   UNL     1     -38.241  16.860   0.948  0.00  0.00    -0.084 HD
BRANCH  21  24
ATOM     24  C   UNL     1     -37.174  16.003  -0.548  0.00  0.00    -0.103 C 
BRANCH  24  26
ATOM     25  N   UNL     1     -35.424  14.284  -0.817  0.00  0.00    +0.384 N 
ATOM     26  C   UNL     1     -35.685  15.709  -0.613  0.00  0.00    -0.084 C 
ATOM     27  C   UNL     1     -35.001  16.341  -1.816  0.00  0.00    -0.026 C 
ATOM     28  C   UNL     1     -33.787  15.454  -2.065  0.00  0.00    -0.026 C 
ATOM     29  C   UNL     1     -34.023  14.205  -1.227  0.00  0.00    -0.082 C 
ATOM     30  H   UNL     1     -36.030  13.910  -1.546  0.00  0.00    -0.085 HD
ATOM     31  H   UNL     1     -35.605  13.739   0.025  0.00  0.00    -0.085 HD
ENDBRANCH  24  26
ENDBRANCH  21  24
ENDBRANCH  20  21
ENDBRANCH  18  20
ENDBRANCH   1  17
BRANCH   1  32
ATOM     32  CB  UNL     1     -33.475  18.988   1.570  0.00  0.00    +0.055 C 
BRANCH  32  33
ATOM     33  CG  UNL     1     -32.217  19.268   0.785  0.00  0.00    -0.020 C 
ATOM     34  CD1 UNL     1     -32.108  20.443   0.040  0.00  0.00    -0.004 C 
ATOM     35  CD2 UNL     1     -31.164  18.354   0.803  0.00  0.00    -0.004 C 
ATOM     36  CE1 UNL     1     -30.946  20.704  -0.686  0.00  0.00    -0.000 C 
ATOM     37  CE2 UNL     1     -30.002  18.614   0.076  0.00  0.00    -0.000 C 
ATOM     38  CZ  UNL     1     -29.893  19.789  -0.668  0.00  0.00    -0.000 C 
ENDBRANCH  32  33
ENDBRANCH   1  32
TORSDOF 11
ENDMDL
MODEL 3
REMARK VINA RESULT:      -6.0      2.822      7.255
REMARK  Name = 192389
REMARK  11 active torsions:
REMARK  status: ('A' for Active; 'I' for Inactive)
REMARK    1  A    between atoms: CA_1  and  C_5
REMARK    2  A    between atoms: CA_1  and  N_17
REMARK    3  A    between atoms: CA_1  and  CB_32
REMARK    4  A    between atoms: CA_4  and  C_11
REMARK    5  A    between atoms: N_10  and  CA_13
REMARK    6  A    between atoms: CA_13  and  C_15
REMARK    7  A    between atoms: C_18  and  C_20
REMARK    8  A    between atoms: C_20  and  N_21
REMARK    9  A    between atoms: N_21  and  C_24
REMARK   10  A    between atoms: C_24  and  C_26
REMARK   11  A    between atoms: CB_32  and  CG_33
REMARK                            x       y       z     vdW  Elec       q    Type
REMARK                         _______ _______ _______ _____ _____    ______ ____
ROOT
ATOM      1  CA  UNL     1     -34.600  19.780   1.077  0.00  0.00    +0.153 C 
ENDROOT
BRANCH   1   5
ATOM      2  O   UNL     1     -35.389  20.270   3.270  0.00  0.00    -0.273 OA
ATOM      3  N   UNL     1     -35.112  22.057   1.824  0.00  0.00    -0.264 N 
ATOM      4  CA  UNL     1     -35.405  23.097   2.804  0.00  0.00    +0.175 C 
ATOM      5  C   UNL     1     -35.070  20.712   2.165  0.00  0.00    +0.245 C 
ATOM      6  CD  UNL     1     -34.741  22.621   0.526  0.00  0.00    +0.120 C 
ATOM      7  CB  UNL     1     -35.070  24.348   2.066  0.00  0.00    -0.000 C 
ATOM      8  CG  UNL     1     -34.712  24.086   0.805  0.00  0.00    -0.007 C 
BRANCH   4  11
ATOM      9  O   UNL     1     -37.354  23.729   4.024  0.00  0.00    -0.273 OA
ATOM     10  N   UNL     1     -37.582  22.318   2.188  0.00  0.00    -0.296 N 
ATOM     11  C   UNL     1     -36.876  23.102   3.084  0.00  0.00    +0.245 C 
ATOM     12  H   UNL     1     -37.084  21.861   1.471  0.00  0.00    +0.150 HD
BRANCH  10  13
ATOM     13  CA  UNL     1     -39.014  22.136   2.255  0.00  0.00    +0.163 C 
BRANCH  13  15
ATOM     14  O   UNL     1     -40.619  21.059   0.835  0.00  0.00    -0.286 OA
ATOM     15  C   UNL     1     -39.440  21.291   1.088  0.00  0.00    +0.229 C 
ENDBRANCH  13  15
ENDBRANCH  10  13
ENDBRANCH   4  11
ENDBRANCH   1   5
BRANCH   1  17
ATOM     16  O   UNL     1     -36.206  20.068  -1.312  0.00  0.00    -0.277 OA
ATOM     17  N   UNL     1     -35.779  19.042   0.729  0.00  0.00    -0.300 N 
ATOM     18  C   ACE A   0     -36.498  19.244  -0.447  0.00  0.00    +0.201 C 
ATOM     19  H   UNL     1     -36.099  18.354   1.356  0.00  0.00    +0.150 HD
BRANCH  18  20
ATOM     20  C   UNL     1     -37.715  18.347  -0.538  0.00  0.00    +0.005 C 
BRANCH  20  21
ATOM     21  N   UNL     1     -37.498  17.177   0.300  0.00  0.00    +0.388 N 
ATOM     22  H   UNL     1     -36.834  17.414   1.038  0.00  0.00    -0.084 HD
ATOM     23  H   UNL     1     -38.392  16.895   0.702  0.00  0.00    -0.084 HD
BRANCH  21  24
ATOM     24  C   UNL     1     -36.969  16.067  -0.480  0.00  0.00    -0.103 C 
BRANCH  24  26
ATOM     25  N   UNL     1     -37.670  13.997  -1.628  0.00  0.00    +0.384 N 
ATOM     26  C   UNL     1     -38.076  15.346  -1.230  0.00  0.00    -0.084 C 
ATOM     27  C   UNL     1     -39.304  15.078  -0.374  0.00  0.00    -0.026 C 
ATOM     28  C   UNL     1     -39.956  13.864  -1.025  0.00  0.00    -0.026 C 
ATOM     29  C   UNL     1     -38.911  13.314  -1.987  0.00  0.00    -0.082 C 
ATOM     30  H   UNL     1     -37.210  13.520  -0.855  0.00  0.00    -0.085 HD
ATOM     31  H   UNL     1     -37.007  14.012  -2.403  0.00  0.00    -0.085 HD
ENDBRANCH  24  26
ENDBRANCH  21  24
ENDBRANCH  20  21
ENDBRANCH  18  20
ENDBRANCH   1  17
BRANCH   1  32
ATOM     32  CB  UNL     1     -33.474  18.894   1.593  0.00  0.00    +0.055 C 
BRANCH  32  33
ATOM     33  CG  UNL     1     -32.182  19.126   0.850  0.00  0.00    -0.020 C 
ATOM     34  CD1 UNL     1     -31.160  18.178   0.917  0.00  0.00    -0.004 C 
ATOM     35  CD2 UNL     1     -32.008  20.286   0.096  0.00  0.00    -0.004 C 
ATOM     36  CE1 UNL     1     -29.965  18.391   0.229  0.00  0.00    -0.000 C 
ATOM     37  CE2 UNL     1     -30.813  20.499  -0.591  0.00  0.00    -0.000 C 
ATOM     38  CZ  UNL     1     -29.791  19.552  -0.524  0.00  0.00    -0.000 C 
ENDBRANCH  32  33
ENDBRANCH   1  32
TORSDOF 11
ENDMDL
MODEL 4
REMARK VINA RESULT:      -5.9      4.383      8.122
REMARK  Name = 192389
REMARK  11 active torsions:
REMARK  status: ('A' for Active; 'I' for Inactive)
REMARK    1  A    between atoms: CA_1  and  C_5
REMARK    2  A    between atoms: CA_1  and  N_17
REMARK    3  A    between atoms: CA_1  and  CB_32
REMARK    4  A    between atoms: CA_4  and  C_11
REMARK    5  A    between atoms: N_10  and  CA_13
REMARK    6  A    between atoms: CA_13  and  C_15
REMARK    7  A    between atoms: C_18  and  C_20
REMARK    8  A    between atoms: C_20  and  N_21
REMARK    9  A    between atoms: N_21  and  C_24
REMARK   10  A    between atoms: C_24  and  C_26
REMARK   11  A    between atoms: CB_32  and  CG_33
REMARK                            x       y       z     vdW  Elec       q    Type
REMARK                         _______ _______ _______ _____ _____    ______ ____
ROOT
ATOM      1  CA  UNL     1     -34.752  28.015   3.171  0.00  0.00    +0.153 C 
ENDROOT
BRANCH   1   5
ATOM      2  O   UNL     1     -35.439  26.376   1.587  0.00  0.00    -0.273 OA
ATOM      3  N   UNL     1     -35.349  25.726   3.807  0.00  0.00    -0.264 N 
ATOM      4  CA  UNL     1     -35.644  24.317   3.569  0.00  0.00    +0.175 C 
ATOM      5  C   UNL     1     -35.211  26.636   2.769  0.00  0.00    +0.245 C 
ATOM      6  CD  UNL     1     -35.088  25.995   5.221  0.00  0.00    +0.120 C 
ATOM      7  CB  UNL     1     -35.425  23.704   4.909  0.00  0.00    -0.000 C 
ATOM      8  CG  UNL     1     -35.126  24.632   5.825  0.00  0.00    -0.007 C 
BRANCH   4  11
ATOM      9  O   UNL     1     -37.981  24.553   3.983  0.00  0.00    -0.273 OA
ATOM     10  N   UNL     1     -37.282  23.562   1.997  0.00  0.00    -0.296 N 
ATOM     11  C   UNL     1     -37.093  24.174   3.224  0.00  0.00    +0.245 C 
ATOM     12  H   UNL     1     -36.487  23.302   1.476  0.00  0.00    +0.150 HD
BRANCH  10  13
ATOM     13  CA  UNL     1     -38.588  23.286   1.444  0.00  0.00    +0.163 C 
BRANCH  13  15
ATOM     14  O   UNL     1     -40.219  21.588   1.899  0.00  0.00    -0.286 OA
ATOM     15  C   UNL     1     -39.047  21.950   1.956  0.00  0.00    +0.229 C 
ENDBRANCH  13  15
ENDBRANCH  10  13
ENDBRANCH   4  11
ENDBRANCH   1   5
BRANCH   1  17
ATOM     16  O   UNL     1     -35.379  30.815   3.542  0.00  0.00    -0.277 OA
ATOM     17  N   UNL     1     -35.436  28.881   2.255  0.00  0.00    -0.300 N 
ATOM     18  C   ACE A   0     -35.699  30.225   2.513  0.00  0.00    +0.201 C 
ATOM     19  H   UNL     1     -35.736  28.505   1.396  0.00  0.00    +0.150 HD
BRANCH  18  20
ATOM     20  C   UNL     1     -36.462  30.887   1.384  0.00  0.00    +0.005 C 
BRANCH  20  21
ATOM     21  N   UNL     1     -36.904  32.202   1.825  0.00  0.00    +0.388 N 
ATOM     22  H   UNL     1     -36.742  32.289   2.829  0.00  0.00    -0.084 HD
ATOM     23  H   UNL     1     -36.375  32.911   1.316  0.00  0.00    -0.084 HD
BRANCH  21  24
ATOM     24  C   UNL     1     -38.322  32.395   1.553  0.00  0.00    -0.103 C 
BRANCH  24  26
ATOM     25  N   UNL     1     -39.177  34.513   2.489  0.00  0.00    +0.384 N 
ATOM     26  C   UNL     1     -38.637  33.859   1.297  0.00  0.00    -0.084 C 
ATOM     27  C   UNL     1     -37.402  34.695   0.996  0.00  0.00    -0.026 C 
ATOM     28  C   UNL     1     -37.796  36.107   1.412  0.00  0.00    -0.026 C 
ATOM     29  C   UNL     1     -39.078  35.946   2.219  0.00  0.00    -0.082 C 
ATOM     30  H   UNL     1     -38.628  34.267   3.311  0.00  0.00    -0.085 HD
ATOM     31  H   UNL     1     -40.137  34.227   2.679  0.00  0.00    -0.085 HD
ENDBRANCH  24  26
ENDBRANCH  21  24
ENDBRANCH  20  21
ENDBRANCH  18  20
ENDBRANCH   1  17
BRANCH   1  32
ATOM     32  CB  UNL     1     -33.236  28.117   3.068  0.00  0.00    +0.055 C 
BRANCH  32  33
ATOM     33  CG  UNL     1     -32.622  28.728   4.302  0.00  0.00    -0.020 C 
ATOM     34  CD1 UNL     1     -32.289  30.083   4.316  0.00  0.00    -0.004 C 
ATOM     35  CD2 UNL     1     -32.387  27.941   5.429  0.00  0.00    -0.004 C 
ATOM     36  CE1 UNL     1     -31.722  30.651   5.457  0.00  0.00    -0.000 C 
ATOM     37  CE2 UNL     1     -31.820  28.508   6.570  0.00  0.00    -0.000 C 
ATOM     38  CZ  UNL     1     -31.487  29.863   6.584  0.00  0.00    -0.000 C 
ENDBRANCH  32  33
ENDBRANCH   1  32
TORSDOF 11
ENDMDL
MODEL 5
REMARK VINA RESULT:      -5.8      2.190      6.395
REMARK  Name = 192389
REMARK  11 active torsions:
REMARK  status: ('A' for Active; 'I' for Inactive)
REMARK    1  A    between atoms: CA_1  and  C_5
REMARK    2  A    between atoms: CA_1  and  N_17
REMARK    3  A    between atoms: CA_1  and  CB_32
REMARK    4  A    between atoms: CA_4  and  C_11
REMARK    5  A    between atoms: N_10  and  CA_13
REMARK    6  A    between atoms: CA_13  and  C_15
REMARK    7  A    between atoms: C_18  and  C_20
REMARK    8  A    between atoms: C_20  and  N_21
REMARK    9  A    between atoms: N_21  and  C_24
REMARK   10  A    between atoms: C_24  and  C_26
REMARK   11  A    between atoms: CB_32  and  CG_33
REMARK                            x       y       z     vdW  Elec       q    Type
REMARK                         _______ _______ _______ _____ _____    ______ ____
ROOT
ATOM      1  CA  UNL     1     -36.095  21.402   1.398  0.00  0.00    +0.153 C 
ENDROOT
BRANCH   1   5
ATOM      2  O   UNL     1     -38.064  21.987   2.603  0.00  0.00    -0.273 OA
ATOM      3  N   UNL     1     -36.202  23.331   2.904  0.00  0.00    -0.264 N 
ATOM      4  CA  UNL     1     -36.781  24.166   3.951  0.00  0.00    +0.175 C 
ATOM      5  C   UNL     1     -36.887  22.257   2.354  0.00  0.00    +0.245 C 
ATOM      6  CD  UNL     1     -34.808  23.685   2.635  0.00  0.00    +0.120 C 
ATOM      7  CB  UNL     1     -35.616  24.978   4.405  0.00  0.00    -0.000 C 
ATOM      8  CG  UNL     1     -34.528  24.718   3.672  0.00  0.00    -0.007 C 
BRANCH   4  11
ATOM      9  O   UNL     1     -37.443  26.058   2.659  0.00  0.00    -0.273 OA
ATOM     10  N   UNL     1     -39.084  24.738   3.648  0.00  0.00    -0.296 N 
ATOM     11  C   UNL     1     -37.783  25.093   3.337  0.00  0.00    +0.245 C 
ATOM     12  H   UNL     1     -39.231  23.938   4.204  0.00  0.00    +0.150 HD
BRANCH  10  13
ATOM     13  CA  UNL     1     -40.236  25.485   3.198  0.00  0.00    +0.163 C 
BRANCH  13  15
ATOM     14  O   UNL     1     -40.261  25.215   0.815  0.00  0.00    -0.286 OA
ATOM     15  C   UNL     1     -40.716  24.884   1.906  0.00  0.00    +0.229 C 
ENDBRANCH  13  15
ENDBRANCH  10  13
ENDBRANCH   4  11
ENDBRANCH   1   5
BRANCH   1  17
ATOM     16  O   UNL     1     -36.510  21.627  -1.456  0.00  0.00    -0.277 OA
ATOM     17  N   UNL     1     -37.101  20.749   0.612  0.00  0.00    -0.300 N 
ATOM     18  C   ACE A   0     -37.233  20.913  -0.765  0.00  0.00    +0.201 C 
ATOM     19  H   UNL     1     -37.734  20.151   1.072  0.00  0.00    +0.150 HD
BRANCH  18  20
ATOM     20  C   UNL     1     -38.400  20.128  -1.328  0.00  0.00    +0.005 C 
BRANCH  20  21
ATOM     21  N   UNL     1     -38.659  18.987  -0.461  0.00  0.00    +0.388 N 
ATOM     22  H   UNL     1     -38.147  19.109   0.413  0.00  0.00    -0.084 HD
ATOM     23  H   UNL     1     -39.662  18.935  -0.283  0.00  0.00    -0.084 HD
BRANCH  21  24
ATOM     24  C   UNL     1     -38.234  17.745  -1.093  0.00  0.00    -0.103 C 
BRANCH  24  26
ATOM     25  N   UNL     1     -36.973  15.714  -0.476  0.00  0.00    +0.384 N 
ATOM     26  C   UNL     1     -37.002  17.176  -0.411  0.00  0.00    -0.084 C 
ATOM     27  C   UNL     1     -35.702  17.559  -1.102  0.00  0.00    -0.026 C 
ATOM     28  C   UNL     1     -34.735  16.444  -0.724  0.00  0.00    -0.026 C 
ATOM     29  C   UNL     1     -35.603  15.341  -0.133  0.00  0.00    -0.082 C 
ATOM     30  H   UNL     1     -37.206  15.394  -1.415  0.00  0.00    -0.085 HD
ATOM     31  H   UNL     1     -37.653  15.291   0.156  0.00  0.00    -0.085 HD
ENDBRANCH  24  26
ENDBRANCH  21  24
ENDBRANCH  20  21
ENDBRANCH  18  20
ENDBRANCH   1  17
BRANCH   1  32
ATOM     32  CB  UNL     1     -35.216  20.426   2.170  0.00  0.00    +0.055 C 
BRANCH  32  33
ATOM     33  CG  UNL     1     -33.960  20.071   1.412  0.00  0.00    -0.020 C 
ATOM     34  CD1 UNL     1     -33.326  18.851   1.649  0.00  0.00    -0.004 C 
ATOM     35  CD2 UNL     1     -33.435  20.959   0.475  0.00  0.00    -0.004 C 
ATOM     36  CE1 UNL     1     -32.166  18.520   0.949  0.00  0.00    -0.000 C 
ATOM     37  CE2 UNL     1     -32.275  20.629  -0.226  0.00  0.00    -0.000 C 
ATOM     38  CZ  UNL     1     -31.640  19.410   0.012  0.00  0.00    -0.000 C 
ENDBRANCH  32  33
ENDBRANCH   1  32
TORSDOF 11
ENDMDL
MODEL 6
REMARK VINA RESULT:      -5.7      1.820      3.089
REMARK  Name = 192389
REMARK  11 active torsions:
REMARK  status: ('A' for Active; 'I' for Inactive)
REMARK    1  A    between atoms: CA_1  and  C_5
REMARK    2  A    between atoms: CA_1  and  N_17
REMARK    3  A    between atoms: CA_1  and  CB_32
REMARK    4  A    between atoms: CA_4  and  C_11
REMARK    5  A    between atoms: N_10  and  CA_13
REMARK    6  A    between atoms: CA_13  and  C_15
REMARK    7  A    between atoms: C_18  and  C_20
REMARK    8  A    between atoms: C_20  and  N_21
REMARK    9  A    between atoms: N_21  and  C_24
REMARK   10  A    between atoms: C_24  and  C_26
REMARK   11  A    between atoms: CB_32  and  CG_33
REMARK                            x       y       z     vdW  Elec       q    Type
REMARK                         _______ _______ _______ _____ _____    ______ ____
ROOT
ATOM      1  CA  UNL     1     -36.489  21.963   2.555  0.00  0.00    +0.153 C 
ENDROOT
BRANCH   1   5
ATOM      2  O   UNL     1     -38.779  21.472   2.123  0.00  0.00    -0.273 OA
ATOM      3  N   UNL     1     -38.178  23.706   2.219  0.00  0.00    -0.264 N 
ATOM      4  CA  UNL     1     -39.532  24.236   2.104  0.00  0.00    +0.175 C 
ATOM      5  C   UNL     1     -37.922  22.343   2.280  0.00  0.00    +0.245 C 
ATOM      6  CD  UNL     1     -37.190  24.770   2.399  0.00  0.00    +0.120 C 
ATOM      7  CB  UNL     1     -39.337  25.693   2.352  0.00  0.00    -0.000 C 
ATOM      8  CG  UNL     1     -38.042  25.990   2.506  0.00  0.00    -0.007 C 
BRANCH   4  11
ATOM      9  O   UNL     1     -39.474  24.651  -0.244  0.00  0.00    -0.273 OA
ATOM     10  N   UNL     1     -41.090  23.208   0.608  0.00  0.00    -0.296 N 
ATOM     11  C   UNL     1     -40.005  24.064   0.695  0.00  0.00    +0.245 C 
ATOM     12  H   UNL     1     -41.428  22.796   1.435  0.00  0.00    +0.150 HD
BRANCH  10  13
ATOM     13  CA  UNL     1     -41.749  22.893  -0.639  0.00  0.00    +0.163 C 
BRANCH  13  15
ATOM     14  O   UNL     1     -41.308  20.634   0.034  0.00  0.00    -0.286 OA
ATOM     15  C   UNL     1     -41.854  21.399  -0.756  0.00  0.00    +0.229 C 
ENDBRANCH  13  15
ENDBRANCH  10  13
ENDBRANCH   4  11
ENDBRANCH   1   5
BRANCH   1  17
ATOM     16  O   UNL     1     -35.115  20.982   4.904  0.00  0.00    -0.277 OA
ATOM     17  N   UNL     1     -36.165  22.699   3.742  0.00  0.00    -0.300 N 
ATOM     18  C   ACE A   0     -35.498  22.148   4.834  0.00  0.00    +0.201 C 
ATOM     19  H   UNL     1     -36.428  23.647   3.788  0.00  0.00    +0.150 HD
BRANCH  18  20
ATOM     20  C   UNL     1     -35.317  23.146   5.960  0.00  0.00    +0.005 C 
BRANCH  20  21
ATOM     21  N   UNL     1     -35.797  24.447   5.515  0.00  0.00    +0.388 N 
ATOM     22  H   UNL     1     -35.993  24.405   4.514  0.00  0.00    -0.084 HD
ATOM     23  H   UNL     1     -36.643  24.677   6.035  0.00  0.00    -0.084 HD
BRANCH  21  24
ATOM     24  C   UNL     1     -34.802  25.482   5.763  0.00  0.00    -0.103 C 
BRANCH  24  26
ATOM     25  N   UNL     1     -33.530  27.332   4.737  0.00  0.00    +0.384 N 
ATOM     26  C   UNL     1     -34.454  26.226   4.484  0.00  0.00    -0.084 C 
ATOM     27  C   UNL     1     -33.680  25.376   3.488  0.00  0.00    -0.026 C 
ATOM     28  C   UNL     1     -32.899  26.388   2.659  0.00  0.00    -0.026 C 
ATOM     29  C   UNL     1     -33.005  27.701   3.424  0.00  0.00    -0.082 C 
ATOM     30  H   UNL     1     -32.775  27.034   5.352  0.00  0.00    -0.085 HD
ATOM     31  H   UNL     1     -33.992  28.117   5.196  0.00  0.00    -0.085 HD
ENDBRANCH  24  26
ENDBRANCH  21  24
ENDBRANCH  20  21
ENDBRANCH  18  20
ENDBRANCH   1  17
BRANCH   1  32
ATOM     32  CB  UNL     1     -35.609  22.332   1.367  0.00  0.00    +0.055 C 
BRANCH  32  33
ATOM     33  CG  UNL     1     -34.533  21.305   1.117  0.00  0.00    -0.020 C 
ATOM     34  CD1 UNL     1     -34.612  20.051   1.723  0.00  0.00    -0.004 C 
ATOM     35  CD2 UNL     1     -33.459  21.608   0.281  0.00  0.00    -0.004 C 
ATOM     36  CE1 UNL     1     -33.618  19.100   1.492  0.00  0.00    -0.000 C 
ATOM     37  CE2 UNL     1     -32.464  20.658   0.050  0.00  0.00    -0.000 C 
ATOM     38  CZ  UNL     1     -32.543  19.404   0.656  0.00  0.00    -0.000 C 
ENDBRANCH  32  33
ENDBRANCH   1  32
TORSDOF 11
ENDMDL
MODEL 7
REMARK VINA RESULT:      -5.7      2.195      5.581
REMARK  Name = 192389
REMARK  11 active torsions:
REMARK  status: ('A' for Active; 'I' for Inactive)
REMARK    1  A    between atoms: CA_1  and  C_5
REMARK    2  A    between atoms: CA_1  and  N_17
REMARK    3  A    between atoms: CA_1  and  CB_32
REMARK    4  A    between atoms: CA_4  and  C_11
REMARK    5  A    between atoms: N_10  and  CA_13
REMARK    6  A    between atoms: CA_13  and  C_15
REMARK    7  A    between atoms: C_18  and  C_20
REMARK    8  A    between atoms: C_20  and  N_21
REMARK    9  A    between atoms: N_21  and  C_24
REMARK   10  A    between atoms: C_24  and  C_26
REMARK   11  A    between atoms: CB_32  and  CG_33
REMARK                            x       y       z     vdW  Elec       q    Type
REMARK                         _______ _______ _______ _____ _____    ______ ____
ROOT
ATOM      1  CA  UNL     1     -34.784  20.018   1.196  0.00  0.00    +0.153 C 
ENDROOT
BRANCH   1   5
ATOM      2  O   UNL     1     -35.543  20.470   3.407  0.00  0.00    -0.273 OA
ATOM      3  N   UNL     1     -35.006  22.291   2.082  0.00  0.00    -0.264 N 
ATOM      4  CA  UNL     1     -35.177  23.298   3.124  0.00  0.00    +0.175 C 
ATOM      5  C   UNL     1     -35.148  20.934   2.337  0.00  0.00    +0.245 C 
ATOM      6  CD  UNL     1     -34.540  22.881   0.827  0.00  0.00    +0.120 C 
ATOM      7  CB  UNL     1     -34.667  24.536   2.471  0.00  0.00    -0.000 C 
ATOM      8  CG  UNL     1     -34.323  24.308   1.199  0.00  0.00    -0.007 C 
BRANCH   4  11
ATOM      9  O   UNL     1     -37.055  23.911   4.460  0.00  0.00    -0.273 OA
ATOM     10  N   UNL     1     -37.419  23.090   2.313  0.00  0.00    -0.296 N 
ATOM     11  C   UNL     1     -36.639  23.480   3.388  0.00  0.00    +0.245 C 
ATOM     12  H   UNL     1     -36.967  22.759   1.503  0.00  0.00    +0.150 HD
BRANCH  10  13
ATOM     13  CA  UNL     1     -38.863  23.145   2.323  0.00  0.00    +0.163 C 
BRANCH  13  15
ATOM     14  O   UNL     1     -38.666  20.897   1.511  0.00  0.00    -0.286 OA
ATOM     15  C   UNL     1     -39.391  21.795   1.928  0.00  0.00    +0.229 C 
ENDBRANCH  13  15
ENDBRANCH  10  13
ENDBRANCH   4  11
ENDBRANCH   1   5
BRANCH   1  17
ATOM     16  O   UNL     1     -35.355  18.403  -1.136  0.00  0.00    -0.277 OA
ATOM     17  N   UNL     1     -36.026  19.384   0.861  0.00  0.00    -0.300 N 
ATOM     18  C   ACE A   0     -36.218  18.619  -0.288  0.00  0.00    +0.201 C 
ATOM     19  H   UNL     1     -36.786  19.495   1.477  0.00  0.00    +0.150 HD
BRANCH  18  20
ATOM     20  C   UNL     1     -37.636  18.098  -0.402  0.00  0.00    +0.005 C 
BRANCH  20  21
ATOM     21  N   UNL     1     -38.518  19.209  -0.730  0.00  0.00    +0.388 N 
ATOM     22  H   UNL     1     -39.461  18.993  -0.406  0.00  0.00    -0.084 HD
ATOM     23  H   UNL     1     -38.167  20.050  -0.271  0.00  0.00    -0.084 HD
BRANCH  21  24
ATOM     24  C   UNL     1     -38.551  19.443  -2.167  0.00  0.00    -0.103 C 
BRANCH  24  26
ATOM     25  N   UNL     1     -37.983  21.680  -1.293  0.00  0.00    +0.384 N 
ATOM     26  C   UNL     1     -38.156  20.871  -2.500  0.00  0.00    -0.084 C 
ATOM     27  C   UNL     1     -36.790  20.978  -3.162  0.00  0.00    -0.026 C 
ATOM     28  C   UNL     1     -36.318  22.386  -2.820  0.00  0.00    -0.026 C 
ATOM     29  C   UNL     1     -37.262  22.874  -1.730  0.00  0.00    -0.082 C 
ATOM     30  H   UNL     1     -37.442  21.171  -0.596  0.00  0.00    -0.085 HD
ATOM     31  H   UNL     1     -38.877  21.913  -0.859  0.00  0.00    -0.085 HD
ENDBRANCH  24  26
ENDBRANCH  21  24
ENDBRANCH  20  21
ENDBRANCH  18  20
ENDBRANCH   1  17
BRANCH   1  32
ATOM     32  CB  UNL     1     -33.712  19.030   1.635  0.00  0.00    +0.055 C 
BRANCH  32  33
ATOM     33  CG  UNL     1     -32.418  19.225   0.884  0.00  0.00    -0.020 C 
ATOM     34  CD1 UNL     1     -31.412  18.261   0.967  0.00  0.00    -0.004 C 
ATOM     35  CD2 UNL     1     -32.226  20.367   0.107  0.00  0.00    -0.004 C 
ATOM     36  CE1 UNL     1     -30.216  18.440   0.273  0.00  0.00    -0.000 C 
ATOM     37  CE2 UNL     1     -31.030  20.546  -0.587  0.00  0.00    -0.000 C 
ATOM     38  CZ  UNL     1     -30.024  19.583  -0.504  0.00  0.00    -0.000 C 
ENDBRANCH  32  33
ENDBRANCH   1  32
TORSDOF 11
ENDMDL
MODEL 8
REMARK VINA RESULT:      -5.6      2.155      6.876
REMARK  Name = 192389
REMARK  11 active torsions:
REMARK  status: ('A' for Active; 'I' for Inactive)
REMARK    1  A    between atoms: CA_1  and  C_5
REMARK    2  A    between atoms: CA_1  and  N_17
REMARK    3  A    between atoms: CA_1  and  CB_32
REMARK    4  A    between atoms: CA_4  and  C_11
REMARK    5  A    between atoms: N_10  and  CA_13
REMARK    6  A    between atoms: CA_13  and  C_15
REMARK    7  A    between atoms: C_18  and  C_20
REMARK    8  A    between atoms: C_20  and  N_21
REMARK    9  A    between atoms: N_21  and  C_24
REMARK   10  A    between atoms: C_24  and  C_26
REMARK   11  A    between atoms: CB_32  and  CG_33
REMARK                            x       y       z     vdW  Elec       q    Type
REMARK                         _______ _______ _______ _____ _____    ______ ____
ROOT
ATOM      1  CA  UNL     1     -36.229  22.597   2.722  0.00  0.00    +0.153 C 
ENDROOT
BRANCH   1   5
ATOM      2  O   UNL     1     -38.155  21.247   2.350  0.00  0.00    -0.273 OA
ATOM      3  N   UNL     1     -38.437  23.543   2.241  0.00  0.00    -0.264 N 
ATOM      4  CA  UNL     1     -39.887  23.515   2.088  0.00  0.00    +0.175 C 
ATOM      5  C   UNL     1     -37.691  22.387   2.423  0.00  0.00    +0.245 C 
ATOM      6  CD  UNL     1     -37.925  24.912   2.319  0.00  0.00    +0.120 C 
ATOM      7  CB  UNL     1     -40.258  24.953   2.204  0.00  0.00    -0.000 C 
ATOM      8  CG  UNL     1     -39.173  25.726   2.322  0.00  0.00    -0.007 C 
BRANCH   4  11
ATOM      9  O   UNL     1     -40.164  23.815  -0.262  0.00  0.00    -0.273 OA
ATOM     10  N   UNL     1     -40.610  21.729   0.669  0.00  0.00    -0.296 N 
ATOM     11  C   UNL     1     -40.222  23.057   0.703  0.00  0.00    +0.245 C 
ATOM     12  H   UNL     1     -40.617  21.222   1.513  0.00  0.00    +0.150 HD
BRANCH  10  13
ATOM     13  CA  UNL     1     -41.008  21.053  -0.544  0.00  0.00    +0.163 C 
BRANCH  13  15
ATOM     14  O   UNL     1     -39.502  19.194  -0.715  0.00  0.00    -0.286 OA
ATOM     15  C   UNL     1     -39.816  20.320  -1.091  0.00  0.00    +0.229 C 
ENDBRANCH  13  15
ENDBRANCH  10  13
ENDBRANCH   4  11
ENDBRANCH   1   5
BRANCH   1  17
ATOM     16  O   UNL     1     -34.133  22.265   0.755  0.00  0.00    -0.277 OA
ATOM     17  N   UNL     1     -35.616  21.370   2.303  0.00  0.00    -0.300 N 
ATOM     18  C   ACE A   0     -34.608  21.297   1.345  0.00  0.00    +0.201 C 
ATOM     19  H   UNL     1     -35.926  20.531   2.717  0.00  0.00    +0.150 HD
BRANCH  18  20
ATOM     20  C   UNL     1     -34.171  19.871   1.078  0.00  0.00    +0.005 C 
BRANCH  20  21
ATOM     21  N   UNL     1     -35.355  19.039   0.923  0.00  0.00    +0.388 N 
ATOM     22  H   UNL     1     -35.266  18.218   1.522  0.00  0.00    -0.084 HD
ATOM     23  H   UNL     1     -36.174  19.587   1.189  0.00  0.00    -0.084 HD
BRANCH  21  24
ATOM     24  C   UNL     1     -35.513  18.607  -0.459  0.00  0.00    -0.103 C 
BRANCH  24  26
ATOM     25  N   UNL     1     -37.358  17.172   0.336  0.00  0.00    +0.384 N 
ATOM     26  C   UNL     1     -36.184  17.247  -0.536  0.00  0.00    -0.084 C 
ATOM     27  C   UNL     1     -36.775  16.945  -1.905  0.00  0.00    -0.026 C 
ATOM     28  C   UNL     1     -37.891  15.948  -1.619  0.00  0.00    -0.026 C 
ATOM     29  C   UNL     1     -38.093  15.991  -0.110  0.00  0.00    -0.082 C 
ATOM     30  H   UNL     1     -37.931  18.009   0.235  0.00  0.00    -0.085 HD
ATOM     31  H   UNL     1     -37.098  17.110   1.320  0.00  0.00    -0.085 HD
ENDBRANCH  24  26
ENDBRANCH  21  24
ENDBRANCH  20  21
ENDBRANCH  18  20
ENDBRANCH   1  17
BRANCH   1  32
ATOM     32  CB  UNL     1     -36.031  22.886   4.204  0.00  0.00    +0.055 C 
BRANCH  32  33
ATOM     33  CG  UNL     1     -35.221  24.138   4.436  0.00  0.00    -0.020 C 
ATOM     34  CD1 UNL     1     -35.313  24.811   5.655  0.00  0.00    -0.004 C 
ATOM     35  CD2 UNL     1     -34.380  24.621   3.434  0.00  0.00    -0.004 C 
ATOM     36  CE1 UNL     1     -34.564  25.967   5.871  0.00  0.00    -0.000 C 
ATOM     37  CE2 UNL     1     -33.631  25.778   3.650  0.00  0.00    -0.000 C 
ATOM     38  CZ  UNL     1     -33.723  26.452   4.869  0.00  0.00    -0.000 C 
ENDBRANCH  32  33
ENDBRANCH   1  32
TORSDOF 11
ENDMDL
MODEL 9
REMARK VINA RESULT:      -5.6      5.242      9.798
REMARK  Name = 192389
REMARK  11 active torsions:
REMARK  status: ('A' for Active; 'I' for Inactive)
REMARK    1  A    between atoms: CA_1  and  C_5
REMARK    2  A    between atoms: CA_1  and  N_17
REMARK    3  A    between atoms: CA_1  and  CB_32
REMARK    4  A    between atoms: CA_4  and  C_11
REMARK    5  A    between atoms: N_10  and  CA_13
REMARK    6  A    between atoms: CA_13  and  C_15
REMARK    7  A    between atoms: C_18  and  C_20
REMARK    8  A    between atoms: C_20  and  N_21
REMARK    9  A    between atoms: N_21  and  C_24
REMARK   10  A    between atoms: C_24  and  C_26
REMARK   11  A    between atoms: CB_32  and  CG_33
REMARK                            x       y       z     vdW  Elec       q    Type
REMARK                         _______ _______ _______ _____ _____    ______ ____
ROOT
ATOM      1  CA  UNL     1     -32.669  30.116   4.077  0.00  0.00    +0.153 C 
ENDROOT
BRANCH   1   5
ATOM      2  O   UNL     1     -34.903  30.899   3.820  0.00  0.00    -0.273 OA
ATOM      3  N   UNL     1     -33.275  31.906   2.518  0.00  0.00    -0.264 N 
ATOM      4  CA  UNL     1     -34.143  32.928   1.944  0.00  0.00    +0.175 C 
ATOM      5  C   UNL     1     -33.726  31.003   3.469  0.00  0.00    +0.245 C 
ATOM      6  CD  UNL     1     -31.888  32.060   2.075  0.00  0.00    +0.120 C 
ATOM      7  CB  UNL     1     -33.184  33.804   1.215  0.00  0.00    -0.000 C 
ATOM      8  CG  UNL     1     -31.939  33.320   1.280  0.00  0.00    -0.007 C 
BRANCH   4  11
ATOM      9  O   UNL     1     -34.699  32.113  -0.228  0.00  0.00    -0.273 OA
ATOM     10  N   UNL     1     -36.280  31.959   1.473  0.00  0.00    -0.296 N 
ATOM     11  C   UNL     1     -35.047  32.288   0.936  0.00  0.00    +0.245 C 
ATOM     12  H   UNL     1     -36.442  32.149   2.425  0.00  0.00    +0.150 HD
BRANCH  10  13
ATOM     13  CA  UNL     1     -37.340  31.351   0.702  0.00  0.00    +0.163 C 
BRANCH  13  15
ATOM     14  O   UNL     1     -39.559  32.033   1.304  0.00  0.00    -0.286 OA
ATOM     15  C   UNL     1     -38.519  32.282   0.701  0.00  0.00    +0.229 C 
ENDBRANCH  13  15
ENDBRANCH  10  13
ENDBRANCH   4  11
ENDBRANCH   1   5
BRANCH   1  17
ATOM     16  O   UNL     1     -31.365  27.541   3.879  0.00  0.00    -0.277 OA
ATOM     17  N   UNL     1     -33.289  28.823   4.112  0.00  0.00    -0.300 N 
ATOM     18  C   ACE A   0     -32.584  27.626   4.009  0.00  0.00    +0.201 C 
ATOM     19  H   UNL     1     -34.267  28.779   4.214  0.00  0.00    +0.150 HD
BRANCH  18  20
ATOM     20  C   UNL     1     -33.497  26.417   4.044  0.00  0.00    +0.005 C 
BRANCH  20  21
ATOM     21  N   UNL     1     -34.736  26.786   4.713  0.00  0.00    +0.388 N 
ATOM     22  H   UNL     1     -34.570  27.607   5.296  0.00  0.00    -0.084 HD
ATOM     23  H   UNL     1     -35.441  26.989   4.004  0.00  0.00    -0.084 HD
BRANCH  21  24
ATOM     24  C   UNL     1     -35.221  25.697   5.552  0.00  0.00    -0.103 C 
BRANCH  24  26
ATOM     25  N   UNL     1     -37.175  26.015   4.077  0.00  0.00    +0.384 N 
ATOM     26  C   UNL     1     -36.492  25.090   4.983  0.00  0.00    -0.084 C 
ATOM     27  C   UNL     1     -36.234  23.888   4.087  0.00  0.00    -0.026 C 
ATOM     28  C   UNL     1     -37.438  23.850   3.155  0.00  0.00    -0.026 C 
ATOM     29  C   UNL     1     -38.132  25.193   3.340  0.00  0.00    -0.082 C 
ATOM     30  H   UNL     1     -36.509  26.447   3.439  0.00  0.00    -0.085 HD
ATOM     31  H   UNL     1     -37.633  26.773   4.582  0.00  0.00    -0.085 HD
ENDBRANCH  24  26
ENDBRANCH  21  24
ENDBRANCH  20  21
ENDBRANCH  18  20
ENDBRANCH   1  17
BRANCH   1  32
ATOM     32  CB  UNL     1     -32.282  30.628   5.458  0.00  0.00    +0.055 C 
BRANCH  32  33
ATOM     33  CG  UNL     1     -30.813  30.439   5.744  0.00  0.00    -0.020 C 
ATOM     34  CD1 UNL     1     -29.869  31.227   5.085  0.00  0.00    -0.004 C 
ATOM     35  CD2 UNL     1     -30.399  29.478   6.665  0.00  0.00    -0.004 C 
ATOM     36  CE1 UNL     1     -28.510  31.055   5.349  0.00  0.00    -0.000 C 
ATOM     37  CE2 UNL     1     -29.040  29.305   6.929  0.00  0.00    -0.000 C 
ATOM     38  CZ  UNL     1     -28.095  30.093   6.271  0.00  0.00    -0.000 C 
ENDBRANCH  32  33
ENDBRANCH   1  32
TORSDOF 11
ENDMDL
