MODEL 1
REMARK VINA RESULT:      -6.6      0.000      0.000
REMARK  Name = 192320
REMARK  9 active torsions:
REMARK  status: ('A' for Active; 'I' for Inactive)
REMARK    1  A    between atoms: N_1  and  C_9
REMARK    2  A    between atoms: C_3  and  N_32
REMARK    3  A    between atoms: C_5  and  C_22
REMARK    4  A    between atoms: C_7  and  O_11
REMARK    5  A    between atoms: C_8  and  O_13
REMARK    6  A    between atoms: C_10  and  C_15
REMARK    7  A    between atoms: C_15  and  N_16
REMARK    8  A    between atoms: N_21  and  C_24
REMARK    9  A    between atoms: C_24  and  C_26
REMARK                            x       y       z     vdW  Elec       q    Type
REMARK                         _______ _______ _______ _____ _____    ______ ____
ROOT
ATOM      1  N   UNL     1     -36.491  23.196   4.092  0.00  0.00    -0.211 NA
ATOM      2  N   UNL     1     -35.273  21.358   4.381  0.00  0.00    -0.249 NA
ATOM      3  C   UNL     1     -36.574  22.499   2.917  0.00  0.00    +0.161 C 
ATOM      4  C   UNL     1     -35.698  22.469   4.939  0.00  0.00    +0.204 C 
ATOM      5  C   UNL     1     -35.814  21.370   3.120  0.00  0.00    +0.138 C 
ENDROOT
BRANCH   1   9
ATOM      6  O   UNL     1     -38.404  24.559   3.753  0.00  0.00    -0.340 OA
ATOM      7  C   UNL     1     -36.299  25.691   3.970  0.00  0.00    +0.183 C 
ATOM      8  C   UNL     1     -37.023  26.154   2.719  0.00  0.00    +0.166 C 
ATOM      9  C   UNL     1     -37.122  24.479   4.410  0.00  0.00    +0.208 C 
ATOM     10  C   UNL     1     -38.467  25.802   3.034  0.00  0.00    +0.124 C 
BRANCH   7  11
ATOM     11  O   UNL     1     -36.346  26.687   4.992  0.00  0.00    -0.378 OA
ATOM     12  H   UNL     1     -35.512  27.182   4.999  0.00  0.00    +0.211 HD
ENDBRANCH   7  11
BRANCH   8  13
ATOM     13  O   UNL     1     -36.857  27.529   2.449  0.00  0.00    -0.380 OA
ATOM     14  H   UNL     1     -37.333  27.759   1.636  0.00  0.00    +0.211 HD
ENDBRANCH   8  13
BRANCH  10  15
ATOM     15  C   UNL     1     -39.332  25.638   1.797  0.00  0.00    -0.053 C 
BRANCH  15  16
ATOM     16  N   UNL     1     -38.481  25.581   0.603  0.00  0.00    +0.382 N 
ATOM     17  H   UNL     1     -38.131  24.631   0.480  0.00  0.00    -0.089 HD
ATOM     18  H   UNL     1     -37.695  26.222   0.714  0.00  0.00    -0.089 HD
ATOM     19  H   UNL     1     -39.026  25.851  -0.216  0.00  0.00    -0.089 HD
ENDBRANCH  15  16
ENDBRANCH  10  15
ENDBRANCH   1   9
BRANCH   5  22
ATOM     20  O   UNL     1     -36.519  19.836   1.493  0.00  0.00    -0.269 OA
ATOM     21  N   UNL     1     -34.262  19.850   2.025  0.00  0.00    -0.296 N 
ATOM     22  C   UNL     1     -35.584  20.317   2.177  0.00  0.00    +0.262 C 
ATOM     23  H   UNL     1     -33.562  20.258   2.585  0.00  0.00    +0.150 HD
BRANCH  21  24
ATOM     24  C   UNL     1     -33.867  18.810   1.102  0.00  0.00    +0.117 C 
BRANCH  24  26
ATOM     25 CL   UNL     1     -28.107  19.335  -0.505  0.00  0.00    -0.082 Cl
ATOM     26  C   UNL     1     -32.422  18.941   0.697  0.00  0.00    -0.003 C 
ATOM     27  C   UNL     1     -31.524  17.937   1.033  0.00  0.00    -0.002 C 
ATOM     28  C   UNL     1     -32.008  20.064  -0.004  0.00  0.00    -0.002 C 
ATOM     29  C   UNL     1     -30.187  18.059   0.659  0.00  0.00    +0.011 C 
ATOM     30  C   UNL     1     -30.669  20.187  -0.378  0.00  0.00    +0.011 C 
ATOM     31  C   UNL     1     -29.758  19.184  -0.046  0.00  0.00    +0.058 C 
ENDBRANCH  24  26
ENDBRANCH  21  24
ENDBRANCH   5  22
BRANCH   3  32
ATOM     32  N   UNL     1     -37.289  22.953   1.867  0.00  0.00    -0.305 NA
ATOM     33  H   UNL     1     -38.263  23.072   1.949  0.00  0.00    +0.120 HD
ATOM     34  H   UNL     1     -36.836  23.166   1.019  0.00  0.00    +0.120 HD
ENDBRANCH   3  32
TORSDOF 9
ENDMDL
MODEL 2
REMARK VINA RESULT:      -6.5      5.993     10.234
REMARK  Name = 192320
REMARK  9 active torsions:
REMARK  status: ('A' for Active; 'I' for Inactive)
REMARK    1  A    between atoms: N_1  and  C_9
REMARK    2  A    between atoms: C_3  and  N_32
REMARK    3  A    between atoms: C_5  and  C_22
REMARK    4  A    between atoms: C_7  and  O_11
REMARK    5  A    between atoms: C_8  and  O_13
REMARK    6  A    between atoms: C_10  and  C_15
REMARK    7  A    between atoms: C_15  and  N_16
REMARK    8  A    between atoms: N_21  and  C_24
REMARK    9  A    between atoms: C_24  and  C_26
REMARK                            x       y       z     vdW  Elec       q    Type
REMARK                         _______ _______ _______ _____ _____    ______ ____
ROOT
ATOM      1  N   UNL     1     -38.294  23.666   2.903  0.00  0.00    -0.211 NA
ATOM      2  N   UNL     1     -40.304  23.521   1.964  0.00  0.00    -0.249 NA
ATOM      3  C   UNL     1     -38.906  24.869   3.132  0.00  0.00    +0.161 C 
ATOM      4  C   UNL     1     -39.174  22.892   2.197  0.00  0.00    +0.204 C 
ATOM      5  C   UNL     1     -40.143  24.755   2.543  0.00  0.00    +0.138 C 
ENDROOT
BRANCH   1   9
ATOM      6  O   UNL     1     -36.675  23.795   4.634  0.00  0.00    -0.340 OA
ATOM      7  C   UNL     1     -35.844  23.741   2.383  0.00  0.00    +0.183 C 
ATOM      8  C   UNL     1     -35.241  24.909   3.143  0.00  0.00    +0.166 C 
ATOM      9  C   UNL     1     -36.951  23.260   3.322  0.00  0.00    +0.208 C 
ATOM     10  C   UNL     1     -35.409  24.473   4.589  0.00  0.00    +0.124 C 
BRANCH   7  11
ATOM     11  O   UNL     1     -34.890  22.694   2.205  0.00  0.00    -0.378 OA
ATOM     12  H   UNL     1     -34.033  23.076   1.962  0.00  0.00    +0.211 HD
ENDBRANCH   7  11
BRANCH   8  13
ATOM     13  O   UNL     1     -33.891  25.157   2.815  0.00  0.00    -0.380 OA
ATOM     14  H   UNL     1     -33.432  24.315   2.675  0.00  0.00    +0.211 HD
ENDBRANCH   8  13
BRANCH  10  15
ATOM     15  C   UNL     1     -35.408  25.629   5.572  0.00  0.00    -0.053 C 
BRANCH  15  16
ATOM     16  N   UNL     1     -35.586  26.894   4.848  0.00  0.00    +0.382 N 
ATOM     17  H   UNL     1     -36.344  26.796   4.174  0.00  0.00    -0.089 HD
ATOM     18  H   UNL     1     -34.723  27.129   4.359  0.00  0.00    -0.089 HD
ATOM     19  H   UNL     1     -35.814  27.636   5.511  0.00  0.00    -0.089 HD
ENDBRANCH  15  16
ENDBRANCH  10  15
ENDBRANCH   1   9
BRANCH   5  22
ATOM     20  O   UNL     1     -40.964  26.913   2.947  0.00  0.00    -0.269 OA
ATOM     21  N   UNL     1     -42.408  25.406   1.938  0.00  0.00    -0.296 N 
ATOM     22  C   UNL     1     -41.167  25.756   2.507  0.00  0.00    +0.262 C 
ATOM     23  H   UNL     1     -42.519  24.485   1.607  0.00  0.00    +0.150 HD
BRANCH  21  24
ATOM     24  C   UNL     1     -43.530  26.309   1.809  0.00  0.00    +0.117 C 
BRANCH  24  26
ATOM     25 CL   UNL     1     -47.675  25.327   6.038  0.00  0.00    -0.082 Cl
ATOM     26  C   UNL     1     -44.570  26.065   2.870  0.00  0.00    -0.003 C 
ATOM     27  C   UNL     1     -44.517  26.778   4.058  0.00  0.00    -0.002 C 
ATOM     28  C   UNL     1     -45.568  25.126   2.645  0.00  0.00    -0.002 C 
ATOM     29  C   UNL     1     -45.480  26.551   5.040  0.00  0.00    +0.011 C 
ATOM     30  C   UNL     1     -46.532  24.897   3.627  0.00  0.00    +0.011 C 
ATOM     31  C   UNL     1     -46.488  25.610   4.825  0.00  0.00    +0.058 C 
ENDBRANCH  24  26
ENDBRANCH  21  24
ENDBRANCH   5  22
BRANCH   3  32
ATOM     32  N   UNL     1     -38.295  25.863   3.809  0.00  0.00    -0.305 NA
ATOM     33  H   UNL     1     -38.678  26.192   4.654  0.00  0.00    +0.120 HD
ATOM     34  H   UNL     1     -37.465  26.260   3.457  0.00  0.00    +0.120 HD
ENDBRANCH   3  32
TORSDOF 9
ENDMDL
MODEL 3
REMARK VINA RESULT:      -6.4      5.632     10.269
REMARK  Name = 192320
REMARK  9 active torsions:
REMARK  status: ('A' for Active; 'I' for Inactive)
REMARK    1  A    between atoms: N_1  and  C_9
REMARK    2  A    between atoms: C_3  and  N_32
REMARK    3  A    between atoms: C_5  and  C_22
REMARK    4  A    between atoms: C_7  and  O_11
REMARK    5  A    between atoms: C_8  and  O_13
REMARK    6  A    between atoms: C_10  and  C_15
REMARK    7  A    between atoms: C_15  and  N_16
REMARK    8  A    between atoms: N_21  and  C_24
REMARK    9  A    between atoms: C_24  and  C_26
REMARK                            x       y       z     vdW  Elec       q    Type
REMARK                         _______ _______ _______ _____ _____    ______ ____
ROOT
ATOM      1  N   UNL     1     -37.991  24.089   2.754  0.00  0.00    -0.211 NA
ATOM      2  N   UNL     1     -40.124  23.742   2.229  0.00  0.00    -0.249 NA
ATOM      3  C   UNL     1     -38.638  25.271   2.996  0.00  0.00    +0.161 C 
ATOM      4  C   UNL     1     -38.927  23.202   2.294  0.00  0.00    +0.204 C 
ATOM      5  C   UNL     1     -39.951  25.032   2.664  0.00  0.00    +0.138 C 
ENDROOT
BRANCH   1   9
ATOM      6  O   UNL     1     -36.128  22.871   1.929  0.00  0.00    -0.340 OA
ATOM      7  C   UNL     1     -36.242  23.188   4.305  0.00  0.00    +0.183 C 
ATOM      8  C   UNL     1     -36.037  21.721   3.975  0.00  0.00    +0.166 C 
ATOM      9  C   UNL     1     -36.568  23.800   2.942  0.00  0.00    +0.208 C 
ATOM     10  C   UNL     1     -35.447  21.785   2.576  0.00  0.00    +0.124 C 
BRANCH   7  11
ATOM     11  O   UNL     1     -35.044  23.775   4.810  0.00  0.00    -0.378 OA
ATOM     12  H   UNL     1     -34.643  24.332   4.125  0.00  0.00    +0.211 HD
ENDBRANCH   7  11
BRANCH   8  13
ATOM     13  O   UNL     1     -35.187  21.053   4.882  0.00  0.00    -0.380 OA
ATOM     14  H   UNL     1     -35.711  20.453   5.435  0.00  0.00    +0.211 HD
ENDBRANCH   8  13
BRANCH  10  15
ATOM     15  C   UNL     1     -35.641  20.507   1.779  0.00  0.00    -0.053 C 
BRANCH  15  16
ATOM     16  N   UNL     1     -36.841  19.807   2.253  0.00  0.00    +0.382 N 
ATOM     17  H   UNL     1     -36.565  19.003   2.817  0.00  0.00    -0.089 HD
ATOM     18  H   UNL     1     -37.388  19.491   1.453  0.00  0.00    -0.089 HD
ATOM     19  H   UNL     1     -37.404  20.442   2.819  0.00  0.00    -0.089 HD
ENDBRANCH  15  16
ENDBRANCH  10  15
ENDBRANCH   1   9
BRANCH   5  22
ATOM     20  O   UNL     1     -40.995  26.948   3.520  0.00  0.00    -0.269 OA
ATOM     21  N   UNL     1     -42.142  25.757   1.895  0.00  0.00    -0.296 N 
ATOM     22  C   UNL     1     -41.034  25.965   2.742  0.00  0.00    +0.262 C 
ATOM     23  H   UNL     1     -42.127  24.972   1.301  0.00  0.00    +0.150 HD
BRANCH  21  24
ATOM     24  C   UNL     1     -43.300  26.621   1.841  0.00  0.00    +0.117 C 
BRANCH  24  26
ATOM     25 CL   UNL     1     -47.806  24.543   5.218  0.00  0.00    -0.082 Cl
ATOM     26  C   UNL     1     -44.429  26.098   2.688  0.00  0.00    -0.003 C 
ATOM     27  C   UNL     1     -45.228  25.071   2.206  0.00  0.00    -0.002 C 
ATOM     28  C   UNL     1     -44.658  26.653   3.940  0.00  0.00    -0.002 C 
ATOM     29  C   UNL     1     -46.274  24.588   2.991  0.00  0.00    +0.011 C 
ATOM     30  C   UNL     1     -45.705  26.170   4.726  0.00  0.00    +0.011 C 
ATOM     31  C   UNL     1     -46.513  25.138   4.251  0.00  0.00    +0.058 C 
ENDBRANCH  24  26
ENDBRANCH  21  24
ENDBRANCH   5  22
BRANCH   3  32
ATOM     32  N   UNL     1     -37.987  26.357   3.461  0.00  0.00    -0.305 NA
ATOM     33  H   UNL     1     -37.397  26.280   4.246  0.00  0.00    +0.120 HD
ATOM     34  H   UNL     1     -38.102  27.228   3.016  0.00  0.00    +0.120 HD
ENDBRANCH   3  32
TORSDOF 9
ENDMDL
MODEL 4
REMARK VINA RESULT:      -6.4      1.558      2.299
REMARK  Name = 192320
REMARK  9 active torsions:
REMARK  status: ('A' for Active; 'I' for Inactive)
REMARK    1  A    between atoms: N_1  and  C_9
REMARK    2  A    between atoms: C_3  and  N_32
REMARK    3  A    between atoms: C_5  and  C_22
REMARK    4  A    between atoms: C_7  and  O_11
REMARK    5  A    between atoms: C_8  and  O_13
REMARK    6  A    between atoms: C_10  and  C_15
REMARK    7  A    between atoms: C_15  and  N_16
REMARK    8  A    between atoms: N_21  and  C_24
REMARK    9  A    between atoms: C_24  and  C_26
REMARK                            x       y       z     vdW  Elec       q    Type
REMARK                         _______ _______ _______ _____ _____    ______ ____
ROOT
ATOM      1  N   UNL     1     -36.378  22.772   2.698  0.00  0.00    -0.211 NA
ATOM      2  N   UNL     1     -35.357  20.949   3.463  0.00  0.00    -0.249 NA
ATOM      3  C   UNL     1     -36.042  22.035   1.594  0.00  0.00    +0.161 C 
ATOM      4  C   UNL     1     -35.944  22.077   3.795  0.00  0.00    +0.204 C 
ATOM      5  C   UNL     1     -35.414  20.917   2.091  0.00  0.00    +0.138 C 
ENDROOT
BRANCH   1   9
ATOM      6  O   UNL     1     -36.238  25.066   2.107  0.00  0.00    -0.340 OA
ATOM      7  C   UNL     1     -37.404  24.545   4.139  0.00  0.00    +0.183 C 
ATOM      8  C   UNL     1     -36.351  25.610   4.390  0.00  0.00    +0.166 C 
ATOM      9  C   UNL     1     -37.069  24.062   2.727  0.00  0.00    +0.208 C 
ATOM     10  C   UNL     1     -36.140  26.187   3.000  0.00  0.00    +0.124 C 
BRANCH   7  11
ATOM     11  O   UNL     1     -38.716  25.106   4.145  0.00  0.00    -0.378 OA
ATOM     12  H   UNL     1     -39.149  24.908   4.991  0.00  0.00    +0.211 HD
ENDBRANCH   7  11
BRANCH   8  13
ATOM     13  O   UNL     1     -36.754  26.592   5.319  0.00  0.00    -0.380 OA
ATOM     14  H   UNL     1     -37.055  27.383   4.845  0.00  0.00    +0.211 HD
ENDBRANCH   8  13
BRANCH  10  15
ATOM     15  C   UNL     1     -34.794  26.868   2.827  0.00  0.00    -0.053 C 
BRANCH  15  16
ATOM     16  N   UNL     1     -34.789  28.144   3.553  0.00  0.00    +0.382 N 
ATOM     17  H   UNL     1     -34.500  27.984   4.518  0.00  0.00    -0.089 HD
ATOM     18  H   UNL     1     -35.725  28.547   3.540  0.00  0.00    -0.089 HD
ATOM     19  H   UNL     1     -34.136  28.787   3.105  0.00  0.00    -0.089 HD
ENDBRANCH  15  16
ENDBRANCH  10  15
ENDBRANCH   1   9
BRANCH   5  22
ATOM     20  O   UNL     1     -35.387  19.476   0.242  0.00  0.00    -0.269 OA
ATOM     21  N   UNL     1     -33.720  19.190   1.828  0.00  0.00    -0.296 N 
ATOM     22  C   UNL     1     -34.871  19.833   1.329  0.00  0.00    +0.262 C 
ATOM     23  H   UNL     1     -33.352  19.506   2.685  0.00  0.00    +0.150 HD
BRANCH  21  24
ATOM     24  C   UNL     1     -33.044  18.098   1.165  0.00  0.00    +0.117 C 
BRANCH  24  26
ATOM     25 CL   UNL     1     -27.576  19.678  -0.745  0.00  0.00    -0.082 Cl
ATOM     26  C   UNL     1     -31.672  18.496   0.687  0.00  0.00    -0.003 C 
ATOM     27  C   UNL     1     -31.518  19.654  -0.062  0.00  0.00    -0.002 C 
ATOM     28  C   UNL     1     -30.581  17.697   1.001  0.00  0.00    -0.002 C 
ATOM     29  C   UNL     1     -30.248  20.021  -0.505  0.00  0.00    +0.011 C 
ATOM     30  C   UNL     1     -29.310  18.064   0.557  0.00  0.00    +0.011 C 
ATOM     31  C   UNL     1     -29.144  19.226  -0.196  0.00  0.00    +0.058 C 
ENDBRANCH  24  26
ENDBRANCH  21  24
ENDBRANCH   5  22
BRANCH   3  32
ATOM     32  N   UNL     1     -36.332  22.451   0.344  0.00  0.00    -0.305 NA
ATOM     33  H   UNL     1     -35.955  21.977  -0.433  0.00  0.00    +0.120 HD
ATOM     34  H   UNL     1     -36.922  23.228   0.209  0.00  0.00    +0.120 HD
ENDBRANCH   3  32
TORSDOF 9
ENDMDL
MODEL 5
REMARK VINA RESULT:      -6.3      5.598      9.884
REMARK  Name = 192320
REMARK  9 active torsions:
REMARK  status: ('A' for Active; 'I' for Inactive)
REMARK    1  A    between atoms: N_1  and  C_9
REMARK    2  A    between atoms: C_3  and  N_32
REMARK    3  A    between atoms: C_5  and  C_22
REMARK    4  A    between atoms: C_7  and  O_11
REMARK    5  A    between atoms: C_8  and  O_13
REMARK    6  A    between atoms: C_10  and  C_15
REMARK    7  A    between atoms: C_15  and  N_16
REMARK    8  A    between atoms: N_21  and  C_24
REMARK    9  A    between atoms: C_24  and  C_26
REMARK                            x       y       z     vdW  Elec       q    Type
REMARK                         _______ _______ _______ _____ _____    ______ ____
ROOT
ATOM      1  N   UNL     1     -36.466  25.474   2.892  0.00  0.00    -0.211 NA
ATOM      2  N   UNL     1     -35.664  26.792   1.290  0.00  0.00    -0.249 NA
ATOM      3  C   UNL     1     -35.960  26.577   3.526  0.00  0.00    +0.161 C 
ATOM      4  C   UNL     1     -36.263  25.652   1.549  0.00  0.00    +0.204 C 
ATOM      5  C   UNL     1     -35.471  27.374   2.518  0.00  0.00    +0.138 C 
ENDROOT
BRANCH   1   9
ATOM      6  O   UNL     1     -36.601  24.137   4.848  0.00  0.00    -0.340 OA
ATOM      7  C   UNL     1     -36.866  23.005   2.749  0.00  0.00    +0.183 C 
ATOM      8  C   UNL     1     -35.815  22.312   3.596  0.00  0.00    +0.166 C 
ATOM      9  C   UNL     1     -37.108  24.311   3.508  0.00  0.00    +0.208 C 
ATOM     10  C   UNL     1     -36.175  22.774   4.998  0.00  0.00    +0.124 C 
BRANCH   7  11
ATOM     11  O   UNL     1     -38.078  22.252   2.713  0.00  0.00    -0.378 OA
ATOM     12  H   UNL     1     -38.511  22.294   3.580  0.00  0.00    +0.211 HD
ENDBRANCH   7  11
BRANCH   8  13
ATOM     13  O   UNL     1     -35.833  20.906   3.477  0.00  0.00    -0.380 OA
ATOM     14  H   UNL     1     -36.684  20.624   3.109  0.00  0.00    +0.211 HD
ENDBRANCH   8  13
BRANCH  10  15
ATOM     15  C   UNL     1     -35.015  22.701   5.974  0.00  0.00    -0.053 C 
BRANCH  15  16
ATOM     16  N   UNL     1     -34.630  21.299   6.181  0.00  0.00    +0.382 N 
ATOM     17  H   UNL     1     -35.458  20.707   6.116  0.00  0.00    -0.089 HD
ATOM     18  H   UNL     1     -34.208  21.195   7.103  0.00  0.00    -0.089 HD
ATOM     19  H   UNL     1     -33.957  21.022   5.466  0.00  0.00    -0.089 HD
ENDBRANCH  15  16
ENDBRANCH  10  15
ENDBRANCH   1   9
BRANCH   5  22
ATOM     20  O   UNL     1     -34.075  28.888   3.638  0.00  0.00    -0.269 OA
ATOM     21  N   UNL     1     -35.075  29.623   1.680  0.00  0.00    -0.296 N 
ATOM     22  C   UNL     1     -34.836  28.648   2.670  0.00  0.00    +0.262 C 
ATOM     23  H   UNL     1     -35.680  29.388   0.939  0.00  0.00    +0.150 HD
BRANCH  21  24
ATOM     24  C   UNL     1     -34.491  30.945   1.680  0.00  0.00    +0.117 C 
BRANCH  24  26
ATOM     25 CL   UNL     1     -38.671  35.231   1.240  0.00  0.00    -0.082 Cl
ATOM     26  C   UNL     1     -35.540  32.020   1.568  0.00  0.00    -0.003 C 
ATOM     27  C   UNL     1     -35.170  33.298   1.172  0.00  0.00    -0.002 C 
ATOM     28  C   UNL     1     -36.862  31.719   1.864  0.00  0.00    -0.002 C 
ATOM     29  C   UNL     1     -36.141  34.293   1.070  0.00  0.00    +0.011 C 
ATOM     30  C   UNL     1     -37.834  32.715   1.762  0.00  0.00    +0.011 C 
ATOM     31  C   UNL     1     -37.473  34.002   1.365  0.00  0.00    +0.058 C 
ENDBRANCH  24  26
ENDBRANCH  21  24
ENDBRANCH   5  22
BRANCH   3  32
ATOM     32  N   UNL     1     -36.004  26.710   4.868  0.00  0.00    -0.305 NA
ATOM     33  H   UNL     1     -36.671  27.304   5.283  0.00  0.00    +0.120 HD
ATOM     34  H   UNL     1     -35.369  26.212   5.433  0.00  0.00    +0.120 HD
ENDBRANCH   3  32
TORSDOF 9
ENDMDL
MODEL 6
REMARK VINA RESULT:      -6.3      6.503      9.418
REMARK  Name = 192320
REMARK  9 active torsions:
REMARK  status: ('A' for Active; 'I' for Inactive)
REMARK    1  A    between atoms: N_1  and  C_9
REMARK    2  A    between atoms: C_3  and  N_32
REMARK    3  A    between atoms: C_5  and  C_22
REMARK    4  A    between atoms: C_7  and  O_11
REMARK    5  A    between atoms: C_8  and  O_13
REMARK    6  A    between atoms: C_10  and  C_15
REMARK    7  A    between atoms: C_15  and  N_16
REMARK    8  A    between atoms: N_21  and  C_24
REMARK    9  A    between atoms: C_24  and  C_26
REMARK                            x       y       z     vdW  Elec       q    Type
REMARK                         _______ _______ _______ _____ _____    ______ ____
ROOT
ATOM      1  N   UNL     1     -34.610  26.541   4.570  0.00  0.00    -0.211 NA
ATOM      2  N   UNL     1     -33.400  27.649   3.068  0.00  0.00    -0.249 NA
ATOM      3  C   UNL     1     -33.485  26.964   5.226  0.00  0.00    +0.161 C 
ATOM      4  C   UNL     1     -34.510  26.978   3.276  0.00  0.00    +0.204 C 
ATOM      5  C   UNL     1     -32.755  27.643   4.279  0.00  0.00    +0.138 C 
ENDROOT
BRANCH   1   9
ATOM      6  O   UNL     1     -35.207  24.744   6.001  0.00  0.00    -0.340 OA
ATOM      7  C   UNL     1     -36.577  25.077   4.058  0.00  0.00    +0.183 C 
ATOM      8  C   UNL     1     -36.118  23.633   4.142  0.00  0.00    +0.166 C 
ATOM      9  C   UNL     1     -35.723  25.767   5.123  0.00  0.00    +0.208 C 
ATOM     10  C   UNL     1     -35.785  23.486   5.617  0.00  0.00    +0.124 C 
BRANCH   7  11
ATOM     11  O   UNL     1     -37.955  25.201   4.408  0.00  0.00    -0.378 OA
ATOM     12  H   UNL     1     -38.071  25.961   5.000  0.00  0.00    +0.211 HD
ENDBRANCH   7  11
BRANCH   8  13
ATOM     13  O   UNL     1     -37.096  22.706   3.722  0.00  0.00    -0.380 OA
ATOM     14  H   UNL     1     -37.927  23.172   3.544  0.00  0.00    +0.211 HD
ENDBRANCH   8  13
BRANCH  10  15
ATOM     15  C   UNL     1     -34.807  22.361   5.907  0.00  0.00    -0.053 C 
BRANCH  15  16
ATOM     16  N   UNL     1     -35.515  21.075   5.888  0.00  0.00    +0.382 N 
ATOM     17  H   UNL     1     -36.265  21.110   5.198  0.00  0.00    -0.089 HD
ATOM     18  H   UNL     1     -35.908  20.889   6.810  0.00  0.00    -0.089 HD
ATOM     19  H   UNL     1     -34.861  20.331   5.642  0.00  0.00    -0.089 HD
ENDBRANCH  15  16
ENDBRANCH  10  15
ENDBRANCH   1   9
BRANCH   5  22
ATOM     20  O   UNL     1     -30.470  27.919   3.834  0.00  0.00    -0.269 OA
ATOM     21  N   UNL     1     -31.421  29.344   5.397  0.00  0.00    -0.296 N 
ATOM     22  C   UNL     1     -31.487  28.279   4.475  0.00  0.00    +0.262 C 
ATOM     23  H   UNL     1     -32.246  29.590   5.875  0.00  0.00    +0.150 HD
BRANCH  21  24
ATOM     24  C   UNL     1     -30.223  30.098   5.686  0.00  0.00    +0.117 C 
BRANCH  24  26
ATOM     25 CL   UNL     1     -29.777  34.994   2.241  0.00  0.00    -0.082 Cl
ATOM     26  C   UNL     1     -30.110  31.325   4.821  0.00  0.00    -0.003 C 
ATOM     27  C   UNL     1     -28.868  31.909   4.620  0.00  0.00    -0.002 C 
ATOM     28  C   UNL     1     -31.252  31.857   4.238  0.00  0.00    -0.002 C 
ATOM     29  C   UNL     1     -28.764  33.046   3.819  0.00  0.00    +0.011 C 
ATOM     30  C   UNL     1     -31.149  32.995   3.436  0.00  0.00    +0.011 C 
ATOM     31  C   UNL     1     -29.905  33.589   3.228  0.00  0.00    +0.058 C 
ENDBRANCH  24  26
ENDBRANCH  21  24
ENDBRANCH   5  22
BRANCH   3  32
ATOM     32  N   UNL     1     -33.277  26.691   6.531  0.00  0.00    -0.305 NA
ATOM     33  H   UNL     1     -32.488  27.059   6.991  0.00  0.00    +0.120 HD
ATOM     34  H   UNL     1     -33.914  26.124   7.023  0.00  0.00    +0.120 HD
ENDBRANCH   3  32
TORSDOF 9
ENDMDL
MODEL 7
REMARK VINA RESULT:      -6.3      5.275      8.540
REMARK  Name = 192320
REMARK  9 active torsions:
REMARK  status: ('A' for Active; 'I' for Inactive)
REMARK    1  A    between atoms: N_1  and  C_9
REMARK    2  A    between atoms: C_3  and  N_32
REMARK    3  A    between atoms: C_5  and  C_22
REMARK    4  A    between atoms: C_7  and  O_11
REMARK    5  A    between atoms: C_8  and  O_13
REMARK    6  A    between atoms: C_10  and  C_15
REMARK    7  A    between atoms: C_15  and  N_16
REMARK    8  A    between atoms: N_21  and  C_24
REMARK    9  A    between atoms: C_24  and  C_26
REMARK                            x       y       z     vdW  Elec       q    Type
REMARK                         _______ _______ _______ _____ _____    ______ ____
ROOT
ATOM      1  N   UNL     1     -36.070  26.313   3.447  0.00  0.00    -0.211 NA
ATOM      2  N   UNL     1     -35.429  27.764   1.888  0.00  0.00    -0.249 NA
ATOM      3  C   UNL     1     -34.980  26.962   3.960  0.00  0.00    +0.161 C 
ATOM      4  C   UNL     1     -36.299  26.830   2.201  0.00  0.00    +0.204 C 
ATOM      5  C   UNL     1     -34.602  27.851   2.981  0.00  0.00    +0.138 C 
ENDROOT
BRANCH   1   9
ATOM      6  O   UNL     1     -36.132  24.736   5.220  0.00  0.00    -0.340 OA
ATOM      7  C   UNL     1     -37.186  24.088   3.162  0.00  0.00    +0.183 C 
ATOM      8  C   UNL     1     -36.213  23.017   3.620  0.00  0.00    +0.166 C 
ATOM      9  C   UNL     1     -36.860  25.260   4.089  0.00  0.00    +0.208 C 
ATOM     10  C   UNL     1     -36.094  23.304   5.108  0.00  0.00    +0.124 C 
BRANCH   7  11
ATOM     11  O   UNL     1     -38.537  23.682   3.375  0.00  0.00    -0.378 OA
ATOM     12  H   UNL     1     -39.051  23.835   2.567  0.00  0.00    +0.211 HD
ENDBRANCH   7  11
BRANCH   8  13
ATOM     13  O   UNL     1     -36.661  21.703   3.366  0.00  0.00    -0.380 OA
ATOM     14  H   UNL     1     -36.783  21.582   2.411  0.00  0.00    +0.211 HD
ENDBRANCH   8  13
BRANCH  10  15
ATOM     15  C   UNL     1     -34.813  22.773   5.725  0.00  0.00    -0.053 C 
BRANCH  15  16
ATOM     16  N   UNL     1     -34.954  21.338   6.000  0.00  0.00    +0.382 N 
ATOM     17  H   UNL     1     -35.925  21.059   5.860  0.00  0.00    -0.089 HD
ATOM     18  H   UNL     1     -34.681  21.148   6.964  0.00  0.00    -0.089 HD
ATOM     19  H   UNL     1     -34.354  20.810   5.367  0.00  0.00    -0.089 HD
ENDBRANCH  15  16
ENDBRANCH  10  15
ENDBRANCH   1   9
BRANCH   5  22
ATOM     20  O   UNL     1     -32.509  28.643   2.283  0.00  0.00    -0.269 OA
ATOM     21  N   UNL     1     -33.584  29.833   3.958  0.00  0.00    -0.296 N 
ATOM     22  C   UNL     1     -33.503  28.767   3.038  0.00  0.00    +0.262 C 
ATOM     23  H   UNL     1     -34.385  29.888   4.529  0.00  0.00    +0.150 HD
BRANCH  21  24
ATOM     24  C   UNL     1     -32.570  30.850   4.118  0.00  0.00    +0.117 C 
BRANCH  24  26
ATOM     25 CL   UNL     1     -28.225  29.106   7.875  0.00  0.00    -0.082 Cl
ATOM     26  C   UNL     1     -31.480  30.411   5.060  0.00  0.00    -0.003 C 
ATOM     27  C   UNL     1     -31.812  29.719   6.216  0.00  0.00    -0.002 C 
ATOM     28  C   UNL     1     -30.158  30.707   4.760  0.00  0.00    -0.002 C 
ATOM     29  C   UNL     1     -30.803  29.313   7.088  0.00  0.00    +0.011 C 
ATOM     30  C   UNL     1     -29.147  30.302   5.633  0.00  0.00    +0.011 C 
ATOM     31  C   UNL     1     -29.470  29.605   6.797  0.00  0.00    +0.058 C 
ENDBRANCH  24  26
ENDBRANCH  21  24
ENDBRANCH   5  22
BRANCH   3  32
ATOM     32  N   UNL     1     -34.492  26.679   5.186  0.00  0.00    -0.305 NA
ATOM     33  H   UNL     1     -34.346  25.743   5.453  0.00  0.00    +0.120 HD
ATOM     34  H   UNL     1     -34.283  27.409   5.813  0.00  0.00    +0.120 HD
ENDBRANCH   3  32
TORSDOF 9
ENDMDL
MODEL 8
REMARK VINA RESULT:      -6.2      5.279      8.529
REMARK  Name = 192320
REMARK  9 active torsions:
REMARK  status: ('A' for Active; 'I' for Inactive)
REMARK    1  A    between atoms: N_1  and  C_9
REMARK    2  A    between atoms: C_3  and  N_32
REMARK    3  A    between atoms: C_5  and  C_22
REMARK    4  A    between atoms: C_7  and  O_11
REMARK    5  A    between atoms: C_8  and  O_13
REMARK    6  A    between atoms: C_10  and  C_15
REMARK    7  A    between atoms: C_15  and  N_16
REMARK    8  A    between atoms: N_21  and  C_24
REMARK    9  A    between atoms: C_24  and  C_26
REMARK                            x       y       z     vdW  Elec       q    Type
REMARK                         _______ _______ _______ _____ _____    ______ ____
ROOT
ATOM      1  N   UNL     1     -35.647  24.739   4.345  0.00  0.00    -0.211 NA
ATOM      2  N   UNL     1     -33.467  25.059   4.041  0.00  0.00    -0.249 NA
ATOM      3  C   UNL     1     -35.342  25.905   4.993  0.00  0.00    +0.161 C 
ATOM      4  C   UNL     1     -34.487  24.269   3.790  0.00  0.00    +0.204 C 
ATOM      5  C   UNL     1     -33.993  26.081   4.792  0.00  0.00    +0.138 C 
ENDROOT
BRANCH   1   9
ATOM      6  O   UNL     1     -36.791  22.734   3.789  0.00  0.00    -0.340 OA
ATOM      7  C   UNL     1     -37.917  24.794   3.286  0.00  0.00    +0.183 C 
ATOM      8  C   UNL     1     -37.883  23.895   2.063  0.00  0.00    +0.166 C 
ATOM      9  C   UNL     1     -36.958  24.092   4.249  0.00  0.00    +0.208 C 
ATOM     10  C   UNL     1     -37.677  22.521   2.678  0.00  0.00    +0.124 C 
BRANCH   7  11
ATOM     11  O   UNL     1     -39.221  24.829   3.863  0.00  0.00    -0.378 OA
ATOM     12  H   UNL     1     -39.234  25.465   4.595  0.00  0.00    +0.211 HD
ENDBRANCH   7  11
BRANCH   8  13
ATOM     13  O   UNL     1     -39.058  23.959   1.284  0.00  0.00    -0.380 OA
ATOM     14  H   UNL     1     -39.120  24.831   0.864  0.00  0.00    +0.211 HD
ENDBRANCH   8  13
BRANCH  10  15
ATOM     15  C   UNL     1     -37.066  21.515   1.718  0.00  0.00    -0.053 C 
BRANCH  15  16
ATOM     16  N   UNL     1     -37.145  20.169   2.298  0.00  0.00    +0.382 N 
ATOM     17  H   UNL     1     -37.259  19.484   1.552  0.00  0.00    -0.089 HD
ATOM     18  H   UNL     1     -37.942  20.118   2.933  0.00  0.00    -0.089 HD
ATOM     19  H   UNL     1     -36.287  19.971   2.814  0.00  0.00    -0.089 HD
ENDBRANCH  15  16
ENDBRANCH  10  15
ENDBRANCH   1   9
BRANCH   5  22
ATOM     20  O   UNL     1     -32.667  27.131   6.415  0.00  0.00    -0.269 OA
ATOM     21  N   UNL     1     -32.992  28.267   4.420  0.00  0.00    -0.296 N 
ATOM     22  C   UNL     1     -33.192  27.165   5.276  0.00  0.00    +0.262 C 
ATOM     23  H   UNL     1     -33.425  28.247   3.535  0.00  0.00    +0.150 HD
BRANCH  21  24
ATOM     24  C   UNL     1     -32.193  29.424   4.754  0.00  0.00    +0.117 C 
BRANCH  24  26
ATOM     25 CL   UNL     1     -33.718  34.215   1.473  0.00  0.00    -0.082 Cl
ATOM     26  C   UNL     1     -32.575  30.625   3.929  0.00  0.00    -0.003 C 
ATOM     27  C   UNL     1     -31.643  31.630   3.713  0.00  0.00    -0.002 C 
ATOM     28  C   UNL     1     -33.855  30.712   3.399  0.00  0.00    -0.002 C 
ATOM     29  C   UNL     1     -31.997  32.743   2.951  0.00  0.00    +0.011 C 
ATOM     30  C   UNL     1     -34.210  31.825   2.636  0.00  0.00    +0.011 C 
ATOM     31  C   UNL     1     -33.281  32.841   2.412  0.00  0.00    +0.058 C 
ENDBRANCH  24  26
ENDBRANCH  21  24
ENDBRANCH   5  22
BRANCH   3  32
ATOM     32  N   UNL     1     -36.278  26.622   5.650  0.00  0.00    -0.305 NA
ATOM     33  H   UNL     1     -36.772  27.333   5.181  0.00  0.00    +0.120 HD
ATOM     34  H   UNL     1     -36.466  26.433   6.598  0.00  0.00    +0.120 HD
ENDBRANCH   3  32
TORSDOF 9
ENDMDL
MODEL 9
REMARK VINA RESULT:      -6.1      2.223      3.166
REMARK  Name = 192320
REMARK  9 active torsions:
REMARK  status: ('A' for Active; 'I' for Inactive)
REMARK    1  A    between atoms: N_1  and  C_9
REMARK    2  A    between atoms: C_3  and  N_32
REMARK    3  A    between atoms: C_5  and  C_22
REMARK    4  A    between atoms: C_7  and  O_11
REMARK    5  A    between atoms: C_8  and  O_13
REMARK    6  A    between atoms: C_10  and  C_15
REMARK    7  A    between atoms: C_15  and  N_16
REMARK    8  A    between atoms: N_21  and  C_24
REMARK    9  A    between atoms: C_24  and  C_26
REMARK                            x       y       z     vdW  Elec       q    Type
REMARK                         _______ _______ _______ _____ _____    ______ ____
ROOT
ATOM      1  N   UNL     1     -35.900  22.065   2.163  0.00  0.00    -0.211 NA
ATOM      2  N   UNL     1     -34.822  21.818   0.234  0.00  0.00    -0.249 NA
ATOM      3  C   UNL     1     -35.886  20.720   1.907  0.00  0.00    +0.161 C 
ATOM      4  C   UNL     1     -35.249  22.681   1.129  0.00  0.00    +0.204 C 
ATOM      5  C   UNL     1     -35.217  20.594   0.712  0.00  0.00    +0.138 C 
ENDROOT
BRANCH   1   9
ATOM      6  O   UNL     1     -36.878  24.082   2.943  0.00  0.00    -0.340 OA
ATOM      7  C   UNL     1     -35.549  22.850   4.517  0.00  0.00    +0.183 C 
ATOM      8  C   UNL     1     -35.100  24.299   4.463  0.00  0.00    +0.166 C 
ATOM      9  C   UNL     1     -36.493  22.742   3.318  0.00  0.00    +0.208 C 
ATOM     10  C   UNL     1     -36.329  24.997   3.905  0.00  0.00    +0.124 C 
BRANCH   7  11
ATOM     11  O   UNL     1     -36.277  22.580   5.714  0.00  0.00    -0.378 OA
ATOM     12  H   UNL     1     -35.997  21.725   6.077  0.00  0.00    +0.211 HD
ENDBRANCH   7  11
BRANCH   8  13
ATOM     13  O   UNL     1     -34.717  24.816   5.718  0.00  0.00    -0.380 OA
ATOM     14  H   UNL     1     -33.886  24.403   5.999  0.00  0.00    +0.211 HD
ENDBRANCH   8  13
BRANCH  10  15
ATOM     15  C   UNL     1     -36.019  26.324   3.236  0.00  0.00    -0.053 C 
BRANCH  15  16
ATOM     16  N   UNL     1     -35.477  27.262   4.227  0.00  0.00    +0.382 N 
ATOM     17  H   UNL     1     -35.930  27.105   5.127  0.00  0.00    -0.089 HD
ATOM     18  H   UNL     1     -35.650  28.218   3.919  0.00  0.00    -0.089 HD
ATOM     19  H   UNL     1     -34.472  27.113   4.321  0.00  0.00    -0.089 HD
ENDBRANCH  15  16
ENDBRANCH  10  15
ENDBRANCH   1   9
BRANCH   5  22
ATOM     20  O   UNL     1     -35.231  19.234  -1.197  0.00  0.00    -0.269 OA
ATOM     21  N   UNL     1     -34.305  18.338   0.730  0.00  0.00    -0.296 N 
ATOM     22  C   UNL     1     -34.940  19.374   0.015  0.00  0.00    +0.262 C 
ATOM     23  H   UNL     1     -34.097  18.495   1.680  0.00  0.00    +0.150 HD
BRANCH  21  24
ATOM     24  C   UNL     1     -33.941  17.060   0.162  0.00  0.00    +0.117 C 
BRANCH  24  26
ATOM     25 CL   UNL     1     -28.008  16.160   0.309  0.00  0.00    -0.082 Cl
ATOM     26  C   UNL     1     -32.452  16.834   0.201  0.00  0.00    -0.003 C 
ATOM     27  C   UNL     1     -31.625  17.812   0.734  0.00  0.00    -0.002 C 
ATOM     28  C   UNL     1     -31.928  15.650  -0.300  0.00  0.00    -0.002 C 
ATOM     29  C   UNL     1     -30.248  17.602   0.769  0.00  0.00    +0.011 C 
ATOM     30  C   UNL     1     -30.549  15.440  -0.266  0.00  0.00    +0.011 C 
ATOM     31  C   UNL     1     -29.709  16.417   0.268  0.00  0.00    +0.058 C 
ENDBRANCH  24  26
ENDBRANCH  21  24
ENDBRANCH   5  22
BRANCH   3  32
ATOM     32  N   UNL     1     -36.454  19.828   2.745  0.00  0.00    -0.305 NA
ATOM     33  H   UNL     1     -36.841  18.996   2.390  0.00  0.00    +0.120 HD
ATOM     34  H   UNL     1     -36.480  20.011   3.713  0.00  0.00    +0.120 HD
ENDBRANCH   3  32
TORSDOF 9
ENDMDL
