MODEL 1
REMARK VINA RESULT:      -5.1      0.000      0.000
REMARK  Name = 193398
REMARK  7 active torsions:
REMARK  status: ('A' for Active; 'I' for Inactive)
REMARK    1  A    between atoms: C_8  and  C_15
REMARK    2  A    between atoms: C_11  and  O_13
REMARK    3  A    between atoms: C_15  and  C_16
REMARK    4  A    between atoms: C_16  and  C_17
REMARK    5  A    between atoms: C_17  and  C_18
REMARK    6  A    between atoms: C_18  and  C_20
REMARK    7  A    between atoms: C_20  and  O_21
REMARK                            x       y       z     vdW  Elec       q    Type
REMARK                         _______ _______ _______ _____ _____    ______ ____
ROOT
ATOM      1  S   UNL     1     -36.702  22.820   0.811  0.00  0.00    -0.138 S 
ATOM      2  O   UNL     1     -39.124  26.355   3.030  0.00  0.00    -0.252 OA
ATOM      3  O   UNL     1     -41.563  23.724   0.705  0.00  0.00    -0.226 OA
ATOM      4  N   UNL     1     -39.736  24.276   2.034  0.00  0.00    -0.179 N 
ATOM      5  N   UNL     1     -37.908  24.395   3.386  0.00  0.00    -0.287 N 
ATOM      6  C   UNL     1     -38.029  22.988   3.072  0.00  0.00    +0.102 C 
ATOM      7  C   UNL     1     -39.117  22.949   1.984  0.00  0.00    +0.117 C 
ATOM      8  C   UNL     1     -36.753  22.331   2.553  0.00  0.00    +0.067 C 
ATOM      9  C   UNL     1     -38.493  22.666   0.611  0.00  0.00    +0.080 C 
ATOM     10  C   UNL     1     -38.948  25.159   2.837  0.00  0.00    +0.312 C 
ATOM     11  C   UNL     1     -40.946  24.546   1.380  0.00  0.00    +0.412 C 
ATOM     12  H   UNL     1     -37.175  24.774   3.924  0.00  0.00    +0.151 HD
ENDROOT
BRANCH  11  13
ATOM     13  O   UNL     1     -41.367  25.832   1.584  0.00  0.00    -0.430 OA
ATOM     14  C   UNL     1     -42.748  25.994   1.924  0.00  0.00    +0.257 C 
ENDBRANCH  11  13
BRANCH   8  15
ATOM     15  C   UNL     1     -35.479  22.711   3.289  0.00  0.00    +0.013 C 
BRANCH  15  16
ATOM     16  C   UNL     1     -35.453  22.130   4.704  0.00  0.00    +0.001 C 
BRANCH  16  17
ATOM     17  C   UNL     1     -35.295  23.234   5.754  0.00  0.00    +0.012 C 
BRANCH  17  18
ATOM     18  C   UNL     1     -34.441  24.399   5.252  0.00  0.00    +0.110 C 
BRANCH  18  20
ATOM     19  O   UNL     1     -36.279  25.975   5.486  0.00  0.00    -0.250 OA
ATOM     20  C   UNL     1     -35.077  25.750   5.495  0.00  0.00    +0.317 C 
BRANCH  20  21
ATOM     21  O   UNL     1     -34.090  26.675   5.692  0.00  0.00    -0.444 OA
ATOM     22  C   UNL     1     -33.379  27.077   4.516  0.00  0.00    +0.256 C 
ENDBRANCH  20  21
ENDBRANCH  18  20
ENDBRANCH  17  18
ENDBRANCH  16  17
ENDBRANCH  15  16
ENDBRANCH   8  15
TORSDOF 7
ENDMDL
MODEL 2
REMARK VINA RESULT:      -4.9      2.812      4.348
REMARK  Name = 193398
REMARK  7 active torsions:
REMARK  status: ('A' for Active; 'I' for Inactive)
REMARK    1  A    between atoms: C_8  and  C_15
REMARK    2  A    between atoms: C_11  and  O_13
REMARK    3  A    between atoms: C_15  and  C_16
REMARK    4  A    between atoms: C_16  and  C_17
REMARK    5  A    between atoms: C_17  and  C_18
REMARK    6  A    between atoms: C_18  and  C_20
REMARK    7  A    between atoms: C_20  and  O_21
REMARK                            x       y       z     vdW  Elec       q    Type
REMARK                         _______ _______ _______ _____ _____    ______ ____
ROOT
ATOM      1  S   UNL     1     -34.229  25.129   3.153  0.00  0.00    -0.138 S 
ATOM      2  O   UNL     1     -39.020  24.719   3.557  0.00  0.00    -0.252 OA
ATOM      3  O   UNL     1     -37.106  21.380   1.696  0.00  0.00    -0.226 OA
ATOM      4  N   UNL     1     -37.237  23.186   3.154  0.00  0.00    -0.179 N 
ATOM      5  N   UNL     1     -37.027  24.778   4.769  0.00  0.00    -0.287 N 
ATOM      6  C   UNL     1     -35.826  23.981   4.894  0.00  0.00    +0.102 C 
ATOM      7  C   UNL     1     -35.868  23.060   3.662  0.00  0.00    +0.117 C 
ATOM      8  C   UNL     1     -34.523  24.776   4.904  0.00  0.00    +0.067 C 
ATOM      9  C   UNL     1     -34.834  23.511   2.620  0.00  0.00    +0.080 C 
ATOM     10  C   UNL     1     -37.902  24.280   3.793  0.00  0.00    +0.312 C 
ATOM     11  C   UNL     1     -37.750  22.299   2.197  0.00  0.00    +0.412 C 
ATOM     12  H   UNL     1     -37.208  25.581   5.310  0.00  0.00    +0.151 HD
ENDROOT
BRANCH  11  13
ATOM     13  O   UNL     1     -39.055  22.570   1.889  0.00  0.00    -0.430 OA
ATOM     14  C   UNL     1     -39.815  21.477   1.363  0.00  0.00    +0.257 C 
ENDBRANCH  11  13
BRANCH   8  15
ATOM     15  C   UNL     1     -34.537  26.040   5.746  0.00  0.00    +0.013 C 
BRANCH  15  16
ATOM     16  C   UNL     1     -33.325  26.925   5.452  0.00  0.00    +0.001 C 
BRANCH  16  17
ATOM     17  C   UNL     1     -32.599  27.319   6.743  0.00  0.00    +0.012 C 
BRANCH  17  18
ATOM     18  C   UNL     1     -31.845  28.642   6.608  0.00  0.00    +0.110 C 
BRANCH  18  20
ATOM     19  O   UNL     1     -30.491  29.226   4.673  0.00  0.00    -0.250 OA
ATOM     20  C   UNL     1     -30.652  28.555   5.683  0.00  0.00    +0.317 C 
BRANCH  20  21
ATOM     21  O   UNL     1     -29.804  27.588   6.144  0.00  0.00    -0.444 OA
ATOM     22  C   UNL     1     -28.629  28.063   6.809  0.00  0.00    +0.256 C 
ENDBRANCH  20  21
ENDBRANCH  18  20
ENDBRANCH  17  18
ENDBRANCH  16  17
ENDBRANCH  15  16
ENDBRANCH   8  15
TORSDOF 7
ENDMDL
MODEL 3
REMARK VINA RESULT:      -4.8      3.910      5.861
REMARK  Name = 193398
REMARK  7 active torsions:
REMARK  status: ('A' for Active; 'I' for Inactive)
REMARK    1  A    between atoms: C_8  and  C_15
REMARK    2  A    between atoms: C_11  and  O_13
REMARK    3  A    between atoms: C_15  and  C_16
REMARK    4  A    between atoms: C_16  and  C_17
REMARK    5  A    between atoms: C_17  and  C_18
REMARK    6  A    between atoms: C_18  and  C_20
REMARK    7  A    between atoms: C_20  and  O_21
REMARK                            x       y       z     vdW  Elec       q    Type
REMARK                         _______ _______ _______ _____ _____    ______ ____
ROOT
ATOM      1  S   UNL     1     -35.903  27.548   1.636  0.00  0.00    -0.138 S 
ATOM      2  O   UNL     1     -35.928  25.802   6.134  0.00  0.00    -0.252 OA
ATOM      3  O   UNL     1     -35.529  22.834   3.083  0.00  0.00    -0.226 OA
ATOM      4  N   UNL     1     -35.254  24.948   4.011  0.00  0.00    -0.179 N 
ATOM      5  N   UNL     1     -34.693  27.071   4.614  0.00  0.00    -0.287 N 
ATOM      6  C   UNL     1     -34.027  26.872   3.346  0.00  0.00    +0.102 C 
ATOM      7  C   UNL     1     -34.594  25.534   2.842  0.00  0.00    +0.117 C 
ATOM      8  C   UNL     1     -34.275  27.965   2.309  0.00  0.00    +0.067 C 
ATOM      9  C   UNL     1     -35.583  25.769   1.691  0.00  0.00    +0.080 C 
ATOM     10  C   UNL     1     -35.364  25.922   5.054  0.00  0.00    +0.312 C 
ATOM     11  C   UNL     1     -35.662  23.607   4.030  0.00  0.00    +0.412 C 
ATOM     12  H   UNL     1     -34.677  27.921   5.113  0.00  0.00    +0.151 HD
ENDROOT
BRANCH  11  13
ATOM     13  O   UNL     1     -36.222  23.255   5.227  0.00  0.00    -0.430 OA
ATOM     14  C   UNL     1     -35.494  22.296   6.002  0.00  0.00    +0.257 C 
ENDBRANCH  11  13
BRANCH   8  15
ATOM     15  C   UNL     1     -34.224  29.389   2.838  0.00  0.00    +0.013 C 
BRANCH  15  16
ATOM     16  C   UNL     1     -32.789  29.826   3.134  0.00  0.00    +0.001 C 
BRANCH  16  17
ATOM     17  C   UNL     1     -32.657  30.365   4.563  0.00  0.00    +0.012 C 
BRANCH  17  18
ATOM     18  C   UNL     1     -31.386  29.874   5.256  0.00  0.00    +0.110 C 
BRANCH  18  20
ATOM     19  O   UNL     1     -32.596  28.054   6.325  0.00  0.00    -0.250 OA
ATOM     20  C   UNL     1     -31.546  28.513   5.898  0.00  0.00    +0.317 C 
BRANCH  20  21
ATOM     21  O   UNL     1     -30.325  27.901   5.950  0.00  0.00    -0.444 OA
ATOM     22  C   UNL     1     -29.230  28.741   6.331  0.00  0.00    +0.256 C 
ENDBRANCH  20  21
ENDBRANCH  18  20
ENDBRANCH  17  18
ENDBRANCH  16  17
ENDBRANCH  15  16
ENDBRANCH   8  15
TORSDOF 7
ENDMDL
MODEL 4
REMARK VINA RESULT:      -4.8      5.129      7.012
REMARK  Name = 193398
REMARK  7 active torsions:
REMARK  status: ('A' for Active; 'I' for Inactive)
REMARK    1  A    between atoms: C_8  and  C_15
REMARK    2  A    between atoms: C_11  and  O_13
REMARK    3  A    between atoms: C_15  and  C_16
REMARK    4  A    between atoms: C_16  and  C_17
REMARK    5  A    between atoms: C_17  and  C_18
REMARK    6  A    between atoms: C_18  and  C_20
REMARK    7  A    between atoms: C_20  and  O_21
REMARK                            x       y       z     vdW  Elec       q    Type
REMARK                         _______ _______ _______ _____ _____    ______ ____
ROOT
ATOM      1  S   UNL     1     -34.558  22.264   0.789  0.00  0.00    -0.138 S 
ATOM      2  O   UNL     1     -35.108  22.419   5.581  0.00  0.00    -0.252 OA
ATOM      3  O   UNL     1     -37.040  25.596   3.471  0.00  0.00    -0.226 OA
ATOM      4  N   UNL     1     -36.226  23.433   3.734  0.00  0.00    -0.179 N 
ATOM      5  N   UNL     1     -35.677  21.225   3.658  0.00  0.00    -0.287 N 
ATOM      6  C   UNL     1     -36.430  21.448   2.443  0.00  0.00    +0.102 C 
ATOM      7  C   UNL     1     -36.595  22.977   2.391  0.00  0.00    +0.117 C 
ATOM      8  C   UNL     1     -35.752  20.956   1.166  0.00  0.00    +0.067 C 
ATOM      9  C   UNL     1     -35.680  23.580   1.316  0.00  0.00    +0.080 C 
ATOM     10  C   UNL     1     -35.608  22.370   4.464  0.00  0.00    +0.312 C 
ATOM     11  C   UNL     1     -36.502  24.737   4.168  0.00  0.00    +0.412 C 
ATOM     12  H   UNL     1     -35.260  20.364   3.892  0.00  0.00    +0.151 HD
ENDROOT
BRANCH  11  13
ATOM     13  O   UNL     1     -36.109  24.945   5.462  0.00  0.00    -0.430 OA
ATOM     14  C   UNL     1     -35.102  25.943   5.659  0.00  0.00    +0.257 C 
ENDBRANCH  11  13
BRANCH   8  15
ATOM     15  C   UNL     1     -35.092  19.591   1.263  0.00  0.00    +0.013 C 
BRANCH  15  16
ATOM     16  C   UNL     1     -33.596  19.668   0.957  0.00  0.00    +0.001 C 
BRANCH  16  17
ATOM     17  C   UNL     1     -32.854  18.443   1.503  0.00  0.00    +0.012 C 
BRANCH  17  18
ATOM     18  C   UNL     1     -31.965  17.781   0.450  0.00  0.00    +0.110 C 
BRANCH  18  20
ATOM     19  O   UNL     1     -31.879  15.355   0.292  0.00  0.00    -0.250 OA
ATOM     20  C   UNL     1     -32.449  16.408   0.041  0.00  0.00    +0.317 C 
BRANCH  20  21
ATOM     21  O   UNL     1     -33.604  16.541  -0.678  0.00  0.00    -0.444 OA
ATOM     22  C   UNL     1     -34.717  15.778  -0.202  0.00  0.00    +0.256 C 
ENDBRANCH  20  21
ENDBRANCH  18  20
ENDBRANCH  17  18
ENDBRANCH  16  17
ENDBRANCH  15  16
ENDBRANCH   8  15
TORSDOF 7
ENDMDL
MODEL 5
REMARK VINA RESULT:      -4.8      2.360      3.742
REMARK  Name = 193398
REMARK  7 active torsions:
REMARK  status: ('A' for Active; 'I' for Inactive)
REMARK    1  A    between atoms: C_8  and  C_15
REMARK    2  A    between atoms: C_11  and  O_13
REMARK    3  A    between atoms: C_15  and  C_16
REMARK    4  A    between atoms: C_16  and  C_17
REMARK    5  A    between atoms: C_17  and  C_18
REMARK    6  A    between atoms: C_18  and  C_20
REMARK    7  A    between atoms: C_20  and  O_21
REMARK                            x       y       z     vdW  Elec       q    Type
REMARK                         _______ _______ _______ _____ _____    ______ ____
ROOT
ATOM      1  S   UNL     1     -34.400  24.681   2.747  0.00  0.00    -0.138 S 
ATOM      2  O   UNL     1     -38.920  26.361   2.926  0.00  0.00    -0.252 OA
ATOM      3  O   UNL     1     -38.621  22.141   2.309  0.00  0.00    -0.226 OA
ATOM      4  N   UNL     1     -37.928  24.202   3.134  0.00  0.00    -0.179 N 
ATOM      5  N   UNL     1     -36.998  25.989   4.197  0.00  0.00    -0.287 N 
ATOM      6  C   UNL     1     -36.212  24.859   4.641  0.00  0.00    +0.102 C 
ATOM      7  C   UNL     1     -36.695  23.703   3.748  0.00  0.00    +0.117 C 
ATOM      8  C   UNL     1     -34.701  25.030   4.497  0.00  0.00    +0.067 C 
ATOM      9  C   UNL     1     -35.634  23.360   2.693  0.00  0.00    +0.080 C 
ATOM     10  C   UNL     1     -38.058  25.609   3.361  0.00  0.00    +0.312 C 
ATOM     11  C   UNL     1     -38.811  23.347   2.460  0.00  0.00    +0.412 C 
ATOM     12  H   UNL     1     -36.809  26.921   4.452  0.00  0.00    +0.151 HD
ENDROOT
BRANCH  11  13
ATOM     13  O   UNL     1     -39.915  24.008   1.995  0.00  0.00    -0.430 OA
ATOM     14  C   UNL     1     -40.394  23.599   0.709  0.00  0.00    +0.257 C 
ENDBRANCH  11  13
BRANCH   8  15
ATOM     15  C   UNL     1     -34.156  26.386   4.911  0.00  0.00    +0.013 C 
BRANCH  15  16
ATOM     16  C   UNL     1     -33.654  26.373   6.355  0.00  0.00    +0.001 C 
BRANCH  16  17
ATOM     17  C   UNL     1     -32.525  27.389   6.560  0.00  0.00    +0.012 C 
BRANCH  17  18
ATOM     18  C   UNL     1     -32.225  28.191   5.293  0.00  0.00    +0.110 C 
BRANCH  18  20
ATOM     19  O   UNL     1     -30.852  29.986   6.192  0.00  0.00    -0.250 OA
ATOM     20  C   UNL     1     -31.844  29.627   5.574  0.00  0.00    +0.317 C 
BRANCH  20  21
ATOM     21  O   UNL     1     -32.804  30.450   5.054  0.00  0.00    -0.444 OA
ATOM     22  C   UNL     1     -33.111  30.241   3.672  0.00  0.00    +0.256 C 
ENDBRANCH  20  21
ENDBRANCH  18  20
ENDBRANCH  17  18
ENDBRANCH  16  17
ENDBRANCH  15  16
ENDBRANCH   8  15
TORSDOF 7
ENDMDL
MODEL 6
REMARK VINA RESULT:      -4.8      5.026      5.891
REMARK  Name = 193398
REMARK  7 active torsions:
REMARK  status: ('A' for Active; 'I' for Inactive)
REMARK    1  A    between atoms: C_8  and  C_15
REMARK    2  A    between atoms: C_11  and  O_13
REMARK    3  A    between atoms: C_15  and  C_16
REMARK    4  A    between atoms: C_16  and  C_17
REMARK    5  A    between atoms: C_17  and  C_18
REMARK    6  A    between atoms: C_18  and  C_20
REMARK    7  A    between atoms: C_20  and  O_21
REMARK                            x       y       z     vdW  Elec       q    Type
REMARK                         _______ _______ _______ _____ _____    ______ ____
ROOT
ATOM      1  S   UNL     1     -36.029  21.463  -0.096  0.00  0.00    -0.138 S 
ATOM      2  O   UNL     1     -36.857  23.699   4.099  0.00  0.00    -0.252 OA
ATOM      3  O   UNL     1     -40.349  23.038   1.723  0.00  0.00    -0.226 OA
ATOM      4  N   UNL     1     -38.221  22.543   2.520  0.00  0.00    -0.179 N 
ATOM      5  N   UNL     1     -36.212  21.670   3.142  0.00  0.00    -0.287 N 
ATOM      6  C   UNL     1     -36.792  20.659   2.286  0.00  0.00    +0.102 C 
ATOM      7  C   UNL     1     -38.032  21.349   1.692  0.00  0.00    +0.117 C 
ATOM      8  C   UNL     1     -35.883  20.169   1.161  0.00  0.00    +0.067 C 
ATOM      9  C   UNL     1     -37.791  21.713   0.220  0.00  0.00    +0.080 C 
ATOM     10  C   UNL     1     -37.073  22.758   3.346  0.00  0.00    +0.312 C 
ATOM     11  C   UNL     1     -39.404  23.294   2.467  0.00  0.00    +0.412 C 
ATOM     12  H   UNL     1     -35.312  21.602   3.536  0.00  0.00    +0.151 HD
ENDROOT
BRANCH  11  13
ATOM     13  O   UNL     1     -39.389  24.343   3.345  0.00  0.00    -0.430 OA
ATOM     14  C   UNL     1     -39.532  25.646   2.768  0.00  0.00    +0.257 C 
ENDBRANCH  11  13
BRANCH   8  15
ATOM     15  C   UNL     1     -34.437  19.916   1.554  0.00  0.00    +0.013 C 
BRANCH  15  16
ATOM     16  C   UNL     1     -33.465  20.510   0.534  0.00  0.00    +0.001 C 
BRANCH  16  17
ATOM     17  C   UNL     1     -32.137  19.745   0.522  0.00  0.00    +0.012 C 
BRANCH  17  18
ATOM     18  C   UNL     1     -32.259  18.354   1.144  0.00  0.00    +0.110 C 
BRANCH  18  20
ATOM     19  O   UNL     1     -31.441  16.191   0.390  0.00  0.00    -0.250 OA
ATOM     20  C   UNL     1     -31.234  17.375   0.617  0.00  0.00    +0.317 C 
BRANCH  20  21
ATOM     21  O   UNL     1     -30.039  18.021   0.469  0.00  0.00    -0.444 OA
ATOM     22  C   UNL     1     -28.954  17.496   1.240  0.00  0.00    +0.256 C 
ENDBRANCH  20  21
ENDBRANCH  18  20
ENDBRANCH  17  18
ENDBRANCH  16  17
ENDBRANCH  15  16
ENDBRANCH   8  15
TORSDOF 7
ENDMDL
MODEL 7
REMARK VINA RESULT:      -4.8      4.998      6.086
REMARK  Name = 193398
REMARK  7 active torsions:
REMARK  status: ('A' for Active; 'I' for Inactive)
REMARK    1  A    between atoms: C_8  and  C_15
REMARK    2  A    between atoms: C_11  and  O_13
REMARK    3  A    between atoms: C_15  and  C_16
REMARK    4  A    between atoms: C_16  and  C_17
REMARK    5  A    between atoms: C_17  and  C_18
REMARK    6  A    between atoms: C_18  and  C_20
REMARK    7  A    between atoms: C_20  and  O_21
REMARK                            x       y       z     vdW  Elec       q    Type
REMARK                         _______ _______ _______ _____ _____    ______ ____
ROOT
ATOM      1  S   UNL     1     -35.925  21.479  -0.041  0.00  0.00    -0.138 S 
ATOM      2  O   UNL     1     -36.800  23.636   4.186  0.00  0.00    -0.252 OA
ATOM      3  O   UNL     1     -40.250  23.108   1.717  0.00  0.00    -0.226 OA
ATOM      4  N   UNL     1     -38.153  22.548   2.550  0.00  0.00    -0.179 N 
ATOM      5  N   UNL     1     -36.178  21.616   3.196  0.00  0.00    -0.287 N 
ATOM      6  C   UNL     1     -36.760  20.638   2.304  0.00  0.00    +0.102 C 
ATOM      7  C   UNL     1     -37.971  21.369   1.699  0.00  0.00    +0.117 C 
ATOM      8  C   UNL     1     -35.836  20.154   1.189  0.00  0.00    +0.067 C 
ATOM      9  C   UNL     1     -37.688  21.761   0.242  0.00  0.00    +0.080 C 
ATOM     10  C   UNL     1     -37.019  22.717   3.407  0.00  0.00    +0.312 C 
ATOM     11  C   UNL     1     -39.317  23.326   2.488  0.00  0.00    +0.412 C 
ATOM     12  H   UNL     1     -35.289  21.518   3.610  0.00  0.00    +0.151 HD
ENDROOT
BRANCH  11  13
ATOM     13  O   UNL     1     -39.300  24.354   3.391  0.00  0.00    -0.430 OA
ATOM     14  C   UNL     1     -39.524  25.663   2.855  0.00  0.00    +0.257 C 
ENDBRANCH  11  13
BRANCH   8  15
ATOM     15  C   UNL     1     -34.406  19.859   1.609  0.00  0.00    +0.013 C 
BRANCH  15  16
ATOM     16  C   UNL     1     -33.398  20.424   0.606  0.00  0.00    +0.001 C 
BRANCH  16  17
ATOM     17  C   UNL     1     -32.150  19.541   0.517  0.00  0.00    +0.012 C 
BRANCH  17  18
ATOM     18  C   UNL     1     -32.331  18.200   1.230  0.00  0.00    +0.110 C 
BRANCH  18  20
ATOM     19  O   UNL     1     -31.581  16.021   0.451  0.00  0.00    -0.250 OA
ATOM     20  C   UNL     1     -32.275  17.015   0.292  0.00  0.00    +0.317 C 
BRANCH  20  21
ATOM     21  O   UNL     1     -33.100  17.253  -0.772  0.00  0.00    -0.444 OA
ATOM     22  C   UNL     1     -32.597  16.838  -2.046  0.00  0.00    +0.256 C 
ENDBRANCH  20  21
ENDBRANCH  18  20
ENDBRANCH  17  18
ENDBRANCH  16  17
ENDBRANCH  15  16
ENDBRANCH   8  15
TORSDOF 7
ENDMDL
MODEL 8
REMARK VINA RESULT:      -4.8      4.619      6.455
REMARK  Name = 193398
REMARK  7 active torsions:
REMARK  status: ('A' for Active; 'I' for Inactive)
REMARK    1  A    between atoms: C_8  and  C_15
REMARK    2  A    between atoms: C_11  and  O_13
REMARK    3  A    between atoms: C_15  and  C_16
REMARK    4  A    between atoms: C_16  and  C_17
REMARK    5  A    between atoms: C_17  and  C_18
REMARK    6  A    between atoms: C_18  and  C_20
REMARK    7  A    between atoms: C_20  and  O_21
REMARK                            x       y       z     vdW  Elec       q    Type
REMARK                         _______ _______ _______ _____ _____    ______ ____
ROOT
ATOM      1  S   UNL     1     -35.338  22.480   0.724  0.00  0.00    -0.138 S 
ATOM      2  O   UNL     1     -35.055  22.431   5.541  0.00  0.00    -0.252 OA
ATOM      3  O   UNL     1     -36.910  25.921   3.909  0.00  0.00    -0.226 OA
ATOM      4  N   UNL     1     -36.334  23.668   3.951  0.00  0.00    -0.179 N 
ATOM      5  N   UNL     1     -36.081  21.418   3.704  0.00  0.00    -0.287 N 
ATOM      6  C   UNL     1     -36.992  21.794   2.646  0.00  0.00    +0.102 C 
ATOM      7  C   UNL     1     -36.976  23.332   2.678  0.00  0.00    +0.117 C 
ATOM      8  C   UNL     1     -36.603  21.299   1.255  0.00  0.00    +0.067 C 
ATOM      9  C   UNL     1     -36.186  23.885   1.482  0.00  0.00    +0.080 C 
ATOM     10  C   UNL     1     -35.737  22.502   4.526  0.00  0.00    +0.312 C 
ATOM     11  C   UNL     1     -36.372  24.969   4.472  0.00  0.00    +0.412 C 
ATOM     12  H   UNL     1     -35.739  20.504   3.832  0.00  0.00    +0.151 HD
ENDROOT
BRANCH  11  13
ATOM     13  O   UNL     1     -35.746  25.058   5.685  0.00  0.00    -0.430 OA
ATOM     14  C   UNL     1     -34.609  25.927   5.743  0.00  0.00    +0.257 C 
ENDBRANCH  11  13
BRANCH   8  15
ATOM     15  C   UNL     1     -36.108  19.864   1.188  0.00  0.00    +0.013 C 
BRANCH  15  16
ATOM     16  C   UNL     1     -34.695  19.783   0.609  0.00  0.00    +0.001 C 
BRANCH  16  17
ATOM     17  C   UNL     1     -33.703  19.239   1.642  0.00  0.00    +0.012 C 
BRANCH  17  18
ATOM     18  C   UNL     1     -32.901  18.050   1.111  0.00  0.00    +0.110 C 
BRANCH  18  20
ATOM     19  O   UNL     1     -31.045  19.403   0.309  0.00  0.00    -0.250 OA
ATOM     20  C   UNL     1     -31.449  18.382   0.848  0.00  0.00    +0.317 C 
BRANCH  20  21
ATOM     21  O   UNL     1     -30.672  17.344   1.280  0.00  0.00    -0.444 OA
ATOM     22  C   UNL     1     -29.726  16.844   0.329  0.00  0.00    +0.256 C 
ENDBRANCH  20  21
ENDBRANCH  18  20
ENDBRANCH  17  18
ENDBRANCH  16  17
ENDBRANCH  15  16
ENDBRANCH   8  15
TORSDOF 7
ENDMDL
MODEL 9
REMARK VINA RESULT:      -4.8      4.696      7.026
REMARK  Name = 193398
REMARK  7 active torsions:
REMARK  status: ('A' for Active; 'I' for Inactive)
REMARK    1  A    between atoms: C_8  and  C_15
REMARK    2  A    between atoms: C_11  and  O_13
REMARK    3  A    between atoms: C_15  and  C_16
REMARK    4  A    between atoms: C_16  and  C_17
REMARK    5  A    between atoms: C_17  and  C_18
REMARK    6  A    between atoms: C_18  and  C_20
REMARK    7  A    between atoms: C_20  and  O_21
REMARK                            x       y       z     vdW  Elec       q    Type
REMARK                         _______ _______ _______ _____ _____    ______ ____
ROOT
ATOM      1  S   UNL     1     -36.519  27.309   1.444  0.00  0.00    -0.138 S 
ATOM      2  O   UNL     1     -36.226  25.835   6.030  0.00  0.00    -0.252 OA
ATOM      3  O   UNL     1     -35.484  22.779   3.134  0.00  0.00    -0.226 OA
ATOM      4  N   UNL     1     -35.481  24.960   3.939  0.00  0.00    -0.179 N 
ATOM      5  N   UNL     1     -35.202  27.170   4.412  0.00  0.00    -0.287 N 
ATOM      6  C   UNL     1     -34.538  26.990   3.140  0.00  0.00    +0.102 C 
ATOM      7  C   UNL     1     -34.927  25.561   2.723  0.00  0.00    +0.117 C 
ATOM      8  C   UNL     1     -34.951  27.979   2.052  0.00  0.00    +0.067 C 
ATOM      9  C   UNL     1     -35.960  25.596   1.588  0.00  0.00    +0.080 C 
ATOM     10  C   UNL     1     -35.704  25.968   4.930  0.00  0.00    +0.312 C 
ATOM     11  C   UNL     1     -35.704  23.580   4.041  0.00  0.00    +0.412 C 
ATOM     12  H   UNL     1     -35.292  28.041   4.863  0.00  0.00    +0.151 HD
ENDROOT
BRANCH  11  13
ATOM     13  O   UNL     1     -36.189  23.224   5.269  0.00  0.00    -0.430 OA
ATOM     14  C   UNL     1     -35.363  22.345   6.040  0.00  0.00    +0.257 C 
ENDBRANCH  11  13
BRANCH   8  15
ATOM     15  C   UNL     1     -35.083  29.424   2.501  0.00  0.00    +0.013 C 
BRANCH  15  16
ATOM     16  C   UNL     1     -36.077  30.194   1.631  0.00  0.00    +0.001 C 
BRANCH  16  17
ATOM     17  C   UNL     1     -36.407  31.560   2.242  0.00  0.00    +0.012 C 
BRANCH  17  18
ATOM     18  C   UNL     1     -37.047  32.512   1.231  0.00  0.00    +0.110 C 
BRANCH  18  20
ATOM     19  O   UNL     1     -39.411  31.946   1.337  0.00  0.00    -0.250 OA
ATOM     20  C   UNL     1     -38.515  32.763   1.497  0.00  0.00    +0.317 C 
BRANCH  20  21
ATOM     21  O   UNL     1     -38.675  34.054   1.914  0.00  0.00    -0.444 OA
ATOM     22  C   UNL     1     -40.016  34.553   1.874  0.00  0.00    +0.256 C 
ENDBRANCH  20  21
ENDBRANCH  18  20
ENDBRANCH  17  18
ENDBRANCH  16  17
ENDBRANCH  15  16
ENDBRANCH   8  15
TORSDOF 7
ENDMDL
