MODEL 1
REMARK VINA RESULT:      -5.9      0.000      0.000
REMARK  Name = 5189
REMARK  3 active torsions:
REMARK  status: ('A' for Active; 'I' for Inactive)
REMARK    1  A    between atoms: C_16  and  C_23
REMARK    2  A    between atoms: C_23  and  O_24
REMARK    3  A    between atoms: O_24  and  C_25
REMARK                            x       y       z     vdW  Elec       q    Type
REMARK                         _______ _______ _______ _____ _____    ______ ____
ROOT
ATOM      1  S   UNL     1     -32.520  35.608   1.331  0.00  0.00    -0.120 S 
ATOM      2  S   UNL     1     -33.600  26.751   1.506  0.00  0.00    -0.059 S 
ATOM      3  N   UNL     1     -34.063  32.064   1.569  0.00  0.00    -0.283 N 
ATOM      4  N   UNL     1     -33.976  29.281   2.331  0.00  0.00    -0.275 N 
ATOM      5  N   UNL     1     -35.209  34.080   1.289  0.00  0.00    -0.394 NA
ATOM      6  N   UNL     1     -34.135  27.497   3.923  0.00  0.00    -0.378 NA
ATOM      7  C   UNL     1     -33.172  31.121   0.898  0.00  0.00    +0.114 C 
ATOM      8  C   UNL     1     -34.907  31.544   2.640  0.00  0.00    +0.114 C 
ATOM      9  C   UNL     1     -33.741  29.703   0.947  0.00  0.00    +0.115 C 
ATOM     10  C   UNL     1     -34.256  30.334   3.312  0.00  0.00    +0.115 C 
ATOM     11  C   UNL     1     -34.105  33.389   1.205  0.00  0.00    +0.171 C 
ATOM     12  C   UNL     1     -33.934  27.951   2.696  0.00  0.00    +0.211 C 
ATOM     13  C   UNL     1     -32.813  33.962   0.658  0.00  0.00    +0.133 C 
ATOM     14  C   UNL     1     -35.249  35.443   0.939  0.00  0.00    +0.124 C 
ATOM     15  C   UNL     1     -34.123  36.280   0.951  0.00  0.00    +0.122 C 
ATOM     16  C   UNL     1     -34.019  26.121   3.926  0.00  0.00    +0.198 C 
ATOM     17  C   UNL     1     -33.732  25.537   2.710  0.00  0.00    +0.132 C 
ATOM     18  C   UNL     1     -36.498  36.001   0.629  0.00  0.00    +0.029 C 
ATOM     19  C   UNL     1     -34.251  37.645   0.666  0.00  0.00    -0.009 C 
ATOM     20  C   UNL     1     -36.623  37.359   0.333  0.00  0.00    +0.002 C 
ATOM     21  C   UNL     1     -35.500  38.181   0.355  0.00  0.00    -0.003 C 
ENDROOT
BRANCH  16  23
ATOM     22  O   UNL     1     -34.217  25.899   6.275  0.00  0.00    -0.242 OA
ATOM     23  C   UNL     1     -34.195  25.383   5.145  0.00  0.00    +0.368 C 
BRANCH  23  24
ATOM     24  O   UNL     1     -34.341  24.022   4.966  0.00  0.00    -0.444 OA
BRANCH  24  25
ATOM     25  C   UNL     1     -35.523  23.417   5.502  0.00  0.00    +0.209 C 
ATOM     26  C   UNL     1     -35.146  22.124   6.192  0.00  0.00    +0.051 C 
ENDBRANCH  24  25
ENDBRANCH  23  24
ENDBRANCH  16  23
TORSDOF 3
ENDMDL
MODEL 2
REMARK VINA RESULT:      -5.8      8.866     11.594
REMARK  Name = 5189
REMARK  3 active torsions:
REMARK  status: ('A' for Active; 'I' for Inactive)
REMARK    1  A    between atoms: C_16  and  C_23
REMARK    2  A    between atoms: C_23  and  O_24
REMARK    3  A    between atoms: O_24  and  C_25
REMARK                            x       y       z     vdW  Elec       q    Type
REMARK                         _______ _______ _______ _____ _____    ______ ____
ROOT
ATOM      1  S   UNL     1     -35.682  20.252   2.201  0.00  0.00    -0.120 S 
ATOM      2  S   UNL     1     -42.726  25.662   1.334  0.00  0.00    -0.059 S 
ATOM      3  N   UNL     1     -37.944  23.302   1.444  0.00  0.00    -0.283 N 
ATOM      4  N   UNL     1     -40.204  25.012   1.997  0.00  0.00    -0.275 N 
ATOM      5  N   UNL     1     -35.741  22.977   0.739  0.00  0.00    -0.394 NA
ATOM      6  N   UNL     1     -41.313  26.764   3.198  0.00  0.00    -0.378 NA
ATOM      7  C   UNL     1     -39.314  22.833   1.258  0.00  0.00    +0.114 C 
ATOM      8  C   UNL     1     -37.762  24.670   1.922  0.00  0.00    +0.114 C 
ATOM      9  C   UNL     1     -40.252  23.997   0.939  0.00  0.00    +0.115 C 
ATOM     10  C   UNL     1     -38.957  25.120   2.762  0.00  0.00    +0.115 C 
ATOM     11  C   UNL     1     -36.868  22.489   1.180  0.00  0.00    +0.171 C 
ATOM     12  C   UNL     1     -41.283  25.829   2.262  0.00  0.00    +0.211 C 
ATOM     13  C   UNL     1     -37.100  21.005   1.383  0.00  0.00    +0.133 C 
ATOM     14  C   UNL     1     -34.630  22.149   0.490  0.00  0.00    +0.124 C 
ATOM     15  C   UNL     1     -34.437  20.904   1.108  0.00  0.00    +0.122 C 
ATOM     16  C   UNL     1     -42.545  27.387   3.183  0.00  0.00    +0.198 C 
ATOM     17  C   UNL     1     -43.443  26.927   2.244  0.00  0.00    +0.132 C 
ATOM     18  C   UNL     1     -33.634  22.633  -0.371  0.00  0.00    +0.029 C 
ATOM     19  C   UNL     1     -33.269  20.168   0.872  0.00  0.00    -0.009 C 
ATOM     20  C   UNL     1     -32.477  21.894  -0.615  0.00  0.00    +0.002 C 
ATOM     21  C   UNL     1     -32.293  20.663   0.008  0.00  0.00    -0.003 C 
ENDROOT
BRANCH  16  23
ATOM     22  O   UNL     1     -41.987  28.957   4.866  0.00  0.00    -0.242 OA
ATOM     23  C   UNL     1     -42.831  28.446   4.111  0.00  0.00    +0.368 C 
BRANCH  23  24
ATOM     24  O   UNL     1     -44.146  28.865   4.102  0.00  0.00    -0.444 OA
BRANCH  24  25
ATOM     25  C   UNL     1     -44.863  28.789   5.338  0.00  0.00    +0.209 C 
ATOM     26  C   UNL     1     -45.356  27.371   5.535  0.00  0.00    +0.051 C 
ENDBRANCH  24  25
ENDBRANCH  23  24
ENDBRANCH  16  23
TORSDOF 3
ENDMDL
MODEL 3
REMARK VINA RESULT:      -5.8      9.261     10.061
REMARK  Name = 5189
REMARK  3 active torsions:
REMARK  status: ('A' for Active; 'I' for Inactive)
REMARK    1  A    between atoms: C_16  and  C_23
REMARK    2  A    between atoms: C_23  and  O_24
REMARK    3  A    between atoms: O_24  and  C_25
REMARK                            x       y       z     vdW  Elec       q    Type
REMARK                         _______ _______ _______ _____ _____    ______ ____
ROOT
ATOM      1  S   UNL     1     -44.792  33.368   3.986  0.00  0.00    -0.120 S 
ATOM      2  S   UNL     1     -42.194  25.311   1.160  0.00  0.00    -0.059 S 
ATOM      3  N   UNL     1     -44.067  29.571   3.768  0.00  0.00    -0.283 N 
ATOM      4  N   UNL     1     -42.473  27.313   2.931  0.00  0.00    -0.275 N 
ATOM      5  N   UNL     1     -45.434  30.653   5.321  0.00  0.00    -0.394 NA
ATOM      6  N   UNL     1     -40.601  25.831   3.128  0.00  0.00    -0.378 NA
ATOM      7  C   UNL     1     -43.963  29.195   2.361  0.00  0.00    +0.114 C 
ATOM      8  C   UNL     1     -43.331  28.761   4.735  0.00  0.00    +0.114 C 
ATOM      9  C   UNL     1     -43.693  27.698   2.214  0.00  0.00    +0.115 C 
ATOM     10  C   UNL     1     -42.097  28.127   4.092  0.00  0.00    +0.115 C 
ATOM     11  C   UNL     1     -44.826  30.644   4.167  0.00  0.00    +0.171 C 
ATOM     12  C   UNL     1     -41.710  26.235   2.532  0.00  0.00    +0.211 C 
ATOM     13  C   UNL     1     -44.948  31.773   3.162  0.00  0.00    +0.133 C 
ATOM     14  C   UNL     1     -46.194  31.761   5.742  0.00  0.00    +0.124 C 
ATOM     15  C   UNL     1     -45.994  33.065   5.263  0.00  0.00    +0.122 C 
ATOM     16  C   UNL     1     -40.101  24.727   2.466  0.00  0.00    +0.198 C 
ATOM     17  C   UNL     1     -40.827  24.298   1.375  0.00  0.00    +0.132 C 
ATOM     18  C   UNL     1     -47.153  31.553   6.744  0.00  0.00    +0.029 C 
ATOM     19  C   UNL     1     -46.735  34.134   5.783  0.00  0.00    -0.009 C 
ATOM     20  C   UNL     1     -47.899  32.617   7.253  0.00  0.00    +0.002 C 
ATOM     21  C   UNL     1     -47.688  33.907   6.775  0.00  0.00    -0.003 C 
ENDROOT
BRANCH  16  23
ATOM     22  O   UNL     1     -38.434  23.045   2.441  0.00  0.00    -0.242 OA
ATOM     23  C   UNL     1     -38.894  24.095   2.921  0.00  0.00    +0.368 C 
BRANCH  23  24
ATOM     24  O   UNL     1     -38.266  24.756   3.957  0.00  0.00    -0.444 OA
BRANCH  24  25
ATOM     25  C   UNL     1     -36.837  24.683   4.006  0.00  0.00    +0.209 C 
ATOM     26  C   UNL     1     -36.339  25.541   5.149  0.00  0.00    +0.051 C 
ENDBRANCH  24  25
ENDBRANCH  23  24
ENDBRANCH  16  23
TORSDOF 3
ENDMDL
MODEL 4
REMARK VINA RESULT:      -5.7      5.924      9.482
REMARK  Name = 5189
REMARK  3 active torsions:
REMARK  status: ('A' for Active; 'I' for Inactive)
REMARK    1  A    between atoms: C_16  and  C_23
REMARK    2  A    between atoms: C_23  and  O_24
REMARK    3  A    between atoms: O_24  and  C_25
REMARK                            x       y       z     vdW  Elec       q    Type
REMARK                         _______ _______ _______ _____ _____    ______ ____
ROOT
ATOM      1  S   UNL     1     -39.228  24.835   3.238  0.00  0.00    -0.120 S 
ATOM      2  S   UNL     1     -31.575  29.418   3.486  0.00  0.00    -0.059 S 
ATOM      3  N   UNL     1     -35.484  25.811   3.088  0.00  0.00    -0.283 N 
ATOM      4  N   UNL     1     -33.199  27.335   3.979  0.00  0.00    -0.275 N 
ATOM      5  N   UNL     1     -36.454  23.838   2.302  0.00  0.00    -0.394 NA
ATOM      6  N   UNL     1     -31.406  27.803   5.498  0.00  0.00    -0.378 NA
ATOM      7  C   UNL     1     -35.385  27.247   2.840  0.00  0.00    +0.114 C 
ATOM      8  C   UNL     1     -34.382  25.177   3.805  0.00  0.00    +0.114 C 
ATOM      9  C   UNL     1     -33.924  27.688   2.755  0.00  0.00    +0.115 C 
ATOM     10  C   UNL     1     -33.686  26.174   4.732  0.00  0.00    +0.115 C 
ATOM     11  C   UNL     1     -36.571  25.086   2.663  0.00  0.00    +0.171 C 
ATOM     12  C   UNL     1     -32.107  28.062   4.406  0.00  0.00    +0.211 C 
ATOM     13  C   UNL     1     -37.882  25.845   2.594  0.00  0.00    +0.133 C 
ATOM     14  C   UNL     1     -37.570  23.086   1.887  0.00  0.00    +0.124 C 
ATOM     15  C   UNL     1     -38.889  23.384   2.264  0.00  0.00    +0.122 C 
ATOM     16  C   UNL     1     -30.388  28.728   5.618  0.00  0.00    +0.198 C 
ATOM     17  C   UNL     1     -30.318  29.681   4.623  0.00  0.00    +0.132 C 
ATOM     18  C   UNL     1     -37.335  21.939   1.114  0.00  0.00    +0.029 C 
ATOM     19  C   UNL     1     -39.943  22.547   1.878  0.00  0.00    -0.009 C 
ATOM     20  C   UNL     1     -38.387  21.113   0.721  0.00  0.00    +0.002 C 
ATOM     21  C   UNL     1     -39.691  21.415   1.105  0.00  0.00    -0.003 C 
ENDROOT
BRANCH  16  23
ATOM     22  O   UNL     1     -29.220  29.624   7.473  0.00  0.00    -0.242 OA
ATOM     23  C   UNL     1     -29.478  28.664   6.727  0.00  0.00    +0.368 C 
BRANCH  23  24
ATOM     24  O   UNL     1     -28.896  27.426   6.910  0.00  0.00    -0.444 OA
BRANCH  24  25
ATOM     25  C   UNL     1     -27.466  27.376   6.944  0.00  0.00    +0.209 C 
ATOM     26  C   UNL     1     -27.031  26.038   7.501  0.00  0.00    +0.051 C 
ENDBRANCH  24  25
ENDBRANCH  23  24
ENDBRANCH  16  23
TORSDOF 3
ENDMDL
MODEL 5
REMARK VINA RESULT:      -5.7      8.478      9.448
REMARK  Name = 5189
REMARK  3 active torsions:
REMARK  status: ('A' for Active; 'I' for Inactive)
REMARK    1  A    between atoms: C_16  and  C_23
REMARK    2  A    between atoms: C_23  and  O_24
REMARK    3  A    between atoms: O_24  and  C_25
REMARK                            x       y       z     vdW  Elec       q    Type
REMARK                         _______ _______ _______ _____ _____    ______ ____
ROOT
ATOM      1  S   UNL     1     -43.991  30.745   1.852  0.00  0.00    -0.120 S 
ATOM      2  S   UNL     1     -39.858  22.869   1.130  0.00  0.00    -0.059 S 
ATOM      3  N   UNL     1     -42.667  27.174   2.552  0.00  0.00    -0.283 N 
ATOM      4  N   UNL     1     -40.654  25.111   2.379  0.00  0.00    -0.275 N 
ATOM      5  N   UNL     1     -44.363  28.294   3.702  0.00  0.00    -0.394 NA
ATOM      6  N   UNL     1     -38.614  24.057   3.060  0.00  0.00    -0.378 NA
ATOM      7  C   UNL     1     -42.337  26.540   1.278  0.00  0.00    +0.114 C 
ATOM      8  C   UNL     1     -41.939  26.724   3.734  0.00  0.00    +0.114 C 
ATOM      9  C   UNL     1     -41.823  25.117   1.493  0.00  0.00    +0.115 C 
ATOM     10  C   UNL     1     -40.553  26.200   3.356  0.00  0.00    +0.115 C 
ATOM     11  C   UNL     1     -43.626  28.155   2.634  0.00  0.00    +0.171 C 
ATOM     12  C   UNL     1     -39.692  24.127   2.297  0.00  0.00    +0.211 C 
ATOM     13  C   UNL     1     -43.798  29.012   1.396  0.00  0.00    +0.133 C 
ATOM     14  C   UNL     1     -45.331  29.313   3.798  0.00  0.00    +0.124 C 
ATOM     15  C   UNL     1     -45.278  30.504   3.058  0.00  0.00    +0.122 C 
ATOM     16  C   UNL     1     -37.873  22.947   2.706  0.00  0.00    +0.198 C 
ATOM     17  C   UNL     1     -38.387  22.180   1.681  0.00  0.00    +0.132 C 
ATOM     18  C   UNL     1     -46.360  29.149   4.736  0.00  0.00    +0.029 C 
ATOM     19  C   UNL     1     -46.233  31.508   3.262  0.00  0.00    -0.009 C 
ATOM     20  C   UNL     1     -47.318  30.145   4.930  0.00  0.00    +0.002 C 
ATOM     21  C   UNL     1     -47.252  31.326   4.195  0.00  0.00    -0.003 C 
ENDROOT
BRANCH  16  23
ATOM     22  O   UNL     1     -35.740  21.940   2.919  0.00  0.00    -0.242 OA
ATOM     23  C   UNL     1     -36.647  22.646   3.392  0.00  0.00    +0.368 C 
BRANCH  23  24
ATOM     24  O   UNL     1     -36.547  23.212   4.646  0.00  0.00    -0.444 OA
BRANCH  24  25
ATOM     25  C   UNL     1     -35.277  23.128   5.301  0.00  0.00    +0.209 C 
ATOM     26  C   UNL     1     -35.355  22.087   6.397  0.00  0.00    +0.051 C 
ENDBRANCH  24  25
ENDBRANCH  23  24
ENDBRANCH  16  23
TORSDOF 3
ENDMDL
MODEL 6
REMARK VINA RESULT:      -5.6      5.601      7.528
REMARK  Name = 5189
REMARK  3 active torsions:
REMARK  status: ('A' for Active; 'I' for Inactive)
REMARK    1  A    between atoms: C_16  and  C_23
REMARK    2  A    between atoms: C_23  and  O_24
REMARK    3  A    between atoms: O_24  and  C_25
REMARK                            x       y       z     vdW  Elec       q    Type
REMARK                         _______ _______ _______ _____ _____    ______ ____
ROOT
ATOM      1  S   UNL     1     -33.143  29.702   2.647  0.00  0.00    -0.120 S 
ATOM      2  S   UNL     1     -38.425  22.533   2.059  0.00  0.00    -0.059 S 
ATOM      3  N   UNL     1     -34.753  26.226   3.211  0.00  0.00    -0.283 N 
ATOM      4  N   UNL     1     -36.088  23.842   2.279  0.00  0.00    -0.275 N 
ATOM      5  N   UNL     1     -33.223  27.309   4.605  0.00  0.00    -0.394 NA
ATOM      6  N   UNL     1     -36.127  21.691   1.224  0.00  0.00    -0.378 NA
ATOM      7  C   UNL     1     -36.132  26.266   2.731  0.00  0.00    +0.114 C 
ATOM      8  C   UNL     1     -34.076  24.933   3.200  0.00  0.00    +0.114 C 
ATOM      9  C   UNL     1     -36.825  24.921   2.945  0.00  0.00    +0.115 C 
ATOM     10  C   UNL     1     -34.643  24.027   2.106  0.00  0.00    +0.115 C 
ATOM     11  C   UNL     1     -34.118  27.361   3.657  0.00  0.00    +0.171 C 
ATOM     12  C   UNL     1     -36.725  22.703   1.832  0.00  0.00    +0.211 C 
ATOM     13  C   UNL     1     -34.566  28.659   3.015  0.00  0.00    +0.133 C 
ATOM     14  C   UNL     1     -32.555  28.467   5.047  0.00  0.00    +0.124 C 
ATOM     15  C   UNL     1     -32.396  29.618   4.260  0.00  0.00    +0.122 C 
ATOM     16  C   UNL     1     -37.064  20.723   0.918  0.00  0.00    +0.198 C 
ATOM     17  C   UNL     1     -38.362  21.000   1.291  0.00  0.00    +0.132 C 
ATOM     18  C   UNL     1     -31.960  28.433   6.316  0.00  0.00    +0.029 C 
ATOM     19  C   UNL     1     -31.651  30.705   4.735  0.00  0.00    -0.009 C 
ATOM     20  C   UNL     1     -31.229  29.521   6.794  0.00  0.00    +0.002 C 
ATOM     21  C   UNL     1     -31.072  30.655   6.002  0.00  0.00    -0.003 C 
ENDROOT
BRANCH  16  23
ATOM     22  O   UNL     1     -37.415  18.542   0.064  0.00  0.00    -0.242 OA
ATOM     23  C   UNL     1     -36.665  19.516   0.250  0.00  0.00    +0.368 C 
BRANCH  23  24
ATOM     24  O   UNL     1     -35.354  19.515  -0.181  0.00  0.00    -0.444 OA
BRANCH  24  25
ATOM     25  C   UNL     1     -34.487  18.516   0.368  0.00  0.00    +0.209 C 
ATOM     26  C   UNL     1     -33.688  19.124   1.500  0.00  0.00    +0.051 C 
ENDBRANCH  24  25
ENDBRANCH  23  24
ENDBRANCH  16  23
TORSDOF 3
ENDMDL
MODEL 7
REMARK VINA RESULT:      -5.6      1.230      1.250
REMARK  Name = 5189
REMARK  3 active torsions:
REMARK  status: ('A' for Active; 'I' for Inactive)
REMARK    1  A    between atoms: C_16  and  C_23
REMARK    2  A    between atoms: C_23  and  O_24
REMARK    3  A    between atoms: O_24  and  C_25
REMARK                            x       y       z     vdW  Elec       q    Type
REMARK                         _______ _______ _______ _____ _____    ______ ____
ROOT
ATOM      1  S   UNL     1     -33.066  34.726  -0.233  0.00  0.00    -0.120 S 
ATOM      2  S   UNL     1     -35.877  26.434   1.490  0.00  0.00    -0.059 S 
ATOM      3  N   UNL     1     -35.074  31.691   1.090  0.00  0.00    -0.283 N 
ATOM      4  N   UNL     1     -35.269  28.985   2.076  0.00  0.00    -0.275 N 
ATOM      5  N   UNL     1     -35.745  33.928   1.090  0.00  0.00    -0.394 NA
ATOM      6  N   UNL     1     -35.079  27.316   3.785  0.00  0.00    -0.378 NA
ATOM      7  C   UNL     1     -34.817  30.547   0.221  0.00  0.00    +0.114 C 
ATOM      8  C   UNL     1     -35.432  31.413   2.477  0.00  0.00    +0.114 C 
ATOM      9  C   UNL     1     -35.600  29.319   0.687  0.00  0.00    +0.115 C 
ATOM     10  C   UNL     1     -34.834  30.085   2.942  0.00  0.00    +0.115 C 
ATOM     11  C   UNL     1     -34.983  32.980   0.620  0.00  0.00    +0.171 C 
ATOM     12  C   UNL     1     -35.361  27.692   2.548  0.00  0.00    +0.211 C 
ATOM     13  C   UNL     1     -33.988  33.201  -0.502  0.00  0.00    +0.133 C 
ATOM     14  C   UNL     1     -35.638  35.254   0.627  0.00  0.00    +0.124 C 
ATOM     15  C   UNL     1     -34.474  35.779   0.044  0.00  0.00    +0.122 C 
ATOM     16  C   UNL     1     -35.282  25.956   3.907  0.00  0.00    +0.198 C 
ATOM     17  C   UNL     1     -35.714  25.305   2.771  0.00  0.00    +0.132 C 
ATOM     18  C   UNL     1     -36.733  36.106   0.827  0.00  0.00    +0.029 C 
ATOM     19  C   UNL     1     -34.412  37.129  -0.323  0.00  0.00    -0.009 C 
ATOM     20  C   UNL     1     -36.674  37.448   0.450  0.00  0.00    +0.002 C 
ATOM     21  C   UNL     1     -35.513  37.960  -0.122  0.00  0.00    -0.003 C 
ENDROOT
BRANCH  16  23
ATOM     22  O   UNL     1     -34.232  25.698   6.014  0.00  0.00    -0.242 OA
ATOM     23  C   UNL     1     -35.044  25.299   5.162  0.00  0.00    +0.368 C 
BRANCH  23  24
ATOM     24  O   UNL     1     -35.803  24.163   5.358  0.00  0.00    -0.444 OA
BRANCH  24  25
ATOM     25  C   UNL     1     -35.132  22.903   5.243  0.00  0.00    +0.209 C 
ATOM     26  C   UNL     1     -35.455  22.059   6.457  0.00  0.00    +0.051 C 
ENDBRANCH  24  25
ENDBRANCH  23  24
ENDBRANCH  16  23
TORSDOF 3
ENDMDL
MODEL 8
REMARK VINA RESULT:      -5.6      3.738      9.872
REMARK  Name = 5189
REMARK  3 active torsions:
REMARK  status: ('A' for Active; 'I' for Inactive)
REMARK    1  A    between atoms: C_16  and  C_23
REMARK    2  A    between atoms: C_23  and  O_24
REMARK    3  A    between atoms: O_24  and  C_25
REMARK                            x       y       z     vdW  Elec       q    Type
REMARK                         _______ _______ _______ _____ _____    ______ ____
ROOT
ATOM      1  S   UNL     1     -33.399  25.786   1.974  0.00  0.00    -0.120 S 
ATOM      2  S   UNL     1     -31.810  34.528   2.815  0.00  0.00    -0.059 S 
ATOM      3  N   UNL     1     -33.617  29.513   3.004  0.00  0.00    -0.283 N 
ATOM      4  N   UNL     1     -33.327  32.336   2.472  0.00  0.00    -0.275 N 
ATOM      5  N   UNL     1     -34.735  27.715   3.990  0.00  0.00    -0.394 NA
ATOM      6  N   UNL     1     -34.052  34.417   1.532  0.00  0.00    -0.378 NA
ATOM      7  C   UNL     1     -32.301  30.122   2.834  0.00  0.00    +0.114 C 
ATOM      8  C   UNL     1     -34.781  30.387   2.893  0.00  0.00    +0.114 C 
ATOM      9  C   UNL     1     -32.324  31.595   3.243  0.00  0.00    +0.115 C 
ATOM     10  C   UNL     1     -34.485  31.580   1.983  0.00  0.00    +0.115 C 
ATOM     11  C   UNL     1     -33.755  28.169   3.258  0.00  0.00    +0.171 C 
ATOM     12  C   UNL     1     -33.189  33.685   2.218  0.00  0.00    +0.211 C 
ATOM     13  C   UNL     1     -32.674  27.277   2.682  0.00  0.00    +0.133 C 
ATOM     14  C   UNL     1     -34.892  26.337   4.233  0.00  0.00    +0.124 C 
ATOM     15  C   UNL     1     -34.383  25.339   3.388  0.00  0.00    +0.122 C 
ATOM     16  C   UNL     1     -33.600  35.721   1.472  0.00  0.00    +0.198 C 
ATOM     17  C   UNL     1     -32.403  35.974   2.109  0.00  0.00    +0.132 C 
ATOM     18  C   UNL     1     -35.658  25.953   5.343  0.00  0.00    +0.029 C 
ATOM     19  C   UNL     1     -34.644  23.988   3.650  0.00  0.00    -0.009 C 
ATOM     20  C   UNL     1     -35.908  24.606   5.609  0.00  0.00    +0.002 C 
ATOM     21  C   UNL     1     -35.403  23.624   4.761  0.00  0.00    -0.003 C 
ENDROOT
BRANCH  16  23
ATOM     22  O   UNL     1     -34.012  37.907   0.660  0.00  0.00    -0.242 OA
ATOM     23  C   UNL     1     -34.363  36.720   0.778  0.00  0.00    +0.368 C 
BRANCH  23  24
ATOM     24  O   UNL     1     -35.545  36.255   0.239  0.00  0.00    -0.444 OA
BRANCH  24  25
ATOM     25  C   UNL     1     -36.703  37.083   0.395  0.00  0.00    +0.209 C 
ATOM     26  C   UNL     1     -37.766  36.309   1.144  0.00  0.00    +0.051 C 
ENDBRANCH  24  25
ENDBRANCH  23  24
ENDBRANCH  16  23
TORSDOF 3
ENDMDL
MODEL 9
REMARK VINA RESULT:      -5.6      7.950     11.495
REMARK  Name = 5189
REMARK  3 active torsions:
REMARK  status: ('A' for Active; 'I' for Inactive)
REMARK    1  A    between atoms: C_16  and  C_23
REMARK    2  A    between atoms: C_23  and  O_24
REMARK    3  A    between atoms: O_24  and  C_25
REMARK                            x       y       z     vdW  Elec       q    Type
REMARK                         _______ _______ _______ _____ _____    ______ ____
ROOT
ATOM      1  S   UNL     1     -35.563  23.298   5.648  0.00  0.00    -0.120 S 
ATOM      2  S   UNL     1     -37.343  17.563  -0.954  0.00  0.00    -0.059 S 
ATOM      3  N   UNL     1     -36.233  21.746   2.165  0.00  0.00    -0.283 N 
ATOM      4  N   UNL     1     -37.551  19.869   0.410  0.00  0.00    -0.275 N 
ATOM      5  N   UNL     1     -35.344  23.858   2.614  0.00  0.00    -0.394 NA
ATOM      6  N   UNL     1     -39.417  19.104  -0.883  0.00  0.00    -0.378 NA
ATOM      7  C   UNL     1     -35.944  20.316   2.227  0.00  0.00    +0.114 C 
ATOM      8  C   UNL     1     -37.216  22.189   1.181  0.00  0.00    +0.114 C 
ATOM      9  C   UNL     1     -36.176  19.652   0.870  0.00  0.00    +0.115 C 
ATOM     10  C   UNL     1     -38.228  21.082   0.881  0.00  0.00    +0.115 C 
ATOM     11  C   UNL     1     -35.605  22.639   2.999  0.00  0.00    +0.171 C 
ATOM     12  C   UNL     1     -38.182  18.974  -0.429  0.00  0.00    +0.211 C 
ATOM     13  C   UNL     1     -35.198  22.097   4.355  0.00  0.00    +0.133 C 
ATOM     14  C   UNL     1     -34.721  24.782   3.475  0.00  0.00    +0.124 C 
ATOM     15  C   UNL     1     -34.768  24.690   4.874  0.00  0.00    +0.122 C 
ATOM     16  C   UNL     1     -39.722  18.028  -1.694  0.00  0.00    +0.198 C 
ATOM     17  C   UNL     1     -38.725  17.090  -1.852  0.00  0.00    +0.132 C 
ATOM     18  C   UNL     1     -34.082  25.887   2.895  0.00  0.00    +0.029 C 
ATOM     19  C   UNL     1     -34.191  25.688   5.670  0.00  0.00    -0.009 C 
ATOM     20  C   UNL     1     -33.498  26.875   3.688  0.00  0.00    +0.002 C 
ATOM     21  C   UNL     1     -33.555  26.777   5.075  0.00  0.00    -0.003 C 
ENDROOT
BRANCH  16  23
ATOM     22  O   UNL     1     -41.206  18.018  -3.540  0.00  0.00    -0.242 OA
ATOM     23  C   UNL     1     -41.014  17.934  -2.315  0.00  0.00    +0.368 C 
BRANCH  23  24
ATOM     24  O   UNL     1     -42.054  17.738  -1.429  0.00  0.00    -0.444 OA
BRANCH  24  25
ATOM     25  C   UNL     1     -42.808  16.529  -1.565  0.00  0.00    +0.209 C 
ATOM     26  C   UNL     1     -42.179  15.456  -0.702  0.00  0.00    +0.051 C 
ENDBRANCH  24  25
ENDBRANCH  23  24
ENDBRANCH  16  23
TORSDOF 3
ENDMDL
