MODEL 1
REMARK VINA RESULT:      -6.4      0.000      0.000
REMARK  Name = 53363123
REMARK  3 active torsions:
REMARK  status: ('A' for Active; 'I' for Inactive)
REMARK    1  A    between atoms: C_15  and  O_25
REMARK    2  A    between atoms: C_18  and  O_27
REMARK    3  A    between atoms: C_21  and  O_29
REMARK                            x       y       z     vdW  Elec       q    Type
REMARK                         _______ _______ _______ _____ _____    ______ ____
ROOT
ATOM      1  O   UNL     1     -35.145  21.005   3.801  0.00  0.00    -0.452 OA
ATOM      2  O   UNL     1     -32.995  23.879   0.345  0.00  0.00    -0.293 OA
ATOM      3  O   UNL     1     -35.566  24.564  -0.394  0.00  0.00    -0.288 OA
ATOM      4  O   UNL     1     -35.093  21.840   5.889  0.00  0.00    -0.250 OA
ATOM      5  C   UNL     1     -36.537  21.971   1.962  0.00  0.00    +0.048 C 
ATOM      6  C   UNL     1     -34.472  21.929   0.301  0.00  0.00    +0.061 C 
ATOM      7  C   UNL     1     -35.402  22.770   1.252  0.00  0.00    +0.075 C 
ATOM      8  C   UNL     1     -33.956  20.667   1.085  0.00  0.00    +0.013 C 
ATOM      9  C   UNL     1     -35.975  20.717   2.651  0.00  0.00    +0.169 C 
ATOM     10  C   UNL     1     -35.110  19.859   1.714  0.00  0.00    +0.044 C 
ATOM     11  C   UNL     1     -37.176  22.877   3.053  0.00  0.00    +0.036 C 
ATOM     12  C   UNL     1     -32.992  19.804   0.219  0.00  0.00    +0.030 C 
ATOM     13  C   UNL     1     -33.173  22.716  -0.017  0.00  0.00    +0.179 C 
ATOM     14  C   UNL     1     -37.672  21.525   0.994  0.00  0.00    +0.004 C 
ATOM     15  C   UNL     1     -31.754  20.639  -0.173  0.00  0.00    +0.144 C 
ATOM     16  C   UNL     1     -35.166  21.546  -1.025  0.00  0.00    +0.008 C 
ATOM     17  C   UNL     1     -35.992  24.056   0.642  0.00  0.00    +0.206 C 
ATOM     18  C   UNL     1     -32.098  21.981  -0.810  0.00  0.00    +0.195 C 
ATOM     19  C   UNL     1     -36.244  23.120   4.241  0.00  0.00    +0.114 C 
ATOM     20  C   UNL     1     -37.629  24.218   2.491  0.00  0.00    -0.007 C 
ATOM     21  C   UNL     1     -37.092  24.755   1.379  0.00  0.00    +0.165 C 
ATOM     22  C   UNL     1     -32.535  18.519   0.930  0.00  0.00    +0.003 C 
ATOM     23  C   UNL     1     -35.493  21.917   4.730  0.00  0.00    +0.317 C 
ATOM     24  C   UNL     1     -38.739  24.893   3.254  0.00  0.00    +0.030 C 
ENDROOT
BRANCH  15  25
ATOM     25  O   UNL     1     -30.975  19.891  -1.112  0.00  0.00    -0.382 OA
ATOM     26  H   UNL     1     -30.087  19.744  -0.750  0.00  0.00    +0.210 HD
ENDBRANCH  15  25
BRANCH  18  27
ATOM     27  O   UNL     1     -30.918  22.775  -0.835  0.00  0.00    -0.375 OA
ATOM     28  H   UNL     1     -30.283  22.391  -1.459  0.00  0.00    +0.211 HD
ENDBRANCH  18  27
BRANCH  21  29
ATOM     29  O   UNL     1     -37.528  25.961   0.868  0.00  0.00    -0.469 OA
ATOM     30  C   UNL     1     -36.814  27.037   1.445  0.00  0.00    +0.253 C 
ENDBRANCH  21  29
TORSDOF 3
ENDMDL
MODEL 2
REMARK VINA RESULT:      -6.2      2.309      3.759
REMARK  Name = 53363123
REMARK  3 active torsions:
REMARK  status: ('A' for Active; 'I' for Inactive)
REMARK    1  A    between atoms: C_15  and  O_25
REMARK    2  A    between atoms: C_18  and  O_27
REMARK    3  A    between atoms: C_21  and  O_29
REMARK                            x       y       z     vdW  Elec       q    Type
REMARK                         _______ _______ _______ _____ _____    ______ ____
ROOT
ATOM      1  O   UNL     1     -38.897  21.253  -0.340  0.00  0.00    -0.452 OA
ATOM      2  O   UNL     1     -35.160  20.225   2.792  0.00  0.00    -0.293 OA
ATOM      3  O   UNL     1     -35.193  22.919   3.395  0.00  0.00    -0.288 OA
ATOM      4  O   UNL     1     -40.936  20.654   0.395  0.00  0.00    -0.250 OA
ATOM      5  C   UNL     1     -37.568  23.127   0.651  0.00  0.00    +0.048 C 
ATOM      6  C   UNL     1     -35.407  21.598   0.781  0.00  0.00    +0.061 C 
ATOM      7  C   UNL     1     -36.623  22.254   1.533  0.00  0.00    +0.075 C 
ATOM      8  C   UNL     1     -35.945  20.849  -0.493  0.00  0.00    +0.013 C 
ATOM      9  C   UNL     1     -38.002  22.359  -0.609  0.00  0.00    +0.169 C 
ATOM     10  C   UNL     1     -36.816  21.761  -1.381  0.00  0.00    +0.044 C 
ATOM     11  C   UNL     1     -38.844  23.467   1.473  0.00  0.00    +0.036 C 
ATOM     12  C   UNL     1     -34.799  20.135  -1.269  0.00  0.00    +0.030 C 
ATOM     13  C   UNL     1     -34.793  20.460   1.640  0.00  0.00    +0.179 C 
ATOM     14  C   UNL     1     -36.923  24.470   0.202  0.00  0.00    +0.004 C 
ATOM     15  C   UNL     1     -34.133  19.078  -0.361  0.00  0.00    +0.144 C 
ATOM     16  C   UNL     1     -34.301  22.619   0.432  0.00  0.00    +0.008 C 
ATOM     17  C   UNL     1     -36.274  23.028   2.819  0.00  0.00    +0.206 C 
ATOM     18  C   UNL     1     -33.694  19.624   0.993  0.00  0.00    +0.195 C 
ATOM     19  C   UNL     1     -39.744  22.251   1.701  0.00  0.00    +0.114 C 
ATOM     20  C   UNL     1     -38.506  24.096   2.819  0.00  0.00    -0.007 C 
ATOM     21  C   UNL     1     -37.324  23.903   3.432  0.00  0.00    +0.165 C 
ATOM     22  C   UNL     1     -35.282  19.462  -2.565  0.00  0.00    +0.003 C 
ATOM     23  C   UNL     1     -39.937  21.359   0.510  0.00  0.00    +0.317 C 
ATOM     24  C   UNL     1     -39.582  24.973   3.405  0.00  0.00    +0.030 C 
ENDROOT
BRANCH  15  25
ATOM     25  O   UNL     1     -32.975  18.566  -1.028  0.00  0.00    -0.382 OA
ATOM     26  H   UNL     1     -32.182  18.791  -0.515  0.00  0.00    +0.210 HD
ENDBRANCH  15  25
BRANCH  18  27
ATOM     27  O   UNL     1     -33.394  18.521   1.839  0.00  0.00    -0.375 OA
ATOM     28  H   UNL     1     -33.628  17.695   1.388  0.00  0.00    +0.211 HD
ENDBRANCH  18  27
BRANCH  21  29
ATOM     29  O   UNL     1     -37.023  24.499   4.641  0.00  0.00    -0.469 OA
ATOM     30  C   UNL     1     -36.378  25.740   4.441  0.00  0.00    +0.253 C 
ENDBRANCH  21  29
TORSDOF 3
ENDMDL
MODEL 3
REMARK VINA RESULT:      -6.2      2.671      5.402
REMARK  Name = 53363123
REMARK  3 active torsions:
REMARK  status: ('A' for Active; 'I' for Inactive)
REMARK    1  A    between atoms: C_15  and  O_25
REMARK    2  A    between atoms: C_18  and  O_27
REMARK    3  A    between atoms: C_21  and  O_29
REMARK                            x       y       z     vdW  Elec       q    Type
REMARK                         _______ _______ _______ _____ _____    ______ ____
ROOT
ATOM      1  O   UNL     1     -34.099  21.525   1.096  0.00  0.00    -0.452 OA
ATOM      2  O   UNL     1     -37.523  23.668   4.015  0.00  0.00    -0.293 OA
ATOM      3  O   UNL     1     -39.273  23.258   1.918  0.00  0.00    -0.288 OA
ATOM      4  O   UNL     1     -33.606  19.396   1.627  0.00  0.00    -0.250 OA
ATOM      5  C   UNL     1     -36.289  22.231   0.114  0.00  0.00    +0.048 C 
ATOM      6  C   UNL     1     -36.496  24.213   1.861  0.00  0.00    +0.061 C 
ATOM      7  C   UNL     1     -36.933  22.764   1.430  0.00  0.00    +0.075 C 
ATOM      8  C   UNL     1     -34.926  24.290   1.856  0.00  0.00    +0.013 C 
ATOM      9  C   UNL     1     -34.760  22.397   0.148  0.00  0.00    +0.169 C 
ATOM     10  C   UNL     1     -34.324  23.823   0.515  0.00  0.00    +0.044 C 
ATOM     11  C   UNL     1     -36.608  20.714  -0.018  0.00  0.00    +0.036 C 
ATOM     12  C   UNL     1     -34.415  25.688   2.315  0.00  0.00    +0.030 C 
ATOM     13  C   UNL     1     -36.868  24.468   3.346  0.00  0.00    +0.179 C 
ATOM     14  C   UNL     1     -36.825  22.939  -1.164  0.00  0.00    +0.004 C 
ATOM     15  C   UNL     1     -34.884  25.966   3.760  0.00  0.00    +0.144 C 
ATOM     16  C   UNL     1     -37.136  25.314   0.985  0.00  0.00    +0.008 C 
ATOM     17  C   UNL     1     -38.453  22.510   1.388  0.00  0.00    +0.206 C 
ATOM     18  C   UNL     1     -36.383  25.775   3.964  0.00  0.00    +0.195 C 
ATOM     19  C   UNL     1     -35.859  19.860   1.007  0.00  0.00    +0.114 C 
ATOM     20  C   UNL     1     -38.100  20.432   0.092  0.00  0.00    -0.007 C 
ATOM     21  C   UNL     1     -38.949  21.260   0.729  0.00  0.00    +0.165 C 
ATOM     22  C   UNL     1     -32.885  25.820   2.242  0.00  0.00    +0.003 C 
ATOM     23  C   UNL     1     -34.419  20.222   1.220  0.00  0.00    +0.317 C 
ATOM     24  C   UNL     1     -38.566  19.168  -0.584  0.00  0.00    +0.030 C 
ENDROOT
BRANCH  15  25
ATOM     25  O   UNL     1     -34.561  27.319   4.094  0.00  0.00    -0.382 OA
ATOM     26  H   UNL     1     -34.263  27.361   5.017  0.00  0.00    +0.210 HD
ENDBRANCH  15  25
BRANCH  18  27
ATOM     27  O   UNL     1     -36.640  25.749   5.363  0.00  0.00    -0.375 OA
ATOM     28  H   UNL     1     -36.000  25.164   5.798  0.00  0.00    +0.211 HD
ENDBRANCH  18  27
BRANCH  21  29
ATOM     29  O   UNL     1     -40.303  21.002   0.801  0.00  0.00    -0.469 OA
ATOM     30  C   UNL     1     -40.969  21.493  -0.345  0.00  0.00    +0.253 C 
ENDBRANCH  21  29
TORSDOF 3
ENDMDL
MODEL 4
REMARK VINA RESULT:      -6.2      4.451      7.694
REMARK  Name = 53363123
REMARK  3 active torsions:
REMARK  status: ('A' for Active; 'I' for Inactive)
REMARK    1  A    between atoms: C_15  and  O_25
REMARK    2  A    between atoms: C_18  and  O_27
REMARK    3  A    between atoms: C_21  and  O_29
REMARK                            x       y       z     vdW  Elec       q    Type
REMARK                         _______ _______ _______ _____ _____    ______ ____
ROOT
ATOM      1  O   UNL     1     -36.026  29.549   1.669  0.00  0.00    -0.452 OA
ATOM      2  O   UNL     1     -35.051  26.432   5.434  0.00  0.00    -0.293 OA
ATOM      3  O   UNL     1     -32.406  27.133   5.062  0.00  0.00    -0.288 OA
ATOM      4  O   UNL     1     -36.883  31.535   2.286  0.00  0.00    -0.250 OA
ATOM      5  C   UNL     1     -33.663  28.864   2.122  0.00  0.00    +0.048 C 
ATOM      6  C   UNL     1     -34.465  26.518   3.059  0.00  0.00    +0.061 C 
ATOM      7  C   UNL     1     -33.951  27.973   3.369  0.00  0.00    +0.075 C 
ATOM      8  C   UNL     1     -35.677  26.611   2.062  0.00  0.00    +0.013 C 
ATOM      9  C   UNL     1     -34.861  28.858   1.158  0.00  0.00    +0.169 C 
ATOM     10  C   UNL     1     -35.335  27.440   0.806  0.00  0.00    +0.044 C 
ATOM     11  C   UNL     1     -33.433  30.327   2.598  0.00  0.00    +0.036 C 
ATOM     12  C   UNL     1     -36.269  25.207   1.740  0.00  0.00    +0.030 C 
ATOM     13  C   UNL     1     -35.089  25.885   4.332  0.00  0.00    +0.179 C 
ATOM     14  C   UNL     1     -32.399  28.421   1.328  0.00  0.00    +0.004 C 
ATOM     15  C   UNL     1     -36.791  24.551   3.037  0.00  0.00    +0.144 C 
ATOM     16  C   UNL     1     -33.347  25.591   2.531  0.00  0.00    +0.008 C 
ATOM     17  C   UNL     1     -32.761  28.067   4.344  0.00  0.00    +0.206 C 
ATOM     18  C   UNL     1     -35.766  24.529   4.166  0.00  0.00    +0.195 C 
ATOM     19  C   UNL     1     -34.713  30.992   3.108  0.00  0.00    +0.114 C 
ATOM     20  C   UNL     1     -32.361  30.416   3.676  0.00  0.00    -0.007 C 
ATOM     21  C   UNL     1     -32.046  29.376   4.471  0.00  0.00    +0.165 C 
ATOM     22  C   UNL     1     -37.403  25.259   0.703  0.00  0.00    +0.003 C 
ATOM     23  C   UNL     1     -35.941  30.745   2.283  0.00  0.00    +0.317 C 
ATOM     24  C   UNL     1     -31.659  31.745   3.775  0.00  0.00    +0.030 C 
ENDROOT
BRANCH  15  25
ATOM     25  O   UNL     1     -37.161  23.200   2.749  0.00  0.00    -0.382 OA
ATOM     26  H   UNL     1     -38.128  23.117   2.778  0.00  0.00    +0.210 HD
ENDBRANCH  15  25
BRANCH  18  27
ATOM     27  O   UNL     1     -36.444  24.200   5.372  0.00  0.00    -0.375 OA
ATOM     28  H   UNL     1     -37.392  24.102   5.194  0.00  0.00    +0.211 HD
ENDBRANCH  18  27
BRANCH  21  29
ATOM     29  O   UNL     1     -31.056  29.465   5.429  0.00  0.00    -0.469 OA
ATOM     30  C   UNL     1     -31.609  29.768   6.695  0.00  0.00    +0.253 C 
ENDBRANCH  21  29
TORSDOF 3
ENDMDL
MODEL 5
REMARK VINA RESULT:      -6.1      3.025      4.938
REMARK  Name = 53363123
REMARK  3 active torsions:
REMARK  status: ('A' for Active; 'I' for Inactive)
REMARK    1  A    between atoms: C_15  and  O_25
REMARK    2  A    between atoms: C_18  and  O_27
REMARK    3  A    between atoms: C_21  and  O_29
REMARK                            x       y       z     vdW  Elec       q    Type
REMARK                         _______ _______ _______ _____ _____    ______ ____
ROOT
ATOM      1  O   UNL     1     -38.251  21.445   2.335  0.00  0.00    -0.452 OA
ATOM      2  O   UNL     1     -37.052  26.281   2.421  0.00  0.00    -0.293 OA
ATOM      3  O   UNL     1     -36.226  25.914  -0.189  0.00  0.00    -0.288 OA
ATOM      4  O   UNL     1     -40.449  21.021   2.122  0.00  0.00    -0.250 OA
ATOM      5  C   UNL     1     -36.844  22.399   0.499  0.00  0.00    +0.048 C 
ATOM      6  C   UNL     1     -35.806  24.191   2.152  0.00  0.00    +0.061 C 
ATOM      7  C   UNL     1     -36.834  23.874   1.004  0.00  0.00    +0.075 C 
ATOM      8  C   UNL     1     -35.991  23.136   3.303  0.00  0.00    +0.013 C 
ATOM      9  C   UNL     1     -36.961  21.419   1.678  0.00  0.00    +0.169 C 
ATOM     10  C   UNL     1     -35.924  21.686   2.780  0.00  0.00    +0.044 C 
ATOM     11  C   UNL     1     -38.081  22.196  -0.421  0.00  0.00    +0.036 C 
ATOM     12  C   UNL     1     -35.032  23.412   4.498  0.00  0.00    +0.030 C 
ATOM     13  C   UNL     1     -36.159  25.540   2.835  0.00  0.00    +0.179 C 
ATOM     14  C   UNL     1     -35.577  22.021  -0.322  0.00  0.00    +0.004 C 
ATOM     15  C   UNL     1     -35.332  24.803   5.098  0.00  0.00    +0.144 C 
ATOM     16  C   UNL     1     -34.347  24.251   1.646  0.00  0.00    +0.008 C 
ATOM     17  C   UNL     1     -36.794  24.824  -0.209  0.00  0.00    +0.206 C 
ATOM     18  C   UNL     1     -35.346  25.925   4.065  0.00  0.00    +0.195 C 
ATOM     19  C   UNL     1     -39.403  22.220   0.348  0.00  0.00    +0.114 C 
ATOM     20  C   UNL     1     -38.137  23.228  -1.541  0.00  0.00    -0.007 C 
ATOM     21  C   UNL     1     -37.538  24.430  -1.448  0.00  0.00    +0.165 C 
ATOM     22  C   UNL     1     -35.132  22.348   5.604  0.00  0.00    +0.003 C 
ATOM     23  C   UNL     1     -39.409  21.468   1.646  0.00  0.00    +0.317 C 
ATOM     24  C   UNL     1     -38.890  22.798  -2.773  0.00  0.00    +0.030 C 
ENDROOT
BRANCH  15  25
ATOM     25  O   UNL     1     -34.328  25.109   6.071  0.00  0.00    -0.382 OA
ATOM     26  H   UNL     1     -33.674  25.710   5.680  0.00  0.00    +0.210 HD
ENDBRANCH  15  25
BRANCH  18  27
ATOM     27  O   UNL     1     -35.931  27.073   4.666  0.00  0.00    -0.375 OA
ATOM     28  H   UNL     1     -36.002  26.936   5.623  0.00  0.00    +0.211 HD
ENDBRANCH  18  27
BRANCH  21  29
ATOM     29  O   UNL     1     -37.578  25.346  -2.480  0.00  0.00    -0.469 OA
ATOM     30  C   UNL     1     -38.653  26.249  -2.307  0.00  0.00    +0.253 C 
ENDBRANCH  21  29
TORSDOF 3
ENDMDL
MODEL 6
REMARK VINA RESULT:      -6.1      2.483      3.987
REMARK  Name = 53363123
REMARK  3 active torsions:
REMARK  status: ('A' for Active; 'I' for Inactive)
REMARK    1  A    between atoms: C_15  and  O_25
REMARK    2  A    between atoms: C_18  and  O_27
REMARK    3  A    between atoms: C_21  and  O_29
REMARK                            x       y       z     vdW  Elec       q    Type
REMARK                         _______ _______ _______ _____ _____    ______ ____
ROOT
ATOM      1  O   UNL     1     -36.677  22.685   4.482  0.00  0.00    -0.452 OA
ATOM      2  O   UNL     1     -33.515  22.629   0.631  0.00  0.00    -0.293 OA
ATOM      3  O   UNL     1     -33.233  25.338   1.085  0.00  0.00    -0.288 OA
ATOM      4  O   UNL     1     -35.839  21.868   6.403  0.00  0.00    -0.250 OA
ATOM      5  C   UNL     1     -35.939  24.846   3.462  0.00  0.00    +0.048 C 
ATOM      6  C   UNL     1     -35.669  23.697   1.089  0.00  0.00    +0.061 C 
ATOM      7  C   UNL     1     -34.977  24.242   2.393  0.00  0.00    +0.075 C 
ATOM      8  C   UNL     1     -36.835  22.727   1.503  0.00  0.00    +0.013 C 
ATOM      9  C   UNL     1     -37.091  23.875   3.771  0.00  0.00    +0.169 C 
ATOM     10  C   UNL     1     -37.808  23.380   2.506  0.00  0.00    +0.044 C 
ATOM     11  C   UNL     1     -35.139  25.080   4.775  0.00  0.00    +0.036 C 
ATOM     12  C   UNL     1     -37.543  22.112   0.259  0.00  0.00    +0.030 C 
ATOM     13  C   UNL     1     -34.693  22.779   0.305  0.00  0.00    +0.179 C 
ATOM     14  C   UNL     1     -36.555  26.210   3.034  0.00  0.00    +0.004 C 
ATOM     15  C   UNL     1     -36.529  21.287  -0.563  0.00  0.00    +0.144 C 
ATOM     16  C   UNL     1     -36.156  24.828   0.155  0.00  0.00    +0.008 C 
ATOM     17  C   UNL     1     -33.798  25.209   2.169  0.00  0.00    +0.206 C 
ATOM     18  C   UNL     1     -35.256  22.052  -0.911  0.00  0.00    +0.195 C 
ATOM     19  C   UNL     1     -34.753  23.776   5.475  0.00  0.00    +0.114 C 
ATOM     20  C   UNL     1     -33.884  25.910   4.541  0.00  0.00    -0.007 C 
ATOM     21  C   UNL     1     -33.274  25.977   3.343  0.00  0.00    +0.165 C 
ATOM     22  C   UNL     1     -38.741  21.223   0.631  0.00  0.00    +0.003 C 
ATOM     23  C   UNL     1     -35.826  22.729   5.526  0.00  0.00    +0.317 C 
ATOM     24  C   UNL     1     -33.385  26.673   5.741  0.00  0.00    +0.030 C 
ENDROOT
BRANCH  15  25
ATOM     25  O   UNL     1     -37.151  20.885  -1.787  0.00  0.00    -0.382 OA
ATOM     26  H   UNL     1     -36.878  19.980  -2.006  0.00  0.00    +0.210 HD
ENDBRANCH  15  25
BRANCH  18  27
ATOM     27  O   UNL     1     -34.292  21.117  -1.379  0.00  0.00    -0.375 OA
ATOM     28  H   UNL     1     -34.071  20.497  -0.667  0.00  0.00    +0.211 HD
ENDBRANCH  18  27
BRANCH  21  29
ATOM     29  O   UNL     1     -32.149  26.752   3.139  0.00  0.00    -0.469 OA
ATOM     30  C   UNL     1     -32.507  28.057   2.730  0.00  0.00    +0.253 C 
ENDBRANCH  21  29
TORSDOF 3
ENDMDL
MODEL 7
REMARK VINA RESULT:      -6.1      3.232      5.686
REMARK  Name = 53363123
REMARK  3 active torsions:
REMARK  status: ('A' for Active; 'I' for Inactive)
REMARK    1  A    between atoms: C_15  and  O_25
REMARK    2  A    between atoms: C_18  and  O_27
REMARK    3  A    between atoms: C_21  and  O_29
REMARK                            x       y       z     vdW  Elec       q    Type
REMARK                         _______ _______ _______ _____ _____    ______ ____
ROOT
ATOM      1  O   UNL     1     -36.727  25.667  -0.847  0.00  0.00    -0.452 OA
ATOM      2  O   UNL     1     -38.977  23.362   2.955  0.00  0.00    -0.293 OA
ATOM      3  O   UNL     1     -36.725  24.012   4.416  0.00  0.00    -0.288 OA
ATOM      4  O   UNL     1     -37.515  27.724  -1.304  0.00  0.00    -0.250 OA
ATOM      5  C   UNL     1     -35.416  25.117   1.209  0.00  0.00    +0.048 C 
ATOM      6  C   UNL     1     -36.927  22.989   1.670  0.00  0.00    +0.061 C 
ATOM      7  C   UNL     1     -36.584  24.483   2.025  0.00  0.00    +0.075 C 
ATOM      8  C   UNL     1     -37.113  22.869   0.113  0.00  0.00    +0.013 C 
ATOM      9  C   UNL     1     -35.626  24.906  -0.299  0.00  0.00    +0.169 C 
ATOM     10  C   UNL     1     -35.907  23.439  -0.662  0.00  0.00    +0.044 C 
ATOM     11  C   UNL     1     -35.389  26.647   1.485  0.00  0.00    +0.036 C 
ATOM     12  C   UNL     1     -37.498  21.421  -0.312  0.00  0.00    +0.030 C 
ATOM     13  C   UNL     1     -38.323  22.608   2.233  0.00  0.00    +0.179 C 
ATOM     14  C   UNL     1     -34.019  24.544   1.590  0.00  0.00    +0.004 C 
ATOM     15  C   UNL     1     -38.840  21.025   0.342  0.00  0.00    +0.144 C 
ATOM     16  C   UNL     1     -35.878  21.991   2.210  0.00  0.00    +0.008 C 
ATOM     17  C   UNL     1     -36.376  24.782   3.523  0.00  0.00    +0.206 C 
ATOM     18  C   UNL     1     -38.870  21.238   1.852  0.00  0.00    +0.195 C 
ATOM     19  C   UNL     1     -36.576  27.382   0.859  0.00  0.00    +0.114 C 
ATOM     20  C   UNL     1     -35.337  26.960   2.974  0.00  0.00    -0.007 C 
ATOM     21  C   UNL     1     -35.781  26.100   3.910  0.00  0.00    +0.165 C 
ATOM     22  C   UNL     1     -37.605  21.254  -1.837  0.00  0.00    +0.003 C 
ATOM     23  C   UNL     1     -36.933  26.962  -0.536  0.00  0.00    +0.317 C 
ATOM     24  C   UNL     1     -34.730  28.292   3.330  0.00  0.00    +0.030 C 
ENDROOT
BRANCH  15  25
ATOM     25  O   UNL     1     -39.082  19.638   0.086  0.00  0.00    -0.382 OA
ATOM     26  H   UNL     1     -40.014  19.435   0.264  0.00  0.00    +0.210 HD
ENDBRANCH  15  25
BRANCH  18  27
ATOM     27  O   UNL     1     -40.222  21.143   2.284  0.00  0.00    -0.375 OA
ATOM     28  H   UNL     1     -40.813  21.247   1.523  0.00  0.00    +0.211 HD
ENDBRANCH  18  27
BRANCH  21  29
ATOM     29  O   UNL     1     -35.707  26.389   5.259  0.00  0.00    -0.469 OA
ATOM     30  C   UNL     1     -34.477  25.946   5.799  0.00  0.00    +0.253 C 
ENDBRANCH  21  29
TORSDOF 3
ENDMDL
MODEL 8
REMARK VINA RESULT:      -6.0      3.093      5.575
REMARK  Name = 53363123
REMARK  3 active torsions:
REMARK  status: ('A' for Active; 'I' for Inactive)
REMARK    1  A    between atoms: C_15  and  O_25
REMARK    2  A    between atoms: C_18  and  O_27
REMARK    3  A    between atoms: C_21  and  O_29
REMARK                            x       y       z     vdW  Elec       q    Type
REMARK                         _______ _______ _______ _____ _____    ______ ____
ROOT
ATOM      1  O   UNL     1     -37.778  25.001   0.457  0.00  0.00    -0.452 OA
ATOM      2  O   UNL     1     -36.211  25.224   5.182  0.00  0.00    -0.293 OA
ATOM      3  O   UNL     1     -34.511  27.218   4.311  0.00  0.00    -0.288 OA
ATOM      4  O   UNL     1     -39.768  25.978   0.076  0.00  0.00    -0.250 OA
ATOM      5  C   UNL     1     -35.698  26.276   1.007  0.00  0.00    +0.048 C 
ATOM      6  C   UNL     1     -35.176  24.656   3.038  0.00  0.00    +0.061 C 
ATOM      7  C   UNL     1     -35.726  26.046   2.549  0.00  0.00    +0.075 C 
ATOM      8  C   UNL     1     -35.886  23.515   2.221  0.00  0.00    +0.013 C 
ATOM      9  C   UNL     1     -36.347  25.095   0.267  0.00  0.00    +0.169 C 
ATOM     10  C   UNL     1     -35.776  23.735   0.698  0.00  0.00    +0.044 C 
ATOM     11  C   UNL     1     -36.514  27.559   0.679  0.00  0.00    +0.036 C 
ATOM     12  C   UNL     1     -35.421  22.102   2.681  0.00  0.00    +0.030 C 
ATOM     13  C   UNL     1     -35.619  24.385   4.501  0.00  0.00    +0.179 C 
ATOM     14  C   UNL     1     -34.261  26.473   0.441  0.00  0.00    +0.004 C 
ATOM     15  C   UNL     1     -35.780  21.892   4.168  0.00  0.00    +0.144 C 
ATOM     16  C   UNL     1     -33.636  24.561   2.953  0.00  0.00    +0.008 C 
ATOM     17  C   UNL     1     -35.138  27.283   3.256  0.00  0.00    +0.206 C 
ATOM     18  C   UNL     1     -35.290  23.014   5.079  0.00  0.00    +0.195 C 
ATOM     19  C   UNL     1     -38.017  27.375   0.890  0.00  0.00    +0.114 C 
ATOM     20  C   UNL     1     -36.040  28.760   1.487  0.00  0.00    -0.007 C 
ATOM     21  C   UNL     1     -35.401  28.634   2.665  0.00  0.00    +0.165 C 
ATOM     22  C   UNL     1     -36.036  20.967   1.844  0.00  0.00    +0.003 C 
ATOM     23  C   UNL     1     -38.585  26.079   0.392  0.00  0.00    +0.317 C 
ATOM     24  C   UNL     1     -36.317  30.103   0.862  0.00  0.00    +0.030 C 
ENDROOT
BRANCH  15  25
ATOM     25  O   UNL     1     -35.187  20.669   4.615  0.00  0.00    -0.382 OA
ATOM     26  H   UNL     1     -35.882  20.005   4.751  0.00  0.00    +0.210 HD
ENDBRANCH  15  25
BRANCH  18  27
ATOM     27  O   UNL     1     -35.937  22.875   6.338  0.00  0.00    -0.375 OA
ATOM     28  H   UNL     1     -35.293  23.012   7.050  0.00  0.00    +0.211 HD
ENDBRANCH  18  27
BRANCH  21  29
ATOM     29  O   UNL     1     -34.957  29.732   3.375  0.00  0.00    -0.469 OA
ATOM     30  C   UNL     1     -33.634  30.067   3.006  0.00  0.00    +0.253 C 
ENDBRANCH  21  29
TORSDOF 3
ENDMDL
MODEL 9
REMARK VINA RESULT:      -5.9      2.637      5.220
REMARK  Name = 53363123
REMARK  3 active torsions:
REMARK  status: ('A' for Active; 'I' for Inactive)
REMARK    1  A    between atoms: C_15  and  O_25
REMARK    2  A    between atoms: C_18  and  O_27
REMARK    3  A    between atoms: C_21  and  O_29
REMARK                            x       y       z     vdW  Elec       q    Type
REMARK                         _______ _______ _______ _____ _____    ______ ____
ROOT
ATOM      1  O   UNL     1     -38.003  25.581   1.163  0.00  0.00    -0.452 OA
ATOM      2  O   UNL     1     -37.687  20.679   2.004  0.00  0.00    -0.293 OA
ATOM      3  O   UNL     1     -35.268  21.248   3.209  0.00  0.00    -0.288 OA
ATOM      4  O   UNL     1     -39.403  26.685   2.535  0.00  0.00    -0.250 OA
ATOM      5  C   UNL     1     -35.829  24.597   1.910  0.00  0.00    +0.048 C 
ATOM      6  C   UNL     1     -36.391  22.303   0.709  0.00  0.00    +0.061 C 
ATOM      7  C   UNL     1     -36.316  23.122   2.050  0.00  0.00    +0.075 C 
ATOM      8  C   UNL     1     -37.206  23.135  -0.348  0.00  0.00    +0.013 C 
ATOM      9  C   UNL     1     -36.620  25.333   0.817  0.00  0.00    +0.169 C 
ATOM     10  C   UNL     1     -36.652  24.565  -0.514  0.00  0.00    +0.044 C 
ATOM     11  C   UNL     1     -36.072  25.331   3.260  0.00  0.00    +0.036 C 
ATOM     12  C   UNL     1     -37.359  22.367  -1.694  0.00  0.00    +0.030 C 
ATOM     13  C   UNL     1     -37.251  21.025   0.905  0.00  0.00    +0.179 C 
ATOM     14  C   UNL     1     -34.313  24.714   1.575  0.00  0.00    +0.004 C 
ATOM     15  C   UNL     1     -38.127  21.048  -1.458  0.00  0.00    +0.144 C 
ATOM     16  C   UNL     1     -34.997  21.895   0.180  0.00  0.00    +0.008 C 
ATOM     17  C   UNL     1     -35.554  22.444   3.205  0.00  0.00    +0.206 C 
ATOM     18  C   UNL     1     -37.543  20.193  -0.338  0.00  0.00    +0.195 C 
ATOM     19  C   UNL     1     -37.555  25.570   3.546  0.00  0.00    +0.114 C 
ATOM     20  C   UNL     1     -35.451  24.588   4.436  0.00  0.00    -0.007 C 
ATOM     21  C   UNL     1     -35.204  23.265   4.407  0.00  0.00    +0.165 C 
ATOM     22  C   UNL     1     -38.080  23.190  -2.775  0.00  0.00    +0.003 C 
ATOM     23  C   UNL     1     -38.371  26.038   2.376  0.00  0.00    +0.317 C 
ATOM     24  C   UNL     1     -35.108  25.444   5.627  0.00  0.00    +0.030 C 
ENDROOT
BRANCH  15  25
ATOM     25  O   UNL     1     -38.098  20.278  -2.663  0.00  0.00    -0.382 OA
ATOM     26  H   UNL     1     -37.257  19.797  -2.719  0.00  0.00    +0.210 HD
ENDBRANCH  15  25
BRANCH  18  27
ATOM     27  O   UNL     1     -38.494  19.187  -0.008  0.00  0.00    -0.375 OA
ATOM     28  H   UNL     1     -39.233  19.587   0.475  0.00  0.00    +0.211 HD
ENDBRANCH  18  27
BRANCH  21  29
ATOM     29  O   UNL     1     -34.620  22.609   5.472  0.00  0.00    -0.469 OA
ATOM     30  C   UNL     1     -35.605  22.113   6.356  0.00  0.00    +0.253 C 
ENDBRANCH  21  29
TORSDOF 3
ENDMDL
