MODEL 1
REMARK VINA RESULT:      -5.3      0.000      0.000
REMARK  Name = 5748347
REMARK  9 active torsions:
REMARK  status: ('A' for Active; 'I' for Inactive)
REMARK    1  A    between atoms: C_2  and  O_16
REMARK    2  A    between atoms: C_3  and  N_8
REMARK    3  A    between atoms: C_4  and  O_12
REMARK    4  A    between atoms: C_5  and  C_23
REMARK    5  A    between atoms: C_6  and  O_14
REMARK    6  A    between atoms: O_16  and  C_17
REMARK    7  A    between atoms: C_17  and  C_20
REMARK    8  A    between atoms: C_20  and  O_21
REMARK    9  A    between atoms: C_23  and  O_24
REMARK                            x       y       z     vdW  Elec       q    Type
REMARK                         _______ _______ _______ _____ _____    ______ ____
ROOT
ATOM      1  O   UNL     1     -35.271  26.136   5.755  0.00  0.00    -0.327 OA
ATOM      2  C   UNL     1     -35.522  25.630   2.920  0.00  0.00    +0.168 C 
ATOM      3  C   UNL     1     -34.547  26.670   3.489  0.00  0.00    +0.158 C 
ATOM      4  C   UNL     1     -36.652  25.298   3.901  0.00  0.00    +0.169 C 
ATOM      5  C   UNL     1     -36.177  25.102   5.350  0.00  0.00    +0.176 C 
ATOM      6  C   UNL     1     -34.128  26.294   4.916  0.00  0.00    +0.256 C 
ENDROOT
BRANCH   3   8
ATOM      7  O   UNL     1     -33.596  28.960   1.975  0.00  0.00    -0.275 OA
ATOM      8  N   UNL     1     -35.124  27.998   3.445  0.00  0.00    -0.299 N 
ATOM      9  C   UNL     1     -34.595  29.029   2.688  0.00  0.00    +0.223 C 
ATOM     10  C   UNL     1     -35.402  30.294   2.802  0.00  0.00    +0.095 C 
ATOM     11  H   UNL     1     -35.932  28.176   3.979  0.00  0.00    +0.150 HD
ENDBRANCH   3   8
BRANCH   4  12
ATOM     12  O   UNL     1     -37.581  26.387   3.876  0.00  0.00    -0.379 OA
ATOM     13  H   UNL     1     -37.098  27.225   3.948  0.00  0.00    +0.211 HD
ENDBRANCH   4  12
BRANCH   6  14
ATOM     14  O   UNL     1     -33.264  27.307   5.428  0.00  0.00    -0.327 OA
ATOM     15  C   UNL     1     -32.863  27.021   6.759  0.00  0.00    +0.177 C 
ENDBRANCH   6  14
BRANCH   2  16
ATOM     16  O   UNL     1     -34.811  24.433   2.615  0.00  0.00    -0.343 OA
BRANCH  16  17
ATOM     17  C   UNL     1     -35.497  23.660   1.643  0.00  0.00    +0.213 C 
ATOM     18  C   UNL     1     -35.432  24.402   0.319  0.00  0.00    +0.044 C 
BRANCH  17  20
ATOM     19  O   UNL     1     -34.012  21.987   0.701  0.00  0.00    -0.247 OA
ATOM     20  C   UNL     1     -34.836  22.301   1.549  0.00  0.00    +0.344 C 
BRANCH  20  21
ATOM     21  O   UNL     1     -35.281  21.502   2.564  0.00  0.00    -0.443 OA
ATOM     22  C   UNL     1     -36.191  20.465   2.181  0.00  0.00    +0.256 C 
ENDBRANCH  20  21
ENDBRANCH  17  20
ENDBRANCH  16  17
ENDBRANCH   2  16
BRANCH   5  23
ATOM     23  C   UNL     1     -35.591  23.718   5.623  0.00  0.00    +0.169 C 
BRANCH  23  24
ATOM     24  O   UNL     1     -36.361  22.758   4.924  0.00  0.00    -0.379 OA
ATOM     25  H   UNL     1     -36.398  21.936   5.438  0.00  0.00    +0.211 HD
ENDBRANCH  23  24
ENDBRANCH   5  23
TORSDOF 9
ENDMDL
MODEL 2
REMARK VINA RESULT:      -5.2      1.738      2.170
REMARK  Name = 5748347
REMARK  9 active torsions:
REMARK  status: ('A' for Active; 'I' for Inactive)
REMARK    1  A    between atoms: C_2  and  O_16
REMARK    2  A    between atoms: C_3  and  N_8
REMARK    3  A    between atoms: C_4  and  O_12
REMARK    4  A    between atoms: C_5  and  C_23
REMARK    5  A    between atoms: C_6  and  O_14
REMARK    6  A    between atoms: O_16  and  C_17
REMARK    7  A    between atoms: C_17  and  C_20
REMARK    8  A    between atoms: C_20  and  O_21
REMARK    9  A    between atoms: C_23  and  O_24
REMARK                            x       y       z     vdW  Elec       q    Type
REMARK                         _______ _______ _______ _____ _____    ______ ____
ROOT
ATOM      1  O   UNL     1     -33.896  25.524   5.116  0.00  0.00    -0.327 OA
ATOM      2  C   UNL     1     -36.282  25.606   3.488  0.00  0.00    +0.168 C 
ATOM      3  C   UNL     1     -34.973  26.285   3.066  0.00  0.00    +0.158 C 
ATOM      4  C   UNL     1     -36.347  25.360   5.000  0.00  0.00    +0.169 C 
ATOM      5  C   UNL     1     -35.040  24.805   5.593  0.00  0.00    +0.176 C 
ATOM      6  C   UNL     1     -33.768  25.575   3.696  0.00  0.00    +0.256 C 
ENDROOT
BRANCH   3   8
ATOM      7  O   UNL     1     -34.804  28.544   1.247  0.00  0.00    -0.275 OA
ATOM      8  N   UNL     1     -34.988  27.693   3.406  0.00  0.00    -0.299 N 
ATOM      9  C   UNL     1     -34.902  28.701   2.461  0.00  0.00    +0.223 C 
ATOM     10  C   UNL     1     -34.967  30.072   3.081  0.00  0.00    +0.095 C 
ATOM     11  H   UNL     1     -35.063  27.945   4.355  0.00  0.00    +0.150 HD
ENDBRANCH   3   8
BRANCH   4  12
ATOM     12  O   UNL     1     -36.631  26.613   5.632  0.00  0.00    -0.379 OA
ATOM     13  H   UNL     1     -37.584  26.682   5.794  0.00  0.00    +0.211 HD
ENDBRANCH   4  12
BRANCH   6  14
ATOM     14  O   UNL     1     -32.576  26.264   3.323  0.00  0.00    -0.327 OA
ATOM     15  C   UNL     1     -32.197  25.956   1.990  0.00  0.00    +0.177 C 
ENDBRANCH   6  14
BRANCH   2  16
ATOM     16  O   UNL     1     -36.406  24.356   2.812  0.00  0.00    -0.343 OA
BRANCH  16  17
ATOM     17  C   UNL     1     -37.762  23.950   2.726  0.00  0.00    +0.213 C 
ATOM     18  C   UNL     1     -38.411  24.712   1.583  0.00  0.00    +0.044 C 
BRANCH  17  20
ATOM     19  O   UNL     1     -38.804  21.838   2.138  0.00  0.00    -0.247 OA
ATOM     20  C   UNL     1     -37.807  22.455   2.490  0.00  0.00    +0.344 C 
BRANCH  20  21
ATOM     21  O   UNL     1     -36.569  21.918   2.702  0.00  0.00    -0.443 OA
ATOM     22  C   UNL     1     -36.365  20.606   2.168  0.00  0.00    +0.256 C 
ENDBRANCH  20  21
ENDBRANCH  17  20
ENDBRANCH  16  17
ENDBRANCH   2  16
BRANCH   5  23
ATOM     23  C   UNL     1     -34.867  23.301   5.398  0.00  0.00    +0.169 C 
BRANCH  23  24
ATOM     24  O   UNL     1     -36.134  22.682   5.519  0.00  0.00    -0.379 OA
ATOM     25  H   UNL     1     -36.777  23.323   5.857  0.00  0.00    +0.211 HD
ENDBRANCH  23  24
ENDBRANCH   5  23
TORSDOF 9
ENDMDL
MODEL 3
REMARK VINA RESULT:      -4.9      3.439      6.806
REMARK  Name = 5748347
REMARK  9 active torsions:
REMARK  status: ('A' for Active; 'I' for Inactive)
REMARK    1  A    between atoms: C_2  and  O_16
REMARK    2  A    between atoms: C_3  and  N_8
REMARK    3  A    between atoms: C_4  and  O_12
REMARK    4  A    between atoms: C_5  and  C_23
REMARK    5  A    between atoms: C_6  and  O_14
REMARK    6  A    between atoms: O_16  and  C_17
REMARK    7  A    between atoms: C_17  and  C_20
REMARK    8  A    between atoms: C_20  and  O_21
REMARK    9  A    between atoms: C_23  and  O_24
REMARK                            x       y       z     vdW  Elec       q    Type
REMARK                         _______ _______ _______ _____ _____    ______ ____
ROOT
ATOM      1  O   UNL     1     -36.672  20.749  -0.218  0.00  0.00    -0.327 OA
ATOM      2  C   UNL     1     -35.480  21.616   2.268  0.00  0.00    +0.168 C 
ATOM      3  C   UNL     1     -34.642  21.203   1.051  0.00  0.00    +0.158 C 
ATOM      4  C   UNL     1     -36.901  21.046   2.212  0.00  0.00    +0.169 C 
ATOM      5  C   UNL     1     -37.562  21.161   0.828  0.00  0.00    +0.176 C 
ATOM      6  C   UNL     1     -35.423  21.436  -0.248  0.00  0.00    +0.256 C 
ENDROOT
BRANCH   3   8
ATOM      7  O   UNL     1     -31.985  20.136   0.558  0.00  0.00    -0.275 OA
ATOM      8  N   UNL     1     -34.211  19.825   1.164  0.00  0.00    -0.299 N 
ATOM      9  C   UNL     1     -32.915  19.412   0.907  0.00  0.00    +0.223 C 
ATOM     10  C   UNL     1     -32.732  17.934   1.125  0.00  0.00    +0.095 C 
ATOM     11  H   UNL     1     -34.872  19.149   1.437  0.00  0.00    +0.150 HD
ENDBRANCH   3   8
BRANCH   4  12
ATOM     12  O   UNL     1     -36.827  19.660   2.561  0.00  0.00    -0.379 OA
ATOM     13  H   UNL     1     -37.673  19.376   2.938  0.00  0.00    +0.211 HD
ENDBRANCH   4  12
BRANCH   6  14
ATOM     14  O   UNL     1     -34.632  20.994  -1.350  0.00  0.00    -0.327 OA
ATOM     15  C   UNL     1     -33.802  22.036  -1.843  0.00  0.00    +0.177 C 
ENDBRANCH   6  14
BRANCH   2  16
ATOM     16  O   UNL     1     -35.557  23.039   2.328  0.00  0.00    -0.343 OA
BRANCH  16  17
ATOM     17  C   UNL     1     -35.067  23.529   3.566  0.00  0.00    +0.213 C 
ATOM     18  C   UNL     1     -34.313  24.820   3.297  0.00  0.00    +0.044 C 
BRANCH  17  20
ATOM     19  O   UNL     1     -37.343  24.147   4.139  0.00  0.00    -0.247 OA
ATOM     20  C   UNL     1     -36.240  23.756   4.496  0.00  0.00    +0.344 C 
BRANCH  20  21
ATOM     21  O   UNL     1     -35.883  23.434   5.774  0.00  0.00    -0.443 OA
ATOM     22  C   UNL     1     -35.367  22.111   5.957  0.00  0.00    +0.256 C 
ENDBRANCH  20  21
ENDBRANCH  17  20
ENDBRANCH  16  17
ENDBRANCH   2  16
BRANCH   5  23
ATOM     23  C   UNL     1     -38.149  22.541   0.540  0.00  0.00    +0.169 C 
BRANCH  23  24
ATOM     24  O   UNL     1     -38.556  23.122   1.765  0.00  0.00    -0.379 OA
ATOM     25  H   UNL     1     -39.420  22.766   2.022  0.00  0.00    +0.211 HD
ENDBRANCH  23  24
ENDBRANCH   5  23
TORSDOF 9
ENDMDL
MODEL 4
REMARK VINA RESULT:      -4.9      2.523      5.522
REMARK  Name = 5748347
REMARK  9 active torsions:
REMARK  status: ('A' for Active; 'I' for Inactive)
REMARK    1  A    between atoms: C_2  and  O_16
REMARK    2  A    between atoms: C_3  and  N_8
REMARK    3  A    between atoms: C_4  and  O_12
REMARK    4  A    between atoms: C_5  and  C_23
REMARK    5  A    between atoms: C_6  and  O_14
REMARK    6  A    between atoms: O_16  and  C_17
REMARK    7  A    between atoms: C_17  and  C_20
REMARK    8  A    between atoms: C_20  and  O_21
REMARK    9  A    between atoms: C_23  and  O_24
REMARK                            x       y       z     vdW  Elec       q    Type
REMARK                         _______ _______ _______ _____ _____    ______ ____
ROOT
ATOM      1  O   UNL     1     -34.567  23.930   4.845  0.00  0.00    -0.327 OA
ATOM      2  C   UNL     1     -36.440  24.699   2.782  0.00  0.00    +0.168 C 
ATOM      3  C   UNL     1     -36.636  23.449   3.650  0.00  0.00    +0.158 C 
ATOM      4  C   UNL     1     -34.979  25.164   2.758  0.00  0.00    +0.169 C 
ATOM      5  C   UNL     1     -34.302  25.149   4.139  0.00  0.00    +0.176 C 
ATOM      6  C   UNL     1     -35.949  23.622   5.011  0.00  0.00    +0.256 C 
ENDROOT
BRANCH   3   8
ATOM      7  O   UNL     1     -38.184  21.577   2.056  0.00  0.00    -0.275 OA
ATOM      8  N   UNL     1     -36.155  22.265   2.967  0.00  0.00    -0.299 N 
ATOM      9  C   UNL     1     -36.976  21.431   2.227  0.00  0.00    +0.223 C 
ATOM     10  C   UNL     1     -36.218  20.291   1.603  0.00  0.00    +0.095 C 
ATOM     11  H   UNL     1     -35.198  22.043   3.032  0.00  0.00    +0.150 HD
ENDBRANCH   3   8
BRANCH   4  12
ATOM     12  O   UNL     1     -34.257  24.281   1.893  0.00  0.00    -0.379 OA
ATOM     13  H   UNL     1     -34.855  23.935   1.213  0.00  0.00    +0.211 HD
ENDBRANCH   4  12
BRANCH   6  14
ATOM     14  O   UNL     1     -36.110  22.423   5.767  0.00  0.00    -0.327 OA
ATOM     15  C   UNL     1     -34.856  21.892   6.168  0.00  0.00    +0.177 C 
ENDBRANCH   6  14
BRANCH   2  16
ATOM     16  O   UNL     1     -37.252  25.757   3.287  0.00  0.00    -0.343 OA
BRANCH  16  17
ATOM     17  C   UNL     1     -38.314  26.060   2.398  0.00  0.00    +0.213 C 
ATOM     18  C   UNL     1     -38.107  25.256   1.125  0.00  0.00    +0.044 C 
BRANCH  17  20
ATOM     19  O   UNL     1     -39.838  24.657   3.664  0.00  0.00    -0.247 OA
ATOM     20  C   UNL     1     -39.624  25.705   3.069  0.00  0.00    +0.344 C 
BRANCH  20  21
ATOM     21  O   UNL     1     -40.507  26.738   2.929  0.00  0.00    -0.443 OA
ATOM     22  C   UNL     1     -41.757  26.404   2.316  0.00  0.00    +0.256 C 
ENDBRANCH  20  21
ENDBRANCH  17  20
ENDBRANCH  16  17
ENDBRANCH   2  16
BRANCH   5  23
ATOM     23  C   UNL     1     -34.631  26.367   4.999  0.00  0.00    +0.169 C 
BRANCH  23  24
ATOM     24  O   UNL     1     -35.095  27.403   4.153  0.00  0.00    -0.379 OA
ATOM     25  H   UNL     1     -34.970  28.259   4.591  0.00  0.00    +0.211 HD
ENDBRANCH  23  24
ENDBRANCH   5  23
TORSDOF 9
ENDMDL
MODEL 5
REMARK VINA RESULT:      -4.9      3.559      5.964
REMARK  Name = 5748347
REMARK  9 active torsions:
REMARK  status: ('A' for Active; 'I' for Inactive)
REMARK    1  A    between atoms: C_2  and  O_16
REMARK    2  A    between atoms: C_3  and  N_8
REMARK    3  A    between atoms: C_4  and  O_12
REMARK    4  A    between atoms: C_5  and  C_23
REMARK    5  A    between atoms: C_6  and  O_14
REMARK    6  A    between atoms: O_16  and  C_17
REMARK    7  A    between atoms: C_17  and  C_20
REMARK    8  A    between atoms: C_20  and  O_21
REMARK    9  A    between atoms: C_23  and  O_24
REMARK                            x       y       z     vdW  Elec       q    Type
REMARK                         _______ _______ _______ _____ _____    ______ ____
ROOT
ATOM      1  O   UNL     1     -34.843  21.764   1.354  0.00  0.00    -0.327 OA
ATOM      2  C   UNL     1     -37.594  21.801   2.237  0.00  0.00    +0.168 C 
ATOM      3  C   UNL     1     -36.526  22.731   2.827  0.00  0.00    +0.158 C 
ATOM      4  C   UNL     1     -36.981  20.568   1.564  0.00  0.00    +0.169 C 
ATOM      5  C   UNL     1     -35.758  20.885   0.687  0.00  0.00    +0.176 C 
ATOM      6  C   UNL     1     -35.411  22.991   1.806  0.00  0.00    +0.256 C 
ENDROOT
BRANCH   3   8
ATOM      7  O   UNL     1     -36.229  24.093   5.376  0.00  0.00    -0.275 OA
ATOM      8  N   UNL     1     -35.992  22.189   4.059  0.00  0.00    -0.299 N 
ATOM      9  C   UNL     1     -35.891  22.921   5.229  0.00  0.00    +0.223 C 
ATOM     10  C   UNL     1     -35.327  22.110   6.365  0.00  0.00    +0.095 C 
ATOM     11  H   UNL     1     -35.686  21.253   4.065  0.00  0.00    +0.150 HD
ENDBRANCH   3   8
BRANCH   4  12
ATOM     12  O   UNL     1     -36.571  19.668   2.599  0.00  0.00    -0.379 OA
ATOM     13  H   UNL     1     -35.673  19.894   2.886  0.00  0.00    +0.211 HD
ENDBRANCH   4  12
BRANCH   6  14
ATOM     14  O   UNL     1     -34.415  23.816   2.407  0.00  0.00    -0.327 OA
ATOM     15  C   UNL     1     -34.760  25.191   2.321  0.00  0.00    +0.177 C 
ENDBRANCH   6  14
BRANCH   2  16
ATOM     16  O   UNL     1     -38.364  22.517   1.273  0.00  0.00    -0.343 OA
BRANCH  16  17
ATOM     17  C   UNL     1     -39.750  22.442   1.563  0.00  0.00    +0.213 C 
ATOM     18  C   UNL     1     -40.283  23.859   1.688  0.00  0.00    +0.044 C 
BRANCH  17  20
ATOM     19  O   UNL     1     -40.107  20.579   0.049  0.00  0.00    -0.247 OA
ATOM     20  C   UNL     1     -40.439  21.688   0.445  0.00  0.00    +0.344 C 
BRANCH  20  21
ATOM     21  O   UNL     1     -41.492  22.421  -0.024  0.00  0.00    -0.443 OA
ATOM     22  C   UNL     1     -41.726  22.335  -1.433  0.00  0.00    +0.256 C 
ENDBRANCH  20  21
ENDBRANCH  17  20
ENDBRANCH  16  17
ENDBRANCH   2  16
BRANCH   5  23
ATOM     23  C   UNL     1     -36.116  21.412  -0.701  0.00  0.00    +0.169 C 
BRANCH  23  24
ATOM     24  O   UNL     1     -37.373  20.878  -1.074  0.00  0.00    -0.379 OA
ATOM     25  H   UNL     1     -37.325  20.544  -1.984  0.00  0.00    +0.211 HD
ENDBRANCH  23  24
ENDBRANCH   5  23
TORSDOF 9
ENDMDL
MODEL 6
REMARK VINA RESULT:      -4.8      2.369      3.846
REMARK  Name = 5748347
REMARK  9 active torsions:
REMARK  status: ('A' for Active; 'I' for Inactive)
REMARK    1  A    between atoms: C_2  and  O_16
REMARK    2  A    between atoms: C_3  and  N_8
REMARK    3  A    between atoms: C_4  and  O_12
REMARK    4  A    between atoms: C_5  and  C_23
REMARK    5  A    between atoms: C_6  and  O_14
REMARK    6  A    between atoms: O_16  and  C_17
REMARK    7  A    between atoms: C_17  and  C_20
REMARK    8  A    between atoms: C_20  and  O_21
REMARK    9  A    between atoms: C_23  and  O_24
REMARK                            x       y       z     vdW  Elec       q    Type
REMARK                         _______ _______ _______ _____ _____    ______ ____
ROOT
ATOM      1  O   UNL     1     -34.049  24.673   3.878  0.00  0.00    -0.327 OA
ATOM      2  C   UNL     1     -36.909  25.084   3.821  0.00  0.00    +0.168 C 
ATOM      3  C   UNL     1     -36.028  25.242   2.575  0.00  0.00    +0.158 C 
ATOM      4  C   UNL     1     -36.103  25.207   5.120  0.00  0.00    +0.169 C 
ATOM      5  C   UNL     1     -34.769  24.441   5.095  0.00  0.00    +0.176 C 
ATOM      6  C   UNL     1     -34.772  24.370   2.686  0.00  0.00    +0.256 C 
ENDROOT
BRANCH   3   8
ATOM      7  O   UNL     1     -37.695  27.315   1.406  0.00  0.00    -0.275 OA
ATOM      8  N   UNL     1     -35.684  26.633   2.359  0.00  0.00    -0.299 N 
ATOM      9  C   UNL     1     -36.552  27.549   1.791  0.00  0.00    +0.223 C 
ATOM     10  C   UNL     1     -35.953  28.928   1.706  0.00  0.00    +0.095 C 
ATOM     11  H   UNL     1     -34.788  26.941   2.629  0.00  0.00    +0.150 HD
ENDBRANCH   3   8
BRANCH   4  12
ATOM     12  O   UNL     1     -35.821  26.595   5.325  0.00  0.00    -0.379 OA
ATOM     13  H   UNL     1     -35.952  27.078   4.494  0.00  0.00    +0.211 HD
ENDBRANCH   4  12
BRANCH   6  14
ATOM     14  O   UNL     1     -33.956  24.582   1.536  0.00  0.00    -0.327 OA
ATOM     15  C   UNL     1     -34.203  23.601   0.539  0.00  0.00    +0.177 C 
ENDBRANCH   6  14
BRANCH   2  16
ATOM     16  O   UNL     1     -37.544  23.808   3.793  0.00  0.00    -0.343 OA
BRANCH  16  17
ATOM     17  C   UNL     1     -38.208  23.591   2.558  0.00  0.00    +0.213 C 
ATOM     18  C   UNL     1     -38.051  22.125   2.190  0.00  0.00    +0.044 C 
BRANCH  17  20
ATOM     19  O   UNL     1     -40.083  24.801   3.513  0.00  0.00    -0.247 OA
ATOM     20  C   UNL     1     -39.665  23.969   2.718  0.00  0.00    +0.344 C 
BRANCH  20  21
ATOM     21  O   UNL     1     -40.424  23.264   1.827  0.00  0.00    -0.443 OA
ATOM     22  C   UNL     1     -40.925  24.012   0.715  0.00  0.00    +0.256 C 
ENDBRANCH  20  21
ENDBRANCH  17  20
ENDBRANCH  16  17
ENDBRANCH   2  16
BRANCH   5  23
ATOM     23  C   UNL     1     -34.913  22.947   5.376  0.00  0.00    +0.169 C 
BRANCH  23  24
ATOM     24  O   UNL     1     -36.100  22.741   6.119  0.00  0.00    -0.379 OA
ATOM     25  H   UNL     1     -36.000  23.128   7.002  0.00  0.00    +0.211 HD
ENDBRANCH  23  24
ENDBRANCH   5  23
TORSDOF 9
ENDMDL
MODEL 7
REMARK VINA RESULT:      -4.7      3.034      5.855
REMARK  Name = 5748347
REMARK  9 active torsions:
REMARK  status: ('A' for Active; 'I' for Inactive)
REMARK    1  A    between atoms: C_2  and  O_16
REMARK    2  A    between atoms: C_3  and  N_8
REMARK    3  A    between atoms: C_4  and  O_12
REMARK    4  A    between atoms: C_5  and  C_23
REMARK    5  A    between atoms: C_6  and  O_14
REMARK    6  A    between atoms: O_16  and  C_17
REMARK    7  A    between atoms: C_17  and  C_20
REMARK    8  A    between atoms: C_20  and  O_21
REMARK    9  A    between atoms: C_23  and  O_24
REMARK                            x       y       z     vdW  Elec       q    Type
REMARK                         _______ _______ _______ _____ _____    ______ ____
ROOT
ATOM      1  O   UNL     1     -34.850  21.729   1.340  0.00  0.00    -0.327 OA
ATOM      2  C   UNL     1     -37.613  21.924   2.167  0.00  0.00    +0.168 C 
ATOM      3  C   UNL     1     -36.507  22.797   2.773  0.00  0.00    +0.158 C 
ATOM      4  C   UNL     1     -37.056  20.654   1.514  0.00  0.00    +0.169 C 
ATOM      5  C   UNL     1     -35.799  20.897   0.660  0.00  0.00    +0.176 C 
ATOM      6  C   UNL     1     -35.359  22.989   1.774  0.00  0.00    +0.256 C 
ENDROOT
BRANCH   3   8
ATOM      7  O   UNL     1     -36.242  24.143   5.335  0.00  0.00    -0.275 OA
ATOM      8  N   UNL     1     -36.028  22.234   4.019  0.00  0.00    -0.299 N 
ATOM      9  C   UNL     1     -35.939  22.960   5.194  0.00  0.00    +0.223 C 
ATOM     10  C   UNL     1     -35.436  22.128   6.344  0.00  0.00    +0.095 C 
ATOM     11  H   UNL     1     -35.753  21.289   4.031  0.00  0.00    +0.150 HD
ENDBRANCH   3   8
BRANCH   4  12
ATOM     12  O   UNL     1     -36.717  19.740   2.562  0.00  0.00    -0.379 OA
ATOM     13  H   UNL     1     -36.478  18.883   2.177  0.00  0.00    +0.211 HD
ENDBRANCH   4  12
BRANCH   6  14
ATOM     14  O   UNL     1     -34.331  23.762   2.390  0.00  0.00    -0.327 OA
ATOM     15  C   UNL     1     -34.598  25.152   2.289  0.00  0.00    +0.177 C 
ENDBRANCH   6  14
BRANCH   2  16
ATOM     16  O   UNL     1     -38.322  22.674   1.184  0.00  0.00    -0.343 OA
BRANCH  16  17
ATOM     17  C   UNL     1     -38.573  23.997   1.628  0.00  0.00    +0.213 C 
ATOM     18  C   UNL     1     -38.308  24.943   0.470  0.00  0.00    +0.044 C 
BRANCH  17  20
ATOM     19  O   UNL     1     -40.959  23.559   1.532  0.00  0.00    -0.247 OA
ATOM     20  C   UNL     1     -40.010  24.087   2.098  0.00  0.00    +0.344 C 
BRANCH  20  21
ATOM     21  O   UNL     1     -40.074  24.816   3.251  0.00  0.00    -0.443 OA
ATOM     22  C   UNL     1     -40.774  26.061   3.157  0.00  0.00    +0.256 C 
ENDBRANCH  20  21
ENDBRANCH  17  20
ENDBRANCH  16  17
ENDBRANCH   2  16
BRANCH   5  23
ATOM     23  C   UNL     1     -36.101  21.434  -0.738  0.00  0.00    +0.169 C 
BRANCH  23  24
ATOM     24  O   UNL     1     -37.404  21.022  -1.107  0.00  0.00    -0.379 OA
ATOM     25  H   UNL     1     -37.961  21.803  -1.251  0.00  0.00    +0.211 HD
ENDBRANCH  23  24
ENDBRANCH   5  23
TORSDOF 9
ENDMDL
MODEL 8
REMARK VINA RESULT:      -4.7      3.569      5.987
REMARK  Name = 5748347
REMARK  9 active torsions:
REMARK  status: ('A' for Active; 'I' for Inactive)
REMARK    1  A    between atoms: C_2  and  O_16
REMARK    2  A    between atoms: C_3  and  N_8
REMARK    3  A    between atoms: C_4  and  O_12
REMARK    4  A    between atoms: C_5  and  C_23
REMARK    5  A    between atoms: C_6  and  O_14
REMARK    6  A    between atoms: O_16  and  C_17
REMARK    7  A    between atoms: C_17  and  C_20
REMARK    8  A    between atoms: C_20  and  O_21
REMARK    9  A    between atoms: C_23  and  O_24
REMARK                            x       y       z     vdW  Elec       q    Type
REMARK                         _______ _______ _______ _____ _____    ______ ____
ROOT
ATOM      1  O   UNL     1     -35.702  22.360   1.282  0.00  0.00    -0.327 OA
ATOM      2  C   UNL     1     -38.175  23.068   2.600  0.00  0.00    +0.168 C 
ATOM      3  C   UNL     1     -36.802  23.497   3.136  0.00  0.00    +0.158 C 
ATOM      4  C   UNL     1     -38.079  21.858   1.664  0.00  0.00    +0.169 C 
ATOM      5  C   UNL     1     -36.922  21.946   0.654  0.00  0.00    +0.176 C 
ATOM      6  C   UNL     1     -35.782  23.593   1.995  0.00  0.00    +0.256 C 
ENDROOT
BRANCH   3   8
ATOM      7  O   UNL     1     -35.639  24.195   5.705  0.00  0.00    -0.275 OA
ATOM      8  N   UNL     1     -36.347  22.593   4.172  0.00  0.00    -0.299 N 
ATOM      9  C   UNL     1     -35.804  23.025   5.370  0.00  0.00    +0.223 C 
ATOM     10  C   UNL     1     -35.437  21.880   6.277  0.00  0.00    +0.095 C 
ATOM     11  H   UNL     1     -36.427  21.624   4.017  0.00  0.00    +0.150 HD
ENDBRANCH   3   8
BRANCH   4  12
ATOM     12  O   UNL     1     -37.878  20.696   2.476  0.00  0.00    -0.379 OA
ATOM     13  H   UNL     1     -38.013  19.900   1.939  0.00  0.00    +0.211 HD
ENDBRANCH   4  12
BRANCH   6  14
ATOM     14  O   UNL     1     -34.510  23.943   2.538  0.00  0.00    -0.327 OA
ATOM     15  C   UNL     1     -34.345  25.352   2.601  0.00  0.00    +0.177 C 
ENDBRANCH   6  14
BRANCH   2  16
ATOM     16  O   UNL     1     -38.765  24.154   1.890  0.00  0.00    -0.343 OA
BRANCH  16  17
ATOM     17  C   UNL     1     -40.051  24.465   2.402  0.00  0.00    +0.213 C 
ATOM     18  C   UNL     1     -40.021  25.894   2.917  0.00  0.00    +0.044 C 
BRANCH  17  20
ATOM     19  O   UNL     1     -41.191  23.289   0.610  0.00  0.00    -0.247 OA
ATOM     20  C   UNL     1     -41.068  24.298   1.292  0.00  0.00    +0.344 C 
BRANCH  20  21
ATOM     21  O   UNL     1     -41.832  25.426   1.195  0.00  0.00    -0.443 OA
ATOM     22  C   UNL     1     -43.246  25.211   1.137  0.00  0.00    +0.256 C 
ENDBRANCH  20  21
ENDBRANCH  17  20
ENDBRANCH  16  17
ENDBRANCH   2  16
BRANCH   5  23
ATOM     23  C   UNL     1     -37.236  22.811  -0.565  0.00  0.00    +0.169 C 
BRANCH  23  24
ATOM     24  O   UNL     1     -38.631  22.772  -0.799  0.00  0.00    -0.379 OA
ATOM     25  H   UNL     1     -39.078  22.389  -0.028  0.00  0.00    +0.211 HD
ENDBRANCH  23  24
ENDBRANCH   5  23
TORSDOF 9
ENDMDL
MODEL 9
REMARK VINA RESULT:      -4.7      2.537      5.706
REMARK  Name = 5748347
REMARK  9 active torsions:
REMARK  status: ('A' for Active; 'I' for Inactive)
REMARK    1  A    between atoms: C_2  and  O_16
REMARK    2  A    between atoms: C_3  and  N_8
REMARK    3  A    between atoms: C_4  and  O_12
REMARK    4  A    between atoms: C_5  and  C_23
REMARK    5  A    between atoms: C_6  and  O_14
REMARK    6  A    between atoms: O_16  and  C_17
REMARK    7  A    between atoms: C_17  and  C_20
REMARK    8  A    between atoms: C_20  and  O_21
REMARK    9  A    between atoms: C_23  and  O_24
REMARK                            x       y       z     vdW  Elec       q    Type
REMARK                         _______ _______ _______ _____ _____    ______ ____
ROOT
ATOM      1  O   UNL     1     -38.780  23.842   3.052  0.00  0.00    -0.327 OA
ATOM      2  C   UNL     1     -36.053  24.791   3.175  0.00  0.00    +0.168 C 
ATOM      3  C   UNL     1     -36.402  23.308   3.002  0.00  0.00    +0.158 C 
ATOM      4  C   UNL     1     -37.213  25.593   3.776  0.00  0.00    +0.169 C 
ATOM      5  C   UNL     1     -38.582  25.257   3.161  0.00  0.00    +0.176 C 
ATOM      6  C   UNL     1     -37.768  23.149   2.322  0.00  0.00    +0.256 C 
ENDROOT
BRANCH   3   8
ATOM      7  O   UNL     1     -34.282  23.368   4.987  0.00  0.00    -0.275 OA
ATOM      8  N   UNL     1     -36.366  22.616   4.274  0.00  0.00    -0.299 N 
ATOM      9  C   UNL     1     -35.305  22.709   5.158  0.00  0.00    +0.223 C 
ATOM     10  C   UNL     1     -35.535  21.912   6.414  0.00  0.00    +0.095 C 
ATOM     11  H   UNL     1     -37.134  22.052   4.523  0.00  0.00    +0.150 HD
ENDBRANCH   3   8
BRANCH   4  12
ATOM     12  O   UNL     1     -37.265  25.299   5.176  0.00  0.00    -0.379 OA
ATOM     13  H   UNL     1     -36.792  25.988   5.668  0.00  0.00    +0.211 HD
ENDBRANCH   4  12
BRANCH   6  14
ATOM     14  O   UNL     1     -38.080  21.761   2.225  0.00  0.00    -0.327 OA
ATOM     15  C   UNL     1     -39.442  21.559   1.881  0.00  0.00    +0.177 C 
ENDBRANCH   6  14
BRANCH   2  16
ATOM     16  O   UNL     1     -35.715  25.349   1.907  0.00  0.00    -0.343 OA
BRANCH  16  17
ATOM     17  C   UNL     1     -34.513  26.098   1.978  0.00  0.00    +0.213 C 
ATOM     18  C   UNL     1     -33.858  26.069   0.608  0.00  0.00    +0.044 C 
BRANCH  17  20
ATOM     19  O   UNL     1     -35.555  28.280   1.763  0.00  0.00    -0.247 OA
ATOM     20  C   UNL     1     -34.847  27.513   2.402  0.00  0.00    +0.344 C 
BRANCH  20  21
ATOM     21  O   UNL     1     -34.263  27.782   3.607  0.00  0.00    -0.443 OA
ATOM     22  C   UNL     1     -33.139  28.668   3.565  0.00  0.00    +0.256 C 
ENDBRANCH  20  21
ENDBRANCH  17  20
ENDBRANCH  16  17
ENDBRANCH   2  16
BRANCH   5  23
ATOM     23  C   UNL     1     -38.845  25.955   1.828  0.00  0.00    +0.169 C 
BRANCH  23  24
ATOM     24  O   UNL     1     -38.218  27.224   1.852  0.00  0.00    -0.379 OA
ATOM     25  H   UNL     1     -38.437  27.677   2.681  0.00  0.00    +0.211 HD
ENDBRANCH  23  24
ENDBRANCH   5  23
TORSDOF 9
ENDMDL
