MODEL 1
REMARK VINA RESULT:      -6.3      0.000      0.000
REMARK  Name = 54085949
REMARK  6 active torsions:
REMARK  status: ('A' for Active; 'I' for Inactive)
REMARK    1  A    between atoms: N_2  and  CA_9
REMARK    2  A    between atoms: C_3  and  C_20
REMARK    3  A    between atoms: CA_11  and  C_16
REMARK    4  A    between atoms: C_16  and  O_17
REMARK    5  A    between atoms: N_19  and  O_29
REMARK    6  A    between atoms: C_20  and  C_24
REMARK                            x       y       z     vdW  Elec       q    Type
REMARK                         _______ _______ _______ _____ _____    ______ ____
ROOT
ATOM      1  O   UNL     1     -35.818  26.324   5.751  0.00  0.00    -0.268 OA
ATOM      2  N   UNL     1     -34.959  24.799   4.186  0.00  0.00    -0.291 N 
ATOM      3  C   UNL     1     -34.937  25.909   5.015  0.00  0.00    +0.269 C 
ATOM      4  H   UNL     1     -34.160  24.596   3.648  0.00  0.00    +0.150 HD
ENDROOT
BRANCH   2   9
ATOM      5  S   UNL     1     -38.585  24.224   2.678  0.00  0.00    -0.114 S 
ATOM      6  O   UNL     1     -35.115  21.563   4.262  0.00  0.00    -0.273 OA
ATOM      7  N   UNL     1     -36.562  22.504   2.656  0.00  0.00    -0.242 N 
ATOM      8  C   UNL     1     -36.801  23.935   2.691  0.00  0.00    +0.155 C 
ATOM      9  CA  UNL     1     -36.119  23.918   4.076  0.00  0.00    +0.179 C 
ATOM     10  C   UNL     1     -35.764  22.441   3.744  0.00  0.00    +0.251 C 
ATOM     11  CA  UNL     1     -37.089  21.673   1.720  0.00  0.00    +0.124 C 
ATOM     12  C   UNL     1     -38.816  23.412   1.060  0.00  0.00    +0.083 C 
ATOM     13  C   UNL     1     -38.109  22.065   0.921  0.00  0.00    -0.013 C 
ATOM     14  C   UNL     1     -38.695  21.231  -0.195  0.00  0.00    +0.029 C 
BRANCH  11  16
ATOM     15  OXT UNL     1     -35.857  19.883   0.756  0.00  0.00    -0.244 OA
ATOM     16  C   UNL     1     -36.548  20.307   1.660  0.00  0.00    +0.351 C 
BRANCH  16  17
ATOM     17  O   UNL     1     -36.939  19.622   2.753  0.00  0.00    -0.476 OA
ATOM     18  H   UNL     1     -37.594  19.979   3.319  0.00  0.00    +0.295 HD
ENDBRANCH  16  17
ENDBRANCH  11  16
ENDBRANCH   2   9
BRANCH   3  20
ATOM     19  N   UNL     1     -33.054  27.045   6.059  0.00  0.00    -0.076 NA
ATOM     20  C   UNL     1     -33.633  26.659   4.962  0.00  0.00    +0.198 C 
BRANCH  20  24
ATOM     21  S   UNL     1     -32.378  28.078   1.458  0.00  0.00    -0.060 S 
ATOM     22  N   UNL     1     -32.192  26.035   3.030  0.00  0.00    -0.383 NA
ATOM     23  N   UNL     1     -30.958  25.871   1.021  0.00  0.00    -0.328 N 
ATOM     24  C   UNL     1     -33.026  26.954   3.635  0.00  0.00    +0.148 C 
ATOM     25  C   UNL     1     -33.246  28.122   2.936  0.00  0.00    +0.127 C 
ATOM     26  C   UNL     1     -31.791  26.521   1.876  0.00  0.00    +0.204 C 
ATOM     27  H   UNL     1     -30.696  26.296   0.171  0.00  0.00    +0.145 HD
ATOM     28  H   UNL     1     -30.615  24.978   1.250  0.00  0.00    +0.145 HD
ENDBRANCH  20  24
BRANCH  19  29
ATOM     29  O   UNL     1     -31.859  27.730   5.803  0.00  0.00    -0.373 OA
ATOM     30  C   UNL     1     -31.802  28.857   6.665  0.00  0.00    +0.288 C 
ENDBRANCH  19  29
ENDBRANCH   3  20
TORSDOF 6
ENDMDL
MODEL 2
REMARK VINA RESULT:      -6.0      1.531      1.776
REMARK  Name = 54085949
REMARK  6 active torsions:
REMARK  status: ('A' for Active; 'I' for Inactive)
REMARK    1  A    between atoms: N_2  and  CA_9
REMARK    2  A    between atoms: C_3  and  C_20
REMARK    3  A    between atoms: CA_11  and  C_16
REMARK    4  A    between atoms: C_16  and  O_17
REMARK    5  A    between atoms: N_19  and  O_29
REMARK    6  A    between atoms: C_20  and  C_24
REMARK                            x       y       z     vdW  Elec       q    Type
REMARK                         _______ _______ _______ _____ _____    ______ ____
ROOT
ATOM      1  O   UNL     1     -34.831  24.735   5.966  0.00  0.00    -0.268 OA
ATOM      2  N   UNL     1     -35.868  25.221   3.917  0.00  0.00    -0.291 N 
ATOM      3  C   UNL     1     -34.972  25.407   4.957  0.00  0.00    +0.269 C 
ATOM      4  H   UNL     1     -35.858  25.857   3.166  0.00  0.00    +0.150 HD
ENDROOT
BRANCH   2   9
ATOM      5  S   UNL     1     -39.356  23.865   2.592  0.00  0.00    -0.114 S 
ATOM      6  O   UNL     1     -35.361  22.026   4.108  0.00  0.00    -0.273 OA
ATOM      7  N   UNL     1     -37.027  22.589   2.537  0.00  0.00    -0.242 N 
ATOM      8  C   UNL     1     -37.551  23.942   2.535  0.00  0.00    +0.155 C 
ATOM      9  CA  UNL     1     -36.828  24.121   3.888  0.00  0.00    +0.179 C 
ATOM     10  C   UNL     1     -36.194  22.733   3.590  0.00  0.00    +0.251 C 
ATOM     11  CA  UNL     1     -37.409  21.630   1.654  0.00  0.00    +0.124 C 
ATOM     12  C   UNL     1     -39.476  22.956   1.014  0.00  0.00    +0.083 C 
ATOM     13  C   UNL     1     -38.516  21.775   0.888  0.00  0.00    -0.013 C 
ATOM     14  C   UNL     1     -38.961  20.794  -0.171  0.00  0.00    +0.029 C 
BRANCH  11  16
ATOM     15  OXT UNL     1     -35.780  20.148   0.760  0.00  0.00    -0.244 OA
ATOM     16  C   UNL     1     -36.604  20.400   1.615  0.00  0.00    +0.351 C 
BRANCH  16  17
ATOM     17  O   UNL     1     -36.929  19.620   2.665  0.00  0.00    -0.476 OA
ATOM     18  H   UNL     1     -36.323  19.508   3.370  0.00  0.00    +0.295 HD
ENDBRANCH  16  17
ENDBRANCH  11  16
ENDBRANCH   2   9
BRANCH   3  20
ATOM     19  N   UNL     1     -33.284  26.990   5.712  0.00  0.00    -0.076 NA
ATOM     20  C   UNL     1     -34.081  26.605   4.761  0.00  0.00    +0.198 C 
BRANCH  20  24
ATOM     21  S   UNL     1     -33.657  28.163   1.120  0.00  0.00    -0.060 S 
ATOM     22  N   UNL     1     -35.101  28.308   3.259  0.00  0.00    -0.383 NA
ATOM     23  N   UNL     1     -35.724  29.788   1.524  0.00  0.00    -0.328 N 
ATOM     24  C   UNL     1     -34.138  27.340   3.469  0.00  0.00    +0.148 C 
ATOM     25  C   UNL     1     -33.266  27.120   2.424  0.00  0.00    +0.127 C 
ATOM     26  C   UNL     1     -34.943  28.809   2.054  0.00  0.00    +0.204 C 
ATOM     27  H   UNL     1     -35.550  30.117   0.612  0.00  0.00    +0.145 HD
ATOM     28  H   UNL     1     -36.464  30.166   2.050  0.00  0.00    +0.145 HD
ENDBRANCH  20  24
BRANCH  19  29
ATOM     29  O   UNL     1     -32.544  28.122   5.342  0.00  0.00    -0.373 OA
ATOM     30  C   UNL     1     -31.819  28.566   6.479  0.00  0.00    +0.288 C 
ENDBRANCH  19  29
ENDBRANCH   3  20
TORSDOF 6
ENDMDL
MODEL 3
REMARK VINA RESULT:      -5.9      2.783      3.890
REMARK  Name = 54085949
REMARK  6 active torsions:
REMARK  status: ('A' for Active; 'I' for Inactive)
REMARK    1  A    between atoms: N_2  and  CA_9
REMARK    2  A    between atoms: C_3  and  C_20
REMARK    3  A    between atoms: CA_11  and  C_16
REMARK    4  A    between atoms: C_16  and  O_17
REMARK    5  A    between atoms: N_19  and  O_29
REMARK    6  A    between atoms: C_20  and  C_24
REMARK                            x       y       z     vdW  Elec       q    Type
REMARK                         _______ _______ _______ _____ _____    ______ ____
ROOT
ATOM      1  O   UNL     1     -35.760  28.362   1.759  0.00  0.00    -0.268 OA
ATOM      2  N   UNL     1     -35.074  27.400   3.788  0.00  0.00    -0.291 N 
ATOM      3  C   UNL     1     -35.068  28.333   2.764  0.00  0.00    +0.269 C 
ATOM      4  H   UNL     1     -34.447  27.518   4.538  0.00  0.00    +0.150 HD
ENDROOT
BRANCH   2   9
ATOM      5  S   UNL     1     -36.741  24.443   1.731  0.00  0.00    -0.114 S 
ATOM      6  O   UNL     1     -35.749  25.329   6.188  0.00  0.00    -0.273 OA
ATOM      7  N   UNL     1     -35.548  24.260   4.096  0.00  0.00    -0.242 N 
ATOM      8  C   UNL     1     -35.517  25.079   2.898  0.00  0.00    +0.155 C 
ATOM      9  CA  UNL     1     -35.970  26.247   3.801  0.00  0.00    +0.179 C 
ATOM     10  C   UNL     1     -35.724  25.265   4.981  0.00  0.00    +0.251 C 
ATOM     11  CA  UNL     1     -35.422  22.908   4.090  0.00  0.00    +0.124 C 
ATOM     12  C   UNL     1     -35.937  22.810   1.606  0.00  0.00    +0.083 C 
ATOM     13  C   UNL     1     -35.548  22.192   2.948  0.00  0.00    -0.013 C 
ATOM     14  C   UNL     1     -35.343  20.698   2.844  0.00  0.00    +0.029 C 
BRANCH  11  16
ATOM     15  OXT UNL     1     -34.138  21.828   5.773  0.00  0.00    -0.244 OA
ATOM     16  C   UNL     1     -35.208  22.252   5.388  0.00  0.00    +0.351 C 
BRANCH  16  17
ATOM     17  O   UNL     1     -36.375  22.203   6.062  0.00  0.00    -0.476 OA
ATOM     18  H   UNL     1     -36.846  22.993   6.240  0.00  0.00    +0.295 HD
ENDBRANCH  16  17
ENDBRANCH  11  16
ENDBRANCH   2   9
BRANCH   3  20
ATOM     19  N   UNL     1     -34.324  30.644   2.586  0.00  0.00    -0.076 NA
ATOM     20  C   UNL     1     -34.061  29.433   2.974  0.00  0.00    +0.198 C 
BRANCH  20  24
ATOM     21  S   UNL     1     -30.335  28.505   4.031  0.00  0.00    -0.060 S 
ATOM     22  N   UNL     1     -32.668  29.049   5.001  0.00  0.00    -0.383 NA
ATOM     23  N   UNL     1     -30.993  28.602   6.607  0.00  0.00    -0.328 N 
ATOM     24  C   UNL     1     -32.764  29.105   3.624  0.00  0.00    +0.148 C 
ATOM     25  C   UNL     1     -31.603  28.841   2.927  0.00  0.00    +0.127 C 
ATOM     26  C   UNL     1     -31.433  28.740   5.328  0.00  0.00    +0.204 C 
ATOM     27  H   UNL     1     -30.051  28.370   6.781  0.00  0.00    +0.145 HD
ATOM     28  H   UNL     1     -31.613  28.734   7.359  0.00  0.00    +0.145 HD
ENDBRANCH  20  24
BRANCH  19  29
ATOM     29  O   UNL     1     -33.265  31.520   2.862  0.00  0.00    -0.373 OA
ATOM     30  C   UNL     1     -33.560  32.772   2.261  0.00  0.00    +0.288 C 
ENDBRANCH  19  29
ENDBRANCH   3  20
TORSDOF 6
ENDMDL
MODEL 4
REMARK VINA RESULT:      -5.9      4.055      6.565
REMARK  Name = 54085949
REMARK  6 active torsions:
REMARK  status: ('A' for Active; 'I' for Inactive)
REMARK    1  A    between atoms: N_2  and  CA_9
REMARK    2  A    between atoms: C_3  and  C_20
REMARK    3  A    between atoms: CA_11  and  C_16
REMARK    4  A    between atoms: C_16  and  O_17
REMARK    5  A    between atoms: N_19  and  O_29
REMARK    6  A    between atoms: C_20  and  C_24
REMARK                            x       y       z     vdW  Elec       q    Type
REMARK                         _______ _______ _______ _____ _____    ______ ____
ROOT
ATOM      1  O   UNL     1     -36.216  22.226   0.692  0.00  0.00    -0.268 OA
ATOM      2  N   UNL     1     -34.722  20.776   1.778  0.00  0.00    -0.291 N 
ATOM      3  C   UNL     1     -35.664  21.789   1.689  0.00  0.00    +0.269 C 
ATOM      4  H   UNL     1     -34.369  20.537   2.664  0.00  0.00    +0.150 HD
ENDROOT
BRANCH   2   9
ATOM      5  S   UNL     1     -31.654  18.992   0.000  0.00  0.00    -0.114 S 
ATOM      6  O   UNL     1     -36.294  18.767  -0.221  0.00  0.00    -0.273 OA
ATOM      7  N   UNL     1     -34.112  18.027   0.278  0.00  0.00    -0.242 N 
ATOM      8  C   UNL     1     -33.200  18.947   0.934  0.00  0.00    +0.155 C 
ATOM      9  CA  UNL     1     -34.232  20.049   0.610  0.00  0.00    +0.179 C 
ATOM     10  C   UNL     1     -35.152  18.881   0.157  0.00  0.00    +0.251 C 
ATOM     11  CA  UNL     1     -33.798  16.742  -0.028  0.00  0.00    +0.124 C 
ATOM     12  C   UNL     1     -31.320  17.216   0.253  0.00  0.00    +0.083 C 
ATOM     13  C   UNL     1     -32.517  16.304  -0.009  0.00  0.00    -0.013 C 
ATOM     14  C   UNL     1     -32.095  14.875  -0.258  0.00  0.00    +0.029 C 
BRANCH  11  16
ATOM     15  OXT UNL     1     -35.195  15.636  -1.601  0.00  0.00    -0.244 OA
ATOM     16  C   UNL     1     -34.903  15.867  -0.445  0.00  0.00    +0.351 C 
BRANCH  16  17
ATOM     17  O   UNL     1     -35.521  15.375   0.648  0.00  0.00    -0.476 OA
ATOM     18  H   UNL     1     -35.753  14.469   0.686  0.00  0.00    +0.295 HD
ENDBRANCH  16  17
ENDBRANCH  11  16
ENDBRANCH   2   9
BRANCH   3  20
ATOM     19  N   UNL     1     -35.636  21.804   4.123  0.00  0.00    -0.076 NA
ATOM     20  C   UNL     1     -36.016  22.386   3.026  0.00  0.00    +0.198 C 
BRANCH  20  24
ATOM     21  S   UNL     1     -37.504  26.081   2.998  0.00  0.00    -0.060 S 
ATOM     22  N   UNL     1     -38.170  23.603   3.307  0.00  0.00    -0.383 NA
ATOM     23  N   UNL     1     -39.945  25.151   3.500  0.00  0.00    -0.328 N 
ATOM     24  C   UNL     1     -36.810  23.644   3.065  0.00  0.00    +0.148 C 
ATOM     25  C   UNL     1     -36.269  24.897   2.872  0.00  0.00    +0.127 C 
ATOM     26  C   UNL     1     -38.640  24.830   3.295  0.00  0.00    +0.204 C 
ATOM     27  H   UNL     1     -40.230  26.094   3.477  0.00  0.00    +0.145 HD
ATOM     28  H   UNL     1     -40.605  24.443   3.671  0.00  0.00    +0.145 HD
ENDBRANCH  20  24
BRANCH  19  29
ATOM     29  O   UNL     1     -36.064  22.506   5.258  0.00  0.00    -0.373 OA
ATOM     30  C   UNL     1     -35.318  22.040   6.372  0.00  0.00    +0.288 C 
ENDBRANCH  19  29
ENDBRANCH   3  20
TORSDOF 6
ENDMDL
MODEL 5
REMARK VINA RESULT:      -5.8      2.449      7.818
REMARK  Name = 54085949
REMARK  6 active torsions:
REMARK  status: ('A' for Active; 'I' for Inactive)
REMARK    1  A    between atoms: N_2  and  CA_9
REMARK    2  A    between atoms: C_3  and  C_20
REMARK    3  A    between atoms: CA_11  and  C_16
REMARK    4  A    between atoms: C_16  and  O_17
REMARK    5  A    between atoms: N_19  and  O_29
REMARK    6  A    between atoms: C_20  and  C_24
REMARK                            x       y       z     vdW  Elec       q    Type
REMARK                         _______ _______ _______ _____ _____    ______ ____
ROOT
ATOM      1  O   UNL     1     -36.311  26.476   3.083  0.00  0.00    -0.268 OA
ATOM      2  N   UNL     1     -34.122  25.640   3.245  0.00  0.00    -0.291 N 
ATOM      3  C   UNL     1     -35.500  25.616   3.389  0.00  0.00    +0.269 C 
ATOM      4  H   UNL     1     -33.602  24.860   3.543  0.00  0.00    +0.150 HD
ENDROOT
BRANCH   2   9
ATOM      5  S   UNL     1     -33.813  29.587   2.948  0.00  0.00    -0.114 S 
ATOM      6  O   UNL     1     -31.004  25.919   2.409  0.00  0.00    -0.273 OA
ATOM      7  N   UNL     1     -31.847  27.868   3.432  0.00  0.00    -0.242 N 
ATOM      8  C   UNL     1     -33.282  27.992   3.613  0.00  0.00    +0.155 C 
ATOM      9  CA  UNL     1     -33.408  26.777   2.669  0.00  0.00    +0.179 C 
ATOM     10  C   UNL     1     -31.862  26.682   2.788  0.00  0.00    +0.251 C 
ATOM     11  CA  UNL     1     -30.949  28.793   3.860  0.00  0.00    +0.124 C 
ATOM     12  C   UNL     1     -32.774  30.541   4.105  0.00  0.00    +0.083 C 
ATOM     13  C   UNL     1     -31.337  30.037   4.228  0.00  0.00    -0.013 C 
ATOM     14  C   UNL     1     -30.414  31.094   4.789  0.00  0.00    +0.029 C 
BRANCH  11  16
ATOM     15  OXT UNL     1     -28.764  28.660   2.935  0.00  0.00    -0.244 OA
ATOM     16  C   UNL     1     -29.531  28.406   3.841  0.00  0.00    +0.351 C 
BRANCH  16  17
ATOM     17  O   UNL     1     -29.236  27.737   4.973  0.00  0.00    -0.476 OA
ATOM     18  H   UNL     1     -28.565  27.083   4.969  0.00  0.00    +0.295 HD
ENDBRANCH  16  17
ENDBRANCH  11  16
ENDBRANCH   2   9
BRANCH   3  20
ATOM     19  N   UNL     1     -35.706  24.038   5.231  0.00  0.00    -0.076 NA
ATOM     20  C   UNL     1     -36.006  24.337   4.003  0.00  0.00    +0.198 C 
BRANCH  20  24
ATOM     21  S   UNL     1     -37.617  21.581   1.621  0.00  0.00    -0.060 S 
ATOM     22  N   UNL     1     -38.215  23.593   3.129  0.00  0.00    -0.383 NA
ATOM     23  N   UNL     1     -40.052  22.554   2.066  0.00  0.00    -0.328 N 
ATOM     24  C   UNL     1     -36.845  23.426   3.178  0.00  0.00    +0.148 C 
ATOM     25  C   UNL     1     -36.336  22.388   2.427  0.00  0.00    +0.127 C 
ATOM     26  C   UNL     1     -38.726  22.676   2.338  0.00  0.00    +0.204 C 
ATOM     27  H   UNL     1     -40.368  21.841   1.464  0.00  0.00    +0.145 HD
ATOM     28  H   UNL     1     -40.698  23.176   2.472  0.00  0.00    +0.145 HD
ENDBRANCH  20  24
BRANCH  19  29
ATOM     29  O   UNL     1     -36.263  22.810   5.616  0.00  0.00    -0.373 OA
ATOM     30  C   UNL     1     -35.281  22.091   6.346  0.00  0.00    +0.288 C 
ENDBRANCH  19  29
ENDBRANCH   3  20
TORSDOF 6
ENDMDL
MODEL 6
REMARK VINA RESULT:      -5.7      3.635      5.442
REMARK  Name = 54085949
REMARK  6 active torsions:
REMARK  status: ('A' for Active; 'I' for Inactive)
REMARK    1  A    between atoms: N_2  and  CA_9
REMARK    2  A    between atoms: C_3  and  C_20
REMARK    3  A    between atoms: CA_11  and  C_16
REMARK    4  A    between atoms: C_16  and  O_17
REMARK    5  A    between atoms: N_19  and  O_29
REMARK    6  A    between atoms: C_20  and  C_24
REMARK                            x       y       z     vdW  Elec       q    Type
REMARK                         _______ _______ _______ _____ _____    ______ ____
ROOT
ATOM      1  O   UNL     1     -40.062  22.372   1.734  0.00  0.00    -0.268 OA
ATOM      2  N   UNL     1     -37.791  22.390   2.328  0.00  0.00    -0.291 N 
ATOM      3  C   UNL     1     -39.064  22.916   2.178  0.00  0.00    +0.269 C 
ATOM      4  H   UNL     1     -37.085  22.963   2.705  0.00  0.00    +0.150 HD
ENDROOT
BRANCH   2   9
ATOM      5  S   UNL     1     -37.909  19.574  -0.467  0.00  0.00    -0.114 S 
ATOM      6  O   UNL     1     -35.299  20.540   3.260  0.00  0.00    -0.273 OA
ATOM      7  N   UNL     1     -35.797  20.304   0.968  0.00  0.00    -0.242 N 
ATOM      8  C   UNL     1     -37.043  20.855   0.468  0.00  0.00    +0.155 C 
ATOM      9  CA  UNL     1     -37.452  21.021   1.948  0.00  0.00    +0.179 C 
ATOM     10  C   UNL     1     -35.984  20.619   2.268  0.00  0.00    +0.251 C 
ATOM     11  CA  UNL     1     -34.871  19.695   0.183  0.00  0.00    +0.124 C 
ATOM     12  C   UNL     1     -36.563  19.399  -1.686  0.00  0.00    +0.083 C 
ATOM     13  C   UNL     1     -35.166  19.297  -1.078  0.00  0.00    -0.013 C 
ATOM     14  C   UNL     1     -34.173  18.687  -2.039  0.00  0.00    +0.029 C 
BRANCH  11  16
ATOM     15  OXT UNL     1     -32.579  20.132   0.633  0.00  0.00    -0.244 OA
ATOM     16  C   UNL     1     -33.557  19.429   0.784  0.00  0.00    +0.351 C 
BRANCH  16  17
ATOM     17  O   UNL     1     -33.621  18.298   1.516  0.00  0.00    -0.476 OA
ATOM     18  H   UNL     1     -33.915  18.332   2.405  0.00  0.00    +0.295 HD
ENDBRANCH  16  17
ENDBRANCH  11  16
ENDBRANCH   2   9
BRANCH   3  20
ATOM     19  N   UNL     1     -40.322  24.947   2.645  0.00  0.00    -0.076 NA
ATOM     20  C   UNL     1     -39.171  24.344   2.643  0.00  0.00    +0.198 C 
BRANCH  20  24
ATOM     21  S   UNL     1     -35.882  26.526   3.174  0.00  0.00    -0.060 S 
ATOM     22  N   UNL     1     -37.435  24.834   4.358  0.00  0.00    -0.383 NA
ATOM     23  N   UNL     1     -35.602  25.586   5.647  0.00  0.00    -0.328 N 
ATOM     24  C   UNL     1     -37.940  25.049   3.090  0.00  0.00    +0.148 C 
ATOM     25  C   UNL     1     -37.234  25.933   2.302  0.00  0.00    +0.127 C 
ATOM     26  C   UNL     1     -36.351  25.560   4.512  0.00  0.00    +0.204 C 
ATOM     27  H   UNL     1     -34.800  26.156   5.694  0.00  0.00    +0.145 HD
ATOM     28  H   UNL     1     -35.861  25.037   6.420  0.00  0.00    +0.145 HD
ENDBRANCH  20  24
BRANCH  19  29
ATOM     29  O   UNL     1     -40.215  26.267   3.104  0.00  0.00    -0.373 OA
ATOM     30  C   UNL     1     -41.457  26.634   3.685  0.00  0.00    +0.288 C 
ENDBRANCH  19  29
ENDBRANCH   3  20
TORSDOF 6
ENDMDL
MODEL 7
REMARK VINA RESULT:      -5.7      6.641      9.501
REMARK  Name = 54085949
REMARK  6 active torsions:
REMARK  status: ('A' for Active; 'I' for Inactive)
REMARK    1  A    between atoms: N_2  and  CA_9
REMARK    2  A    between atoms: C_3  and  C_20
REMARK    3  A    between atoms: CA_11  and  C_16
REMARK    4  A    between atoms: C_16  and  O_17
REMARK    5  A    between atoms: N_19  and  O_29
REMARK    6  A    between atoms: C_20  and  C_24
REMARK                            x       y       z     vdW  Elec       q    Type
REMARK                         _______ _______ _______ _____ _____    ______ ____
ROOT
ATOM      1  O   UNL     1     -43.024  24.451   0.833  0.00  0.00    -0.268 OA
ATOM      2  N   UNL     1     -42.059  26.101   2.197  0.00  0.00    -0.291 N 
ATOM      3  C   UNL     1     -42.080  24.951   1.424  0.00  0.00    +0.269 C 
ATOM      4  H   UNL     1     -41.210  26.376   2.611  0.00  0.00    +0.150 HD
ENDROOT
BRANCH   2   9
ATOM      5  S   UNL     1     -45.706  26.347   3.745  0.00  0.00    -0.114 S 
ATOM      6  O   UNL     1     -42.312  29.309   2.584  0.00  0.00    -0.273 OA
ATOM      7  N   UNL     1     -43.735  28.105   4.028  0.00  0.00    -0.242 N 
ATOM      8  C   UNL     1     -43.931  26.687   3.786  0.00  0.00    +0.155 C 
ATOM      9  CA  UNL     1     -43.245  26.923   2.423  0.00  0.00    +0.179 C 
ATOM     10  C   UNL     1     -42.936  28.347   2.966  0.00  0.00    +0.251 C 
ATOM     11  CA  UNL     1     -44.290  28.777   5.069  0.00  0.00    +0.124 C 
ATOM     12  C   UNL     1     -45.966  26.911   5.461  0.00  0.00    +0.083 C 
ATOM     13  C   UNL     1     -45.300  28.244   5.797  0.00  0.00    -0.013 C 
ATOM     14  C   UNL     1     -45.915  28.892   7.016  0.00  0.00    +0.029 C 
BRANCH  11  16
ATOM     15  OXT UNL     1     -43.014  30.421   6.217  0.00  0.00    -0.244 OA
ATOM     16  C   UNL     1     -43.790  30.135   5.329  0.00  0.00    +0.351 C 
BRANCH  16  17
ATOM     17  O   UNL     1     -44.328  30.988   4.434  0.00  0.00    -0.476 OA
ATOM     18  H   UNL     1     -44.819  30.657   3.709  0.00  0.00    +0.295 HD
ENDBRANCH  16  17
ENDBRANCH  11  16
ENDBRANCH   2   9
BRANCH   3  20
ATOM     19  N   UNL     1     -40.649  23.046   0.926  0.00  0.00    -0.076 NA
ATOM     20  C   UNL     1     -40.737  24.277   1.333  0.00  0.00    +0.198 C 
BRANCH  20  24
ATOM     21  S   UNL     1     -37.446  26.494   1.672  0.00  0.00    -0.060 S 
ATOM     22  N   UNL     1     -39.095  25.047   3.038  0.00  0.00    -0.383 NA
ATOM     23  N   UNL     1     -37.327  26.002   4.283  0.00  0.00    -0.328 N 
ATOM     24  C   UNL     1     -39.521  25.040   1.724  0.00  0.00    +0.148 C 
ATOM     25  C   UNL     1     -38.756  25.768   0.837  0.00  0.00    +0.127 C 
ATOM     26  C   UNL     1     -38.009  25.782   3.128  0.00  0.00    +0.204 C 
ATOM     27  H   UNL     1     -36.519  26.565   4.279  0.00  0.00    +0.145 HD
ATOM     28  H   UNL     1     -37.641  25.598   5.124  0.00  0.00    +0.145 HD
ENDBRANCH  20  24
BRANCH  19  29
ATOM     29  O   UNL     1     -39.321  22.596   0.917  0.00  0.00    -0.373 OA
ATOM     30  C   UNL     1     -39.232  21.468   1.774  0.00  0.00    +0.288 C 
ENDBRANCH  19  29
ENDBRANCH   3  20
TORSDOF 6
ENDMDL
MODEL 8
REMARK VINA RESULT:      -5.7      1.862      2.956
REMARK  Name = 54085949
REMARK  6 active torsions:
REMARK  status: ('A' for Active; 'I' for Inactive)
REMARK    1  A    between atoms: N_2  and  CA_9
REMARK    2  A    between atoms: C_3  and  C_20
REMARK    3  A    between atoms: CA_11  and  C_16
REMARK    4  A    between atoms: C_16  and  O_17
REMARK    5  A    between atoms: N_19  and  O_29
REMARK    6  A    between atoms: C_20  and  C_24
REMARK                            x       y       z     vdW  Elec       q    Type
REMARK                         _______ _______ _______ _____ _____    ______ ____
ROOT
ATOM      1  O   UNL     1     -35.302  26.432   5.436  0.00  0.00    -0.268 OA
ATOM      2  N   UNL     1     -35.571  25.603   3.255  0.00  0.00    -0.291 N 
ATOM      3  C   UNL     1     -34.892  26.188   4.312  0.00  0.00    +0.269 C 
ATOM      4  H   UNL     1     -35.096  25.474   2.403  0.00  0.00    +0.150 HD
ENDROOT
BRANCH   2   9
ATOM      5  S   UNL     1     -39.296  26.024   1.949  0.00  0.00    -0.114 S 
ATOM      6  O   UNL     1     -36.791  22.704   4.031  0.00  0.00    -0.273 OA
ATOM      7  N   UNL     1     -37.972  23.745   2.277  0.00  0.00    -0.242 N 
ATOM      8  C   UNL     1     -37.716  25.147   2.004  0.00  0.00    +0.155 C 
ATOM      9  CA  UNL     1     -36.963  25.173   3.352  0.00  0.00    +0.179 C 
ATOM     10  C   UNL     1     -37.152  23.630   3.343  0.00  0.00    +0.251 C 
ATOM     11  CA  UNL     1     -38.825  22.978   1.550  0.00  0.00    +0.124 C 
ATOM     12  C   UNL     1     -39.921  25.036   0.548  0.00  0.00    +0.083 C 
ATOM     13  C   UNL     1     -39.719  23.530   0.696  0.00  0.00    -0.013 C 
ATOM     14  C   UNL     1     -40.643  22.744  -0.205  0.00  0.00    +0.029 C 
BRANCH  11  16
ATOM     15  OXT UNL     1     -37.881  20.801   1.399  0.00  0.00    -0.244 OA
ATOM     16  C   UNL     1     -38.777  21.526   1.780  0.00  0.00    +0.351 C 
BRANCH  16  17
ATOM     17  O   UNL     1     -39.872  21.147   2.469  0.00  0.00    -0.476 OA
ATOM     18  H   UNL     1     -39.780  20.663   3.265  0.00  0.00    +0.295 HD
ENDBRANCH  16  17
ENDBRANCH  11  16
ENDBRANCH   2   9
BRANCH   3  20
ATOM     19  N   UNL     1     -32.778  25.788   3.173  0.00  0.00    -0.076 NA
ATOM     20  C   UNL     1     -33.468  26.543   3.974  0.00  0.00    +0.198 C 
BRANCH  20  24
ATOM     21  S   UNL     1     -32.019  30.122   4.951  0.00  0.00    -0.060 S 
ATOM     22  N   UNL     1     -32.366  27.729   5.864  0.00  0.00    -0.383 NA
ATOM     23  N   UNL     1     -31.322  29.234   7.359  0.00  0.00    -0.328 N 
ATOM     24  C   UNL     1     -32.869  27.763   4.578  0.00  0.00    +0.148 C 
ATOM     25  C   UNL     1     -32.771  28.973   3.924  0.00  0.00    +0.127 C 
ATOM     26  C   UNL     1     -31.892  28.918   6.166  0.00  0.00    +0.204 C 
ATOM     27  H   UNL     1     -30.988  30.147   7.519  0.00  0.00    +0.145 HD
ATOM     28  H   UNL     1     -31.243  28.551   8.063  0.00  0.00    +0.145 HD
ENDBRANCH  20  24
BRANCH  19  29
ATOM     29  O   UNL     1     -31.478  26.280   2.989  0.00  0.00    -0.373 OA
ATOM     30  C   UNL     1     -31.206  26.295   1.595  0.00  0.00    +0.288 C 
ENDBRANCH  19  29
ENDBRANCH   3  20
TORSDOF 6
ENDMDL
MODEL 9
REMARK VINA RESULT:      -5.7      3.017      7.774
REMARK  Name = 54085949
REMARK  6 active torsions:
REMARK  status: ('A' for Active; 'I' for Inactive)
REMARK    1  A    between atoms: N_2  and  CA_9
REMARK    2  A    between atoms: C_3  and  C_20
REMARK    3  A    between atoms: CA_11  and  C_16
REMARK    4  A    between atoms: C_16  and  O_17
REMARK    5  A    between atoms: N_19  and  O_29
REMARK    6  A    between atoms: C_20  and  C_24
REMARK                            x       y       z     vdW  Elec       q    Type
REMARK                         _______ _______ _______ _____ _____    ______ ____
ROOT
ATOM      1  O   UNL     1     -36.898  27.373   1.780  0.00  0.00    -0.268 OA
ATOM      2  N   UNL     1     -35.077  26.277   2.778  0.00  0.00    -0.291 N 
ATOM      3  C   UNL     1     -36.404  26.461   2.424  0.00  0.00    +0.269 C 
ATOM      4  H   UNL     1     -34.835  25.482   3.304  0.00  0.00    +0.150 HD
ENDROOT
BRANCH   2   9
ATOM      5  S   UNL     1     -33.992  30.066   2.303  0.00  0.00    -0.114 S 
ATOM      6  O   UNL     1     -31.862  26.004   3.075  0.00  0.00    -0.273 OA
ATOM      7  N   UNL     1     -32.639  28.172   3.581  0.00  0.00    -0.242 N 
ATOM      8  C   UNL     1     -34.005  28.517   3.234  0.00  0.00    +0.155 C 
ATOM      9  CA  UNL     1     -34.022  27.216   2.403  0.00  0.00    +0.179 C 
ATOM     10  C   UNL     1     -32.647  26.923   3.067  0.00  0.00    +0.251 C 
ATOM     11  CA  UNL     1     -31.787  29.012   4.223  0.00  0.00    +0.124 C 
ATOM     12  C   UNL     1     -33.248  31.013   3.674  0.00  0.00    +0.083 C 
ATOM     13  C   UNL     1     -32.049  30.336   4.334  0.00  0.00    -0.013 C 
ATOM     14  C   UNL     1     -31.195  31.318   5.100  0.00  0.00    +0.029 C 
BRANCH  11  16
ATOM     15  OXT UNL     1     -29.484  28.430   4.131  0.00  0.00    -0.244 OA
ATOM     16  C   UNL     1     -30.537  28.431   4.735  0.00  0.00    +0.351 C 
BRANCH  16  17
ATOM     17  O   UNL     1     -30.754  27.913   5.961  0.00  0.00    -0.476 OA
ATOM     18  H   UNL     1     -30.572  28.424   6.724  0.00  0.00    +0.295 HD
ENDBRANCH  16  17
ENDBRANCH  11  16
ENDBRANCH   2   9
BRANCH   3  20
ATOM     19  N   UNL     1     -38.595  25.501   2.874  0.00  0.00    -0.076 NA
ATOM     20  C   UNL     1     -37.305  25.361   2.919  0.00  0.00    +0.198 C 
BRANCH  20  24
ATOM     21  S   UNL     1     -35.654  21.818   3.687  0.00  0.00    -0.060 S 
ATOM     22  N   UNL     1     -36.469  23.992   4.822  0.00  0.00    -0.383 NA
ATOM     23  N   UNL     1     -35.578  22.366   6.289  0.00  0.00    -0.328 N 
ATOM     24  C   UNL     1     -36.691  24.121   3.465  0.00  0.00    +0.148 C 
ATOM     25  C   UNL     1     -36.314  23.046   2.688  0.00  0.00    +0.127 C 
ATOM     26  C   UNL     1     -35.926  22.817   5.055  0.00  0.00    +0.204 C 
ATOM     27  H   UNL     1     -35.173  21.473   6.390  0.00  0.00    +0.145 HD
ATOM     28  H   UNL     1     -35.729  22.930   7.080  0.00  0.00    +0.145 HD
ENDBRANCH  20  24
BRANCH  19  29
ATOM     29  O   UNL     1     -39.258  24.376   3.384  0.00  0.00    -0.373 OA
ATOM     30  C   UNL     1     -40.128  23.882   2.377  0.00  0.00    +0.288 C 
ENDBRANCH  19  29
ENDBRANCH   3  20
TORSDOF 6
ENDMDL
