MODEL 1
REMARK VINA RESULT:      -5.7      0.000      0.000
REMARK  Name = 20841753
REMARK  15 active torsions:
REMARK  status: ('A' for Active; 'I' for Inactive)
REMARK    1  A    between atoms: CA_1  and  N_3
REMARK    2  A    between atoms: CA_1  and  C_19
REMARK    3  A    between atoms: CA_1  and  CB_26
REMARK    4  A    between atoms: C_4  and  C_6
REMARK    5  A    between atoms: C_6  and  C_7
REMARK    6  A    between atoms: C_7  and  CA_8
REMARK    7  A    between atoms: CA_8  and  N_9
REMARK    8  A    between atoms: CA_8  and  C_14
REMARK    9  A    between atoms: C_14  and  O_15
REMARK   10  A    between atoms: N_18  and  CA_21
REMARK   11  A    between atoms: CA_21  and  C_23
REMARK   12  A    between atoms: C_23  and  O_24
REMARK   13  A    between atoms: CB_26  and  SG_27
REMARK   14  A    between atoms: SG_27  and  C_29
REMARK   15  A    between atoms: C_29  and  C_31
REMARK                            x       y       z     vdW  Elec       q    Type
REMARK                         _______ _______ _______ _____ _____    ______ ____
ROOT
ATOM      1  CA  UNL     1     -36.429  21.210   2.581  0.00  0.00    +0.160 C 
ENDROOT
BRANCH   1   3
ATOM      2  O   UNL     1     -35.060  20.825   5.092  0.00  0.00    -0.275 OA
ATOM      3  N   UNL     1     -36.169  22.209   3.591  0.00  0.00    -0.298 N 
ATOM      4  C   UNL     1     -35.500  21.927   4.773  0.00  0.00    +0.223 C 
ATOM      5  H   UNL     1     -36.481  23.129   3.434  0.00  0.00    +0.150 HD
BRANCH   4   6
ATOM      6  C   UNL     1     -35.376  23.159   5.652  0.00  0.00    +0.083 C 
BRANCH   6   7
ATOM      7  C   UNL     1     -34.843  24.372   4.887  0.00  0.00    -0.001 C 
BRANCH   7   8
ATOM      8  CA  UNL     1     -34.995  25.682   5.668  0.00  0.00    +0.036 C 
BRANCH   8   9
ATOM      9  N   UNL     1     -35.949  26.555   4.978  0.00  0.00    +0.389 N 
ATOM     10  H1  UNL     1     -35.803  26.487   3.971  0.00  0.00    -0.088 HD
ATOM     11  H2  UNL     1     -35.806  27.519   5.279  0.00  0.00    -0.088 HD
ATOM     12  H3  UNL     1     -36.899  26.264   5.205  0.00  0.00    -0.088 HD
ENDBRANCH   8   9
BRANCH   8  14
ATOM     13  OXT UNL     1     -33.227  26.973   6.739  0.00  0.00    -0.253 OA
ATOM     14  C   UNL     1     -33.681  26.439   5.734  0.00  0.00    +0.293 C 
BRANCH  14  15
ATOM     15  O   UNL     1     -33.054  26.489   4.531  0.00  0.00    -0.482 OA
ATOM     16  H   UNL     1     -32.492  25.789   4.266  0.00  0.00    +0.295 HD
ENDBRANCH  14  15
ENDBRANCH   8  14
ENDBRANCH   7   8
ENDBRANCH   6   7
ENDBRANCH   4   6
ENDBRANCH   1   3
BRANCH   1  19
ATOM     17  O   UNL     1     -34.565  21.712   1.111  0.00  0.00    -0.273 OA
ATOM     18  N   UNL     1     -34.683  19.608   2.081  0.00  0.00    -0.294 N 
ATOM     19  C   ACE A   1     -35.128  20.900   1.844  0.00  0.00    +0.242 C 
ATOM     20  H   UNL     1     -35.206  19.033   2.686  0.00  0.00    +0.150 HD
BRANCH  18  21
ATOM     21  CA  UNL     1     -33.486  19.072   1.476  0.00  0.00    +0.200 C 
BRANCH  21  23
ATOM     22  OXT UNL     1     -33.693  18.727  -0.897  0.00  0.00    -0.248 OA
ATOM     23  C   UNL     1     -33.767  18.265   0.234  0.00  0.00    +0.334 C 
BRANCH  23  24
ATOM     24  O   UNL     1     -34.110  16.981   0.489  0.00  0.00    -0.479 OA
ATOM     25  H   UNL     1     -34.136  16.356  -0.208  0.00  0.00    +0.295 HD
ENDBRANCH  23  24
ENDBRANCH  21  23
ENDBRANCH  18  21
ENDBRANCH   1  19
BRANCH   1  26
ATOM     26  CB  UNL     1     -37.574  21.609   1.647  0.00  0.00    +0.094 C 
BRANCH  26  27
ATOM     27  SG  UNL     1     -37.773  23.412   1.458  0.00  0.00    -0.068 S 
BRANCH  27  29
ATOM     28  O   UNL     1     -40.383  23.041   1.968  0.00  0.00    -0.277 OA
ATOM     29  C   UNL     1     -39.329  23.603   2.176  0.00  0.00    +0.256 C 
BRANCH  29  31
ATOM     30  O   UNL     1     -38.214  24.621   3.962  0.00  0.00    -0.287 OA
ATOM     31  C   UNL     1     -39.141  24.706   3.170  0.00  0.00    +0.218 C 
ATOM     32  C   UNL     1     -40.067  25.880   3.052  0.00  0.00    +0.081 C 
ENDBRANCH  29  31
ENDBRANCH  27  29
ENDBRANCH  26  27
ENDBRANCH   1  26
TORSDOF 15
ENDMDL
MODEL 2
REMARK VINA RESULT:      -5.5      3.017      7.327
REMARK  Name = 20841753
REMARK  15 active torsions:
REMARK  status: ('A' for Active; 'I' for Inactive)
REMARK    1  A    between atoms: CA_1  and  N_3
REMARK    2  A    between atoms: CA_1  and  C_19
REMARK    3  A    between atoms: CA_1  and  CB_26
REMARK    4  A    between atoms: C_4  and  C_6
REMARK    5  A    between atoms: C_6  and  C_7
REMARK    6  A    between atoms: C_7  and  CA_8
REMARK    7  A    between atoms: CA_8  and  N_9
REMARK    8  A    between atoms: CA_8  and  C_14
REMARK    9  A    between atoms: C_14  and  O_15
REMARK   10  A    between atoms: N_18  and  CA_21
REMARK   11  A    between atoms: CA_21  and  C_23
REMARK   12  A    between atoms: C_23  and  O_24
REMARK   13  A    between atoms: CB_26  and  SG_27
REMARK   14  A    between atoms: SG_27  and  C_29
REMARK   15  A    between atoms: C_29  and  C_31
REMARK                            x       y       z     vdW  Elec       q    Type
REMARK                         _______ _______ _______ _____ _____    ______ ____
ROOT
ATOM      1  CA  UNL     1     -35.005  27.334   3.107  0.00  0.00    +0.160 C 
ENDROOT
BRANCH   1   3
ATOM      2  O   UNL     1     -36.073  26.353   5.602  0.00  0.00    -0.275 OA
ATOM      3  N   UNL     1     -34.564  26.173   3.845  0.00  0.00    -0.298 N 
ATOM      4  C   UNL     1     -35.143  25.779   5.043  0.00  0.00    +0.223 C 
ATOM      5  H   UNL     1     -33.822  25.638   3.483  0.00  0.00    +0.150 HD
BRANCH   4   6
ATOM      6  C   UNL     1     -34.477  24.533   5.602  0.00  0.00    +0.083 C 
BRANCH   6   7
ATOM      7  C   UNL     1     -35.422  23.330   5.634  0.00  0.00    -0.001 C 
BRANCH   7   8
ATOM      8  CA  UNL     1     -35.646  22.712   4.248  0.00  0.00    +0.036 C 
BRANCH   8   9
ATOM      9  N   UNL     1     -37.048  22.883   3.858  0.00  0.00    +0.389 N 
ATOM     10  H1  UNL     1     -37.402  22.007   3.475  0.00  0.00    -0.088 HD
ATOM     11  H2  UNL     1     -37.118  23.616   3.154  0.00  0.00    -0.088 HD
ATOM     12  H3  UNL     1     -37.598  23.143   4.677  0.00  0.00    -0.088 HD
ENDBRANCH   8   9
BRANCH   8  14
ATOM     13  OXT UNL     1     -35.340  20.502   3.268  0.00  0.00    -0.253 OA
ATOM     14  C   UNL     1     -35.376  21.219   4.261  0.00  0.00    +0.293 C 
BRANCH  14  15
ATOM     15  O   UNL     1     -35.200  20.738   5.518  0.00  0.00    -0.482 OA
ATOM     16  H   UNL     1     -34.404  20.298   5.744  0.00  0.00    +0.295 HD
ENDBRANCH  14  15
ENDBRANCH   8  14
ENDBRANCH   7   8
ENDBRANCH   6   7
ENDBRANCH   4   6
ENDBRANCH   1   3
BRANCH   1  19
ATOM     17  O   UNL     1     -36.039  26.951   0.947  0.00  0.00    -0.273 OA
ATOM     18  N   UNL     1     -37.282  26.550   2.863  0.00  0.00    -0.294 N 
ATOM     19  C   ACE A   1     -36.140  26.925   2.172  0.00  0.00    +0.242 C 
ATOM     20  H   UNL     1     -37.264  26.562   3.847  0.00  0.00    +0.150 HD
BRANCH  18  21
ATOM     21  CA  UNL     1     -38.499  26.145   2.198  0.00  0.00    +0.200 C 
BRANCH  21  23
ATOM     22  OXT UNL     1     -39.589  24.536   3.617  0.00  0.00    -0.248 OA
ATOM     23  C   UNL     1     -39.561  25.669   3.155  0.00  0.00    +0.334 C 
BRANCH  23  24
ATOM     24  O   UNL     1     -40.482  26.615   3.455  0.00  0.00    -0.479 OA
ATOM     25  H   UNL     1     -41.328  26.589   3.053  0.00  0.00    +0.295 HD
ENDBRANCH  23  24
ENDBRANCH  21  23
ENDBRANCH  18  21
ENDBRANCH   1  19
BRANCH   1  26
ATOM     26  CB  UNL     1     -33.852  28.040   2.389  0.00  0.00    +0.094 C 
BRANCH  26  27
ATOM     27  SG  UNL     1     -33.048  29.336   3.388  0.00  0.00    -0.068 S 
BRANCH  27  29
ATOM     28  O   UNL     1     -30.716  28.018   3.214  0.00  0.00    -0.277 OA
ATOM     29  C   UNL     1     -31.625  28.486   3.865  0.00  0.00    +0.256 C 
BRANCH  29  31
ATOM     30  O   UNL     1     -32.785  27.994   5.834  0.00  0.00    -0.287 OA
ATOM     31  C   UNL     1     -31.734  28.394   5.354  0.00  0.00    +0.218 C 
ATOM     32  C   UNL     1     -30.499  28.721   6.139  0.00  0.00    +0.081 C 
ENDBRANCH  29  31
ENDBRANCH  27  29
ENDBRANCH  26  27
ENDBRANCH   1  26
TORSDOF 15
ENDMDL
MODEL 3
REMARK VINA RESULT:      -5.3      3.028      7.073
REMARK  Name = 20841753
REMARK  15 active torsions:
REMARK  status: ('A' for Active; 'I' for Inactive)
REMARK    1  A    between atoms: CA_1  and  N_3
REMARK    2  A    between atoms: CA_1  and  C_19
REMARK    3  A    between atoms: CA_1  and  CB_26
REMARK    4  A    between atoms: C_4  and  C_6
REMARK    5  A    between atoms: C_6  and  C_7
REMARK    6  A    between atoms: C_7  and  CA_8
REMARK    7  A    between atoms: CA_8  and  N_9
REMARK    8  A    between atoms: CA_8  and  C_14
REMARK    9  A    between atoms: C_14  and  O_15
REMARK   10  A    between atoms: N_18  and  CA_21
REMARK   11  A    between atoms: CA_21  and  C_23
REMARK   12  A    between atoms: C_23  and  O_24
REMARK   13  A    between atoms: CB_26  and  SG_27
REMARK   14  A    between atoms: SG_27  and  C_29
REMARK   15  A    between atoms: C_29  and  C_31
REMARK                            x       y       z     vdW  Elec       q    Type
REMARK                         _______ _______ _______ _____ _____    ______ ____
ROOT
ATOM      1  CA  UNL     1     -33.853  27.671   3.397  0.00  0.00    +0.160 C 
ENDROOT
BRANCH   1   3
ATOM      2  O   UNL     1     -33.236  25.034   4.392  0.00  0.00    -0.275 OA
ATOM      3  N   UNL     1     -34.660  26.866   4.283  0.00  0.00    -0.298 N 
ATOM      4  C   UNL     1     -34.278  25.602   4.709  0.00  0.00    +0.223 C 
ATOM      5  H   UNL     1     -35.519  27.229   4.599  0.00  0.00    +0.150 HD
BRANCH   4   6
ATOM      6  C   UNL     1     -35.320  24.982   5.624  0.00  0.00    +0.083 C 
BRANCH   6   7
ATOM      7  C   UNL     1     -35.205  23.457   5.692  0.00  0.00    -0.001 C 
BRANCH   7   8
ATOM      8  CA  UNL     1     -35.549  22.776   4.363  0.00  0.00    +0.036 C 
BRANCH   8   9
ATOM      9  N   UNL     1     -36.965  22.993   4.054  0.00  0.00    +0.389 N 
ATOM     10  H1  UNL     1     -37.045  23.583   3.226  0.00  0.00    -0.088 HD
ATOM     11  H2  UNL     1     -37.418  23.450   4.844  0.00  0.00    -0.088 HD
ATOM     12  H3  UNL     1     -37.415  22.095   3.877  0.00  0.00    -0.088 HD
ENDBRANCH   8   9
BRANCH   8  14
ATOM     13  OXT UNL     1     -35.273  20.520   3.483  0.00  0.00    -0.253 OA
ATOM     14  C   UNL     1     -35.347  21.274   4.446  0.00  0.00    +0.293 C 
BRANCH  14  15
ATOM     15  O   UNL     1     -35.280  20.833   5.728  0.00  0.00    -0.482 OA
ATOM     16  H   UNL     1     -35.874  20.174   6.029  0.00  0.00    +0.295 HD
ENDBRANCH  14  15
ENDBRANCH   8  14
ENDBRANCH   7   8
ENDBRANCH   6   7
ENDBRANCH   4   6
ENDBRANCH   1   3
BRANCH   1  19
ATOM     17  O   UNL     1     -32.587  29.694   3.835  0.00  0.00    -0.273 OA
ATOM     18  N   UNL     1     -32.649  28.045   5.464  0.00  0.00    -0.294 N 
ATOM     19  C   ACE A   1     -32.972  28.597   4.234  0.00  0.00    +0.242 C 
ATOM     20  H   UNL     1     -33.008  27.157   5.693  0.00  0.00    +0.150 HD
BRANCH  18  21
ATOM     21  CA  UNL     1     -31.806  28.719   6.425  0.00  0.00    +0.200 C 
BRANCH  21  23
ATOM     22  OXT UNL     1     -29.616  29.172   5.534  0.00  0.00    -0.248 OA
ATOM     23  C   UNL     1     -30.339  28.450   6.209  0.00  0.00    +0.334 C 
BRANCH  23  24
ATOM     24  O   UNL     1     -29.897  27.333   6.832  0.00  0.00    -0.479 OA
ATOM     25  H   UNL     1     -29.494  27.395   7.676  0.00  0.00    +0.295 HD
ENDBRANCH  23  24
ENDBRANCH  21  23
ENDBRANCH  18  21
ENDBRANCH   1  19
BRANCH   1  26
ATOM     26  CB  UNL     1     -34.693  28.413   2.355  0.00  0.00    +0.094 C 
BRANCH  26  27
ATOM     27  SG  UNL     1     -35.255  27.359   0.978  0.00  0.00    -0.068 S 
BRANCH  27  29
ATOM     28  O   UNL     1     -37.796  28.222   1.011  0.00  0.00    -0.277 OA
ATOM     29  C   UNL     1     -36.954  27.390   1.270  0.00  0.00    +0.256 C 
BRANCH  29  31
ATOM     30  O   UNL     1     -36.349  25.256   2.010  0.00  0.00    -0.287 OA
ATOM     31  C   UNL     1     -37.226  26.107   1.991  0.00  0.00    +0.218 C 
ATOM     32  C   UNL     1     -38.538  26.008   2.711  0.00  0.00    +0.081 C 
ENDBRANCH  29  31
ENDBRANCH  27  29
ENDBRANCH  26  27
ENDBRANCH   1  26
TORSDOF 15
ENDMDL
MODEL 4
REMARK VINA RESULT:      -5.3      3.729      7.304
REMARK  Name = 20841753
REMARK  15 active torsions:
REMARK  status: ('A' for Active; 'I' for Inactive)
REMARK    1  A    between atoms: CA_1  and  N_3
REMARK    2  A    between atoms: CA_1  and  C_19
REMARK    3  A    between atoms: CA_1  and  CB_26
REMARK    4  A    between atoms: C_4  and  C_6
REMARK    5  A    between atoms: C_6  and  C_7
REMARK    6  A    between atoms: C_7  and  CA_8
REMARK    7  A    between atoms: CA_8  and  N_9
REMARK    8  A    between atoms: CA_8  and  C_14
REMARK    9  A    between atoms: C_14  and  O_15
REMARK   10  A    between atoms: N_18  and  CA_21
REMARK   11  A    between atoms: CA_21  and  C_23
REMARK   12  A    between atoms: C_23  and  O_24
REMARK   13  A    between atoms: CB_26  and  SG_27
REMARK   14  A    between atoms: SG_27  and  C_29
REMARK   15  A    between atoms: C_29  and  C_31
REMARK                            x       y       z     vdW  Elec       q    Type
REMARK                         _______ _______ _______ _____ _____    ______ ____
ROOT
ATOM      1  CA  UNL     1     -35.202  26.572   3.211  0.00  0.00    +0.160 C 
ENDROOT
BRANCH   1   3
ATOM      2  O   UNL     1     -36.720  24.354   2.161  0.00  0.00    -0.275 OA
ATOM      3  N   UNL     1     -36.607  26.562   2.873  0.00  0.00    -0.298 N 
ATOM      4  C   UNL     1     -37.251  25.441   2.371  0.00  0.00    +0.223 C 
ATOM      5  H   UNL     1     -37.128  27.386   3.004  0.00  0.00    +0.150 HD
BRANCH   4   6
ATOM      6  C   UNL     1     -38.720  25.717   2.096  0.00  0.00    +0.083 C 
BRANCH   6   7
ATOM      7  C   UNL     1     -39.626  24.573   2.558  0.00  0.00    -0.001 C 
BRANCH   7   8
ATOM      8  CA  UNL     1     -39.856  23.521   1.467  0.00  0.00    +0.036 C 
BRANCH   8   9
ATOM      9  N   UNL     1     -41.262  23.545   1.054  0.00  0.00    +0.389 N 
ATOM     10  H1  UNL     1     -41.639  22.597   1.078  0.00  0.00    -0.088 HD
ATOM     11  H2  UNL     1     -41.332  23.916   0.107  0.00  0.00    -0.088 HD
ATOM     12  H3  UNL     1     -41.793  24.137   1.693  0.00  0.00    -0.088 HD
ENDBRANCH   8   9
BRANCH   8  14
ATOM     13  OXT UNL     1     -40.378  21.193   1.967  0.00  0.00    -0.253 OA
ATOM     14  C   UNL     1     -39.579  22.121   1.985  0.00  0.00    +0.293 C 
BRANCH  14  15
ATOM     15  O   UNL     1     -38.331  22.003   2.506  0.00  0.00    -0.482 OA
ATOM     16  H   UNL     1     -37.707  21.432   2.104  0.00  0.00    +0.295 HD
ENDBRANCH  14  15
ENDBRANCH   8  14
ENDBRANCH   7   8
ENDBRANCH   6   7
ENDBRANCH   4   6
ENDBRANCH   1   3
BRANCH   1  19
ATOM     17  O   UNL     1     -35.034  26.348   5.621  0.00  0.00    -0.273 OA
ATOM     18  N   UNL     1     -34.760  24.458   4.304  0.00  0.00    -0.294 N 
ATOM     19  C   ACE A   1     -35.002  25.807   4.517  0.00  0.00    +0.242 C 
ATOM     20  H   UNL     1     -34.755  24.119   3.380  0.00  0.00    +0.150 HD
BRANCH  18  21
ATOM     21  CA  UNL     1     -34.515  23.530   5.384  0.00  0.00    +0.200 C 
BRANCH  21  23
ATOM     22  OXT UNL     1     -35.849  22.007   6.686  0.00  0.00    -0.248 OA
ATOM     23  C   UNL     1     -35.669  22.591   5.625  0.00  0.00    +0.334 C 
BRANCH  23  24
ATOM     24  O   UNL     1     -36.488  22.455   4.556  0.00  0.00    -0.479 OA
ATOM     25  H   UNL     1     -37.149  21.791   4.554  0.00  0.00    +0.295 HD
ENDBRANCH  23  24
ENDBRANCH  21  23
ENDBRANCH  18  21
ENDBRANCH   1  19
BRANCH   1  26
ATOM     26  CB  UNL     1     -34.621  27.987   3.242  0.00  0.00    +0.094 C 
BRANCH  26  27
ATOM     27  SG  UNL     1     -32.803  28.032   3.370  0.00  0.00    -0.068 S 
BRANCH  27  29
ATOM     28  O   UNL     1     -33.089  30.449   4.502  0.00  0.00    -0.277 OA
ATOM     29  C   UNL     1     -32.628  29.328   4.494  0.00  0.00    +0.256 C 
BRANCH  29  31
ATOM     30  O   UNL     1     -31.057  27.781   5.273  0.00  0.00    -0.287 OA
ATOM     31  C   UNL     1     -31.698  28.788   5.535  0.00  0.00    +0.218 C 
ATOM     32  C   UNL     1     -31.565  29.589   6.796  0.00  0.00    +0.081 C 
ENDBRANCH  29  31
ENDBRANCH  27  29
ENDBRANCH  26  27
ENDBRANCH   1  26
TORSDOF 15
ENDMDL
MODEL 5
REMARK VINA RESULT:      -5.3      2.719      4.331
REMARK  Name = 20841753
REMARK  15 active torsions:
REMARK  status: ('A' for Active; 'I' for Inactive)
REMARK    1  A    between atoms: CA_1  and  N_3
REMARK    2  A    between atoms: CA_1  and  C_19
REMARK    3  A    between atoms: CA_1  and  CB_26
REMARK    4  A    between atoms: C_4  and  C_6
REMARK    5  A    between atoms: C_6  and  C_7
REMARK    6  A    between atoms: C_7  and  CA_8
REMARK    7  A    between atoms: CA_8  and  N_9
REMARK    8  A    between atoms: CA_8  and  C_14
REMARK    9  A    between atoms: C_14  and  O_15
REMARK   10  A    between atoms: N_18  and  CA_21
REMARK   11  A    between atoms: CA_21  and  C_23
REMARK   12  A    between atoms: C_23  and  O_24
REMARK   13  A    between atoms: CB_26  and  SG_27
REMARK   14  A    between atoms: SG_27  and  C_29
REMARK   15  A    between atoms: C_29  and  C_31
REMARK                            x       y       z     vdW  Elec       q    Type
REMARK                         _______ _______ _______ _____ _____    ______ ____
ROOT
ATOM      1  CA  UNL     1     -39.089  24.594   2.979  0.00  0.00    +0.160 C 
ENDROOT
BRANCH   1   3
ATOM      2  O   UNL     1     -36.721  26.241   3.081  0.00  0.00    -0.275 OA
ATOM      3  N   UNL     1     -38.191  24.758   4.099  0.00  0.00    -0.298 N 
ATOM      4  C   UNL     1     -37.072  25.577   4.053  0.00  0.00    +0.223 C 
ATOM      5  H   UNL     1     -38.382  24.268   4.931  0.00  0.00    +0.150 HD
BRANCH   4   6
ATOM      6  C   UNL     1     -36.307  25.552   5.365  0.00  0.00    +0.083 C 
BRANCH   6   7
ATOM      7  C   UNL     1     -34.808  25.318   5.163  0.00  0.00    -0.001 C 
BRANCH   7   8
ATOM      8  CA  UNL     1     -34.483  23.879   4.744  0.00  0.00    +0.036 C 
BRANCH   8   9
ATOM      9  N   UNL     1     -34.784  23.705   3.320  0.00  0.00    +0.389 N 
ATOM     10  H1  UNL     1     -35.574  23.067   3.216  0.00  0.00    -0.088 HD
ATOM     11  H2  UNL     1     -33.969  23.319   2.845  0.00  0.00    -0.088 HD
ATOM     12  H3  UNL     1     -35.021  24.609   2.911  0.00  0.00    -0.088 HD
ENDBRANCH   8   9
BRANCH   8  14
ATOM     13  OXT UNL     1     -35.134  22.495   6.641  0.00  0.00    -0.253 OA
ATOM     14  C   UNL     1     -35.341  22.879   5.496  0.00  0.00    +0.293 C 
BRANCH  14  15
ATOM     15  O   UNL     1     -36.374  22.419   4.745  0.00  0.00    -0.482 OA
ATOM     16  H   UNL     1     -36.503  22.744   3.876  0.00  0.00    +0.295 HD
ENDBRANCH  14  15
ENDBRANCH   8  14
ENDBRANCH   7   8
ENDBRANCH   6   7
ENDBRANCH   4   6
ENDBRANCH   1   3
BRANCH   1  19
ATOM     17  O   UNL     1     -38.147  24.312   0.761  0.00  0.00    -0.273 OA
ATOM     18  N   UNL     1     -38.014  22.548   2.261  0.00  0.00    -0.294 N 
ATOM     19  C   ACE A   1     -38.365  23.832   1.872  0.00  0.00    +0.242 C 
ATOM     20  H   UNL     1     -38.232  22.255   3.175  0.00  0.00    +0.150 HD
BRANCH  18  21
ATOM     21  CA  UNL     1     -37.341  21.622   1.379  0.00  0.00    +0.200 C 
BRANCH  21  23
ATOM     22  OXT UNL     1     -35.178  21.000   2.232  0.00  0.00    -0.248 OA
ATOM     23  C   UNL     1     -36.364  20.729   2.100  0.00  0.00    +0.334 C 
BRANCH  23  24
ATOM     24  O   UNL     1     -36.924  19.597   2.587  0.00  0.00    -0.479 OA
ATOM     25  H   UNL     1     -36.394  18.966   3.032  0.00  0.00    +0.295 HD
ENDBRANCH  23  24
ENDBRANCH  21  23
ENDBRANCH  18  21
ENDBRANCH   1  19
BRANCH   1  26
ATOM     26  CB  UNL     1     -39.683  25.925   2.510  0.00  0.00    +0.094 C 
BRANCH  26  27
ATOM     27  SG  UNL     1     -41.495  25.888   2.306  0.00  0.00    -0.068 S 
BRANCH  27  29
ATOM     28  O   UNL     1     -41.622  28.477   1.607  0.00  0.00    -0.277 OA
ATOM     29  C   UNL     1     -41.826  27.579   2.394  0.00  0.00    +0.256 C 
BRANCH  29  31
ATOM     30  O   UNL     1     -41.939  28.592   4.498  0.00  0.00    -0.287 OA
ATOM     31  C   UNL     1     -42.434  27.763   3.749  0.00  0.00    +0.218 C 
ATOM     32  C   UNL     1     -43.670  26.966   4.044  0.00  0.00    +0.081 C 
ENDBRANCH  29  31
ENDBRANCH  27  29
ENDBRANCH  26  27
ENDBRANCH   1  26
TORSDOF 15
ENDMDL
MODEL 6
REMARK VINA RESULT:      -5.2      1.469      1.746
REMARK  Name = 20841753
REMARK  15 active torsions:
REMARK  status: ('A' for Active; 'I' for Inactive)
REMARK    1  A    between atoms: CA_1  and  N_3
REMARK    2  A    between atoms: CA_1  and  C_19
REMARK    3  A    between atoms: CA_1  and  CB_26
REMARK    4  A    between atoms: C_4  and  C_6
REMARK    5  A    between atoms: C_6  and  C_7
REMARK    6  A    between atoms: C_7  and  CA_8
REMARK    7  A    between atoms: CA_8  and  N_9
REMARK    8  A    between atoms: CA_8  and  C_14
REMARK    9  A    between atoms: C_14  and  O_15
REMARK   10  A    between atoms: N_18  and  CA_21
REMARK   11  A    between atoms: CA_21  and  C_23
REMARK   12  A    between atoms: C_23  and  O_24
REMARK   13  A    between atoms: CB_26  and  SG_27
REMARK   14  A    between atoms: SG_27  and  C_29
REMARK   15  A    between atoms: C_29  and  C_31
REMARK                            x       y       z     vdW  Elec       q    Type
REMARK                         _______ _______ _______ _____ _____    ______ ____
ROOT
ATOM      1  CA  UNL     1     -36.379  22.240   2.510  0.00  0.00    +0.160 C 
ENDROOT
BRANCH   1   3
ATOM      2  O   UNL     1     -35.421  21.525   5.136  0.00  0.00    -0.275 OA
ATOM      3  N   UNL     1     -35.917  23.139   3.541  0.00  0.00    -0.298 N 
ATOM      4  C   UNL     1     -35.473  22.698   4.779  0.00  0.00    +0.223 C 
ATOM      5  H   UNL     1     -35.916  24.106   3.357  0.00  0.00    +0.150 HD
BRANCH   4   6
ATOM      6  C   UNL     1     -35.056  23.858   5.668  0.00  0.00    +0.083 C 
BRANCH   6   7
ATOM      7  C   UNL     1     -34.293  24.938   4.899  0.00  0.00    -0.001 C 
BRANCH   7   8
ATOM      8  CA  UNL     1     -34.938  26.324   5.022  0.00  0.00    +0.036 C 
BRANCH   8   9
ATOM      9  N   UNL     1     -36.262  26.194   5.634  0.00  0.00    +0.389 N 
ATOM     10  H1  UNL     1     -36.639  27.122   5.829  0.00  0.00    -0.088 HD
ATOM     11  H2  UNL     1     -36.184  25.668   6.504  0.00  0.00    -0.088 HD
ATOM     12  H3  UNL     1     -36.885  25.702   4.994  0.00  0.00    -0.088 HD
ENDBRANCH   8   9
BRANCH   8  14
ATOM     13  OXT UNL     1     -34.851  28.107   3.363  0.00  0.00    -0.253 OA
ATOM     14  C   UNL     1     -35.149  26.956   3.658  0.00  0.00    +0.293 C 
BRANCH  14  15
ATOM     15  O   UNL     1     -35.740  26.104   2.781  0.00  0.00    -0.482 OA
ATOM     16  H   UNL     1     -35.916  26.381   1.904  0.00  0.00    +0.295 HD
ENDBRANCH  14  15
ENDBRANCH   8  14
ENDBRANCH   7   8
ENDBRANCH   6   7
ENDBRANCH   4   6
ENDBRANCH   1   3
BRANCH   1  19
ATOM     17  O   UNL     1     -34.442  22.230   1.049  0.00  0.00    -0.273 OA
ATOM     18  N   UNL     1     -35.012  20.273   2.156  0.00  0.00    -0.294 N 
ATOM     19  C   ACE A   1     -35.169  21.610   1.822  0.00  0.00    +0.242 C 
ATOM     20  H   UNL     1     -35.649  19.866   2.787  0.00  0.00    +0.150 HD
BRANCH  18  21
ATOM     21  CA  UNL     1     -33.954  19.453   1.613  0.00  0.00    +0.200 C 
BRANCH  21  23
ATOM     22  OXT UNL     1     -33.697  18.925  -0.721  0.00  0.00    -0.248 OA
ATOM     23  C   UNL     1     -34.333  18.787   0.316  0.00  0.00    +0.334 C 
BRANCH  23  24
ATOM     24  O   UNL     1     -35.446  18.022   0.406  0.00  0.00    -0.479 OA
ATOM     25  H   UNL     1     -35.389  17.095   0.278  0.00  0.00    +0.295 HD
ENDBRANCH  23  24
ENDBRANCH  21  23
ENDBRANCH  18  21
ENDBRANCH   1  19
BRANCH   1  26
ATOM     26  CB  UNL     1     -37.345  22.918   1.535  0.00  0.00    +0.094 C 
BRANCH  26  27
ATOM     27  SG  UNL     1     -39.062  23.003   2.141  0.00  0.00    -0.068 S 
BRANCH  27  29
ATOM     28  O   UNL     1     -38.251  24.831   3.931  0.00  0.00    -0.277 OA
ATOM     29  C   UNL     1     -38.979  24.479   3.028  0.00  0.00    +0.256 C 
BRANCH  29  31
ATOM     30  O   UNL     1     -40.156  26.485   2.793  0.00  0.00    -0.287 OA
ATOM     31  C   UNL     1     -40.084  25.312   2.459  0.00  0.00    +0.218 C 
ATOM     32  C   UNL     1     -40.970  24.649   1.446  0.00  0.00    +0.081 C 
ENDBRANCH  29  31
ENDBRANCH  27  29
ENDBRANCH  26  27
ENDBRANCH   1  26
TORSDOF 15
ENDMDL
MODEL 7
REMARK VINA RESULT:      -5.2      3.037      6.075
REMARK  Name = 20841753
REMARK  15 active torsions:
REMARK  status: ('A' for Active; 'I' for Inactive)
REMARK    1  A    between atoms: CA_1  and  N_3
REMARK    2  A    between atoms: CA_1  and  C_19
REMARK    3  A    between atoms: CA_1  and  CB_26
REMARK    4  A    between atoms: C_4  and  C_6
REMARK    5  A    between atoms: C_6  and  C_7
REMARK    6  A    between atoms: C_7  and  CA_8
REMARK    7  A    between atoms: CA_8  and  N_9
REMARK    8  A    between atoms: CA_8  and  C_14
REMARK    9  A    between atoms: C_14  and  O_15
REMARK   10  A    between atoms: N_18  and  CA_21
REMARK   11  A    between atoms: CA_21  and  C_23
REMARK   12  A    between atoms: C_23  and  O_24
REMARK   13  A    between atoms: CB_26  and  SG_27
REMARK   14  A    between atoms: SG_27  and  C_29
REMARK   15  A    between atoms: C_29  and  C_31
REMARK                            x       y       z     vdW  Elec       q    Type
REMARK                         _______ _______ _______ _____ _____    ______ ____
ROOT
ATOM      1  CA  UNL     1     -36.256  25.270   1.999  0.00  0.00    +0.160 C 
ENDROOT
BRANCH   1   3
ATOM      2  O   UNL     1     -38.675  26.816   1.707  0.00  0.00    -0.275 OA
ATOM      3  N   UNL     1     -37.570  24.931   2.495  0.00  0.00    -0.298 N 
ATOM      4  C   UNL     1     -38.678  25.743   2.304  0.00  0.00    +0.223 C 
ATOM      5  H   UNL     1     -37.683  24.088   2.990  0.00  0.00    +0.150 HD
BRANCH   4   6
ATOM      6  C   UNL     1     -39.923  25.146   2.938  0.00  0.00    +0.083 C 
BRANCH   6   7
ATOM      7  C   UNL     1     -40.978  26.206   3.264  0.00  0.00    -0.001 C 
BRANCH   7   8
ATOM      8  CA  UNL     1     -42.197  26.137   2.337  0.00  0.00    +0.036 C 
BRANCH   8   9
ATOM      9  N   UNL     1     -41.986  25.094   1.329  0.00  0.00    +0.389 N 
ATOM     10  H1  UNL     1     -42.803  25.041   0.720  0.00  0.00    -0.088 HD
ATOM     11  H2  UNL     1     -41.848  24.197   1.793  0.00  0.00    -0.088 HD
ATOM     12  H3  UNL     1     -41.162  25.321   0.773  0.00  0.00    -0.088 HD
ENDBRANCH   8   9
BRANCH   8  14
ATOM     13  OXT UNL     1     -43.473  27.921   1.274  0.00  0.00    -0.253 OA
ATOM     14  C   UNL     1     -42.389  27.439   1.581  0.00  0.00    +0.293 C 
BRANCH  14  15
ATOM     15  O   UNL     1     -41.208  28.020   1.247  0.00  0.00    -0.482 OA
ATOM     16  H   UNL     1     -41.190  28.725   0.631  0.00  0.00    +0.295 HD
ENDBRANCH  14  15
ENDBRANCH   8  14
ENDBRANCH   7   8
ENDBRANCH   6   7
ENDBRANCH   4   6
ENDBRANCH   1   3
BRANCH   1  19
ATOM     17  O   UNL     1     -34.449  23.996   1.002  0.00  0.00    -0.273 OA
ATOM     18  N   UNL     1     -36.343  22.867   1.719  0.00  0.00    -0.294 N 
ATOM     19  C   ACE A   1     -35.563  23.996   1.521  0.00  0.00    +0.242 C 
ATOM     20  H   UNL     1     -37.225  22.971   2.145  0.00  0.00    +0.150 HD
BRANCH  18  21
ATOM     21  CA  UNL     1     -35.915  21.545   1.326  0.00  0.00    +0.200 C 
BRANCH  21  23
ATOM     22  OXT UNL     1     -35.012  20.489   3.292  0.00  0.00    -0.248 OA
ATOM     23  C   UNL     1     -35.916  20.563   2.470  0.00  0.00    +0.334 C 
BRANCH  23  24
ATOM     24  O   UNL     1     -37.013  19.771   2.502  0.00  0.00    -0.479 OA
ATOM     25  H   UNL     1     -37.560  19.698   1.745  0.00  0.00    +0.295 HD
ENDBRANCH  23  24
ENDBRANCH  21  23
ENDBRANCH  18  21
ENDBRANCH   1  19
BRANCH   1  26
ATOM     26  CB  UNL     1     -35.434  26.061   3.021  0.00  0.00    +0.094 C 
BRANCH  26  27
ATOM     27  SG  UNL     1     -35.871  25.699   4.753  0.00  0.00    -0.068 S 
BRANCH  27  29
ATOM     28  O   UNL     1     -33.563  24.359   5.040  0.00  0.00    -0.277 OA
ATOM     29  C   UNL     1     -34.774  24.404   5.060  0.00  0.00    +0.256 C 
BRANCH  29  31
ATOM     30  O   UNL     1     -36.686  23.109   4.697  0.00  0.00    -0.287 OA
ATOM     31  C   UNL     1     -35.660  23.234   5.349  0.00  0.00    +0.218 C 
ATOM     32  C   UNL     1     -35.163  22.252   6.368  0.00  0.00    +0.081 C 
ENDBRANCH  29  31
ENDBRANCH  27  29
ENDBRANCH  26  27
ENDBRANCH   1  26
TORSDOF 15
ENDMDL
MODEL 8
REMARK VINA RESULT:      -5.2      2.670      6.461
REMARK  Name = 20841753
REMARK  15 active torsions:
REMARK  status: ('A' for Active; 'I' for Inactive)
REMARK    1  A    between atoms: CA_1  and  N_3
REMARK    2  A    between atoms: CA_1  and  C_19
REMARK    3  A    between atoms: CA_1  and  CB_26
REMARK    4  A    between atoms: C_4  and  C_6
REMARK    5  A    between atoms: C_6  and  C_7
REMARK    6  A    between atoms: C_7  and  CA_8
REMARK    7  A    between atoms: CA_8  and  N_9
REMARK    8  A    between atoms: CA_8  and  C_14
REMARK    9  A    between atoms: C_14  and  O_15
REMARK   10  A    between atoms: N_18  and  CA_21
REMARK   11  A    between atoms: CA_21  and  C_23
REMARK   12  A    between atoms: C_23  and  O_24
REMARK   13  A    between atoms: CB_26  and  SG_27
REMARK   14  A    between atoms: SG_27  and  C_29
REMARK   15  A    between atoms: C_29  and  C_31
REMARK                            x       y       z     vdW  Elec       q    Type
REMARK                         _______ _______ _______ _____ _____    ______ ____
ROOT
ATOM      1  CA  UNL     1     -34.830  25.826   3.141  0.00  0.00    +0.160 C 
ENDROOT
BRANCH   1   3
ATOM      2  O   UNL     1     -33.542  24.724   0.806  0.00  0.00    -0.275 OA
ATOM      3  N   UNL     1     -35.083  24.540   2.535  0.00  0.00    -0.298 N 
ATOM      4  C   UNL     1     -34.409  24.095   1.407  0.00  0.00    +0.223 C 
ATOM      5  H   UNL     1     -35.762  23.954   2.940  0.00  0.00    +0.150 HD
BRANCH   4   6
ATOM      6  C   UNL     1     -34.881  22.715   0.982  0.00  0.00    +0.083 C 
BRANCH   6   7
ATOM      7  C   UNL     1     -36.369  22.495   1.264  0.00  0.00    -0.001 C 
BRANCH   7   8
ATOM      8  CA  UNL     1     -36.638  21.233   2.092  0.00  0.00    +0.036 C 
BRANCH   8   9
ATOM      9  N   UNL     1     -38.078  21.098   2.324  0.00  0.00    +0.389 N 
ATOM     10  H1  UNL     1     -38.286  20.145   2.621  0.00  0.00    -0.088 HD
ATOM     11  H2  UNL     1     -38.582  21.304   1.462  0.00  0.00    -0.088 HD
ATOM     12  H3  UNL     1     -38.367  21.752   3.052  0.00  0.00    -0.088 HD
ENDBRANCH   8   9
BRANCH   8  14
ATOM     13  OXT UNL     1     -35.128  20.554   3.880  0.00  0.00    -0.253 OA
ATOM     14  C   UNL     1     -35.983  21.322   3.459  0.00  0.00    +0.293 C 
BRANCH  14  15
ATOM     15  O   UNL     1     -36.472  22.351   4.198  0.00  0.00    -0.482 OA
ATOM     16  H   UNL     1     -36.299  22.391   5.117  0.00  0.00    +0.295 HD
ENDBRANCH  14  15
ENDBRANCH   8  14
ENDBRANCH   7   8
ENDBRANCH   6   7
ENDBRANCH   4   6
ENDBRANCH   1   3
BRANCH   1  19
ATOM     17  O   UNL     1     -33.624  24.519   4.791  0.00  0.00    -0.273 OA
ATOM     18  N   UNL     1     -33.867  26.800   5.138  0.00  0.00    -0.294 N 
ATOM     19  C   ACE A   1     -34.037  25.619   4.430  0.00  0.00    +0.242 C 
ATOM     20  H   UNL     1     -34.236  27.633   4.763  0.00  0.00    +0.150 HD
BRANCH  18  21
ATOM     21  CA  UNL     1     -33.171  26.857   6.402  0.00  0.00    +0.200 C 
BRANCH  21  23
ATOM     22  OXT UNL     1     -32.302  29.092   6.196  0.00  0.00    -0.248 OA
ATOM     23  C   UNL     1     -32.092  27.909   6.431  0.00  0.00    +0.334 C 
BRANCH  23  24
ATOM     24  O   UNL     1     -30.868  27.421   6.741  0.00  0.00    -0.479 OA
ATOM     25  H   UNL     1     -30.579  26.611   6.369  0.00  0.00    +0.295 HD
ENDBRANCH  23  24
ENDBRANCH  21  23
ENDBRANCH  18  21
ENDBRANCH   1  19
BRANCH   1  26
ATOM     26  CB  UNL     1     -36.112  26.638   3.342  0.00  0.00    +0.094 C 
BRANCH  26  27
ATOM     27  SG  UNL     1     -37.360  26.374   2.040  0.00  0.00    -0.068 S 
BRANCH  27  29
ATOM     28  O   UNL     1     -38.192  24.442   3.708  0.00  0.00    -0.277 OA
ATOM     29  C   UNL     1     -38.414  25.290   2.871  0.00  0.00    +0.256 C 
BRANCH  29  31
ATOM     30  O   UNL     1     -40.116  26.754   2.219  0.00  0.00    -0.287 OA
ATOM     31  C   UNL     1     -39.766  25.585   2.304  0.00  0.00    +0.218 C 
ATOM     32  C   UNL     1     -40.553  24.412   1.800  0.00  0.00    +0.081 C 
ENDBRANCH  29  31
ENDBRANCH  27  29
ENDBRANCH  26  27
ENDBRANCH   1  26
TORSDOF 15
ENDMDL
MODEL 9
REMARK VINA RESULT:      -5.2      2.247      3.615
REMARK  Name = 20841753
REMARK  15 active torsions:
REMARK  status: ('A' for Active; 'I' for Inactive)
REMARK    1  A    between atoms: CA_1  and  N_3
REMARK    2  A    between atoms: CA_1  and  C_19
REMARK    3  A    between atoms: CA_1  and  CB_26
REMARK    4  A    between atoms: C_4  and  C_6
REMARK    5  A    between atoms: C_6  and  C_7
REMARK    6  A    between atoms: C_7  and  CA_8
REMARK    7  A    between atoms: CA_8  and  N_9
REMARK    8  A    between atoms: CA_8  and  C_14
REMARK    9  A    between atoms: C_14  and  O_15
REMARK   10  A    between atoms: N_18  and  CA_21
REMARK   11  A    between atoms: CA_21  and  C_23
REMARK   12  A    between atoms: C_23  and  O_24
REMARK   13  A    between atoms: CB_26  and  SG_27
REMARK   14  A    between atoms: SG_27  and  C_29
REMARK   15  A    between atoms: C_29  and  C_31
REMARK                            x       y       z     vdW  Elec       q    Type
REMARK                         _______ _______ _______ _____ _____    ______ ____
ROOT
ATOM      1  CA  UNL     1     -35.808  22.457   1.957  0.00  0.00    +0.160 C 
ENDROOT
BRANCH   1   3
ATOM      2  O   UNL     1     -35.321  21.175   4.496  0.00  0.00    -0.275 OA
ATOM      3  N   UNL     1     -35.717  23.095   3.250  0.00  0.00    -0.298 N 
ATOM      4  C   UNL     1     -35.479  22.391   4.421  0.00  0.00    +0.223 C 
ATOM      5  H   UNL     1     -35.828  24.072   3.301  0.00  0.00    +0.150 HD
BRANCH   4   6
ATOM      6  C   UNL     1     -35.442  23.311   5.629  0.00  0.00    +0.083 C 
BRANCH   6   7
ATOM      7  C   UNL     1     -34.479  24.486   5.439  0.00  0.00    -0.001 C 
BRANCH   7   8
ATOM      8  CA  UNL     1     -35.183  25.847   5.491  0.00  0.00    +0.036 C 
BRANCH   8   9
ATOM      9  N   UNL     1     -36.625  25.645   5.660  0.00  0.00    +0.389 N 
ATOM     10  H1  UNL     1     -37.125  26.141   4.922  0.00  0.00    -0.088 HD
ATOM     11  H2  UNL     1     -36.914  26.005   6.569  0.00  0.00    -0.088 HD
ATOM     12  H3  UNL     1     -36.837  24.649   5.605  0.00  0.00    -0.088 HD
ENDBRANCH   8   9
BRANCH   8  14
ATOM     13  OXT UNL     1     -34.368  27.653   4.073  0.00  0.00    -0.253 OA
ATOM     14  C   UNL     1     -35.000  26.611   4.192  0.00  0.00    +0.293 C 
BRANCH  14  15
ATOM     15  O   UNL     1     -35.646  26.022   3.153  0.00  0.00    -0.482 OA
ATOM     16  H   UNL     1     -35.584  26.391   2.294  0.00  0.00    +0.295 HD
ENDBRANCH  14  15
ENDBRANCH   8  14
ENDBRANCH   7   8
ENDBRANCH   6   7
ENDBRANCH   4   6
ENDBRANCH   1   3
BRANCH   1  19
ATOM     17  O   UNL     1     -34.064  22.125   0.304  0.00  0.00    -0.273 OA
ATOM     18  N   UNL     1     -34.200  24.173   1.383  0.00  0.00    -0.294 N 
ATOM     19  C   ACE A   1     -34.607  22.875   1.112  0.00  0.00    +0.242 C 
ATOM     20  H   UNL     1     -34.702  24.696   2.049  0.00  0.00    +0.150 HD
BRANCH  18  21
ATOM     21  CA  UNL     1     -33.069  24.789   0.728  0.00  0.00    +0.200 C 
BRANCH  21  23
ATOM     22  OXT UNL     1     -31.444  25.749   2.222  0.00  0.00    -0.248 OA
ATOM     23  C   UNL     1     -32.451  25.897   1.542  0.00  0.00    +0.334 C 
BRANCH  23  24
ATOM     24  O   UNL     1     -33.117  27.072   1.449  0.00  0.00    -0.479 OA
ATOM     25  H   UNL     1     -33.994  27.140   1.769  0.00  0.00    +0.295 HD
ENDBRANCH  23  24
ENDBRANCH  21  23
ENDBRANCH  18  21
ENDBRANCH   1  19
BRANCH   1  26
ATOM     26  CB  UNL     1     -37.152  22.718   1.272  0.00  0.00    +0.094 C 
BRANCH  26  27
ATOM     27  SG  UNL     1     -38.590  22.139   2.230  0.00  0.00    -0.068 S 
BRANCH  27  29
ATOM     28  O   UNL     1     -40.696  23.584   1.403  0.00  0.00    -0.277 OA
ATOM     29  C   UNL     1     -39.646  23.483   2.000  0.00  0.00    +0.256 C 
BRANCH  29  31
ATOM     30  O   UNL     1     -38.380  24.375   3.752  0.00  0.00    -0.287 OA
ATOM     31  C   UNL     1     -38.960  24.613   2.702  0.00  0.00    +0.218 C 
ATOM     32  C   UNL     1     -38.971  25.941   2.006  0.00  0.00    +0.081 C 
ENDBRANCH  29  31
ENDBRANCH  27  29
ENDBRANCH  26  27
ENDBRANCH   1  26
TORSDOF 15
ENDMDL
