MODEL 1
REMARK VINA RESULT:      -7.5      0.000      0.000
REMARK  Name = 58298316
REMARK  5 active torsions:
REMARK  status: ('A' for Active; 'I' for Inactive)
REMARK    1  A    between atoms: N_2  and  C_24
REMARK    2  A    between atoms: C_10  and  C_14
REMARK    3  A    between atoms: C_16  and  C_19
REMARK    4  A    between atoms: C_19  and  O_22
REMARK    5  A    between atoms: C_27  and  O_30
REMARK                            x       y       z     vdW  Elec       q    Type
REMARK                         _______ _______ _______ _____ _____    ______ ____
ROOT
ATOM      1  O   UNL     1     -38.076  23.698   3.263  0.00  0.00    -0.273 OA
ATOM      2  N   UNL     1     -36.432  22.247   2.497  0.00  0.00    -0.232 N 
ATOM      3  N   UNL     1     -38.418  20.904   1.098  0.00  0.00    -0.308 N 
ATOM      4  N   UNL     1     -34.812  20.695   1.623  0.00  0.00    -0.386 NA
ATOM      5  N   UNL     1     -36.828  19.398   0.214  0.00  0.00    -0.245 NA
ATOM      6  C   UNL     1     -36.103  21.101   1.715  0.00  0.00    +0.220 C 
ATOM      7  C   UNL     1     -37.749  22.658   2.685  0.00  0.00    +0.251 C 
ATOM      8  C   UNL     1     -38.821  21.692   2.234  0.00  0.00    +0.175 C 
ATOM      9  C   UNL     1     -37.114  20.453   1.017  0.00  0.00    +0.170 C 
ATOM     10  C   UNL     1     -34.552  19.638   0.833  0.00  0.00    +0.137 C 
ATOM     11  C   UNL     1     -35.545  19.000   0.139  0.00  0.00    +0.186 C 
ATOM     12  H   UNL     1     -39.064  20.689   0.388  0.00  0.00    +0.149 HD
ENDROOT
BRANCH  10  14
ATOM     13  N   UNL     1     -31.471  17.606   1.332  0.00  0.00    -0.246 NA
ATOM     14  C   UNL     1     -33.173  19.225   0.763  0.00  0.00    +0.047 C 
ATOM     15  C   UNL     1     -32.230  19.992   0.089  0.00  0.00    +0.005 C 
ATOM     16  C   UNL     1     -30.581  18.378   0.669  0.00  0.00    +0.083 C 
ATOM     17  C   UNL     1     -32.747  18.051   1.361  0.00  0.00    +0.101 C 
ATOM     18  C   UNL     1     -30.906  19.568   0.037  0.00  0.00    +0.017 C 
BRANCH  16  19
ATOM     19  C   UNL     1     -29.170  17.892   0.634  0.00  0.00    +0.123 C 
ATOM     20  C   UNL     1     -29.020  16.595  -0.196  0.00  0.00    +0.035 C 
ATOM     21  C   UNL     1     -28.198  18.964   0.088  0.00  0.00    +0.035 C 
BRANCH  19  22
ATOM     22  O   UNL     1     -28.686  17.565   1.956  0.00  0.00    -0.381 OA
ATOM     23  H   UNL     1     -27.745  17.793   2.022  0.00  0.00    +0.211 HD
ENDBRANCH  19  22
ENDBRANCH  16  19
ENDBRANCH  10  14
BRANCH   2  24
ATOM     24  C   UNL     1     -35.339  23.003   3.060  0.00  0.00    +0.082 C 
ATOM     25  C   UNL     1     -35.509  23.143   4.576  0.00  0.00    +0.023 C 
ATOM     26  C   UNL     1     -35.220  24.370   2.382  0.00  0.00    +0.023 C 
ATOM     27  C   UNL     1     -34.279  25.349   4.512  0.00  0.00    +0.115 C 
ATOM     28  C   UNL     1     -34.396  23.984   5.190  0.00  0.00    +0.031 C 
ATOM     29  C   UNL     1     -34.105  25.208   3.001  0.00  0.00    +0.031 C 
BRANCH  27  30
ATOM     30  O   UNL     1     -33.156  26.049   5.036  0.00  0.00    -0.354 OA
ATOM     31  C   UNL     1     -33.432  26.587   6.321  0.00  0.00    +0.174 C 
ENDBRANCH  27  30
ENDBRANCH   2  24
TORSDOF 5
ENDMDL
MODEL 2
REMARK VINA RESULT:      -7.1      1.282      1.416
REMARK  Name = 58298316
REMARK  5 active torsions:
REMARK  status: ('A' for Active; 'I' for Inactive)
REMARK    1  A    between atoms: N_2  and  C_24
REMARK    2  A    between atoms: C_10  and  C_14
REMARK    3  A    between atoms: C_16  and  C_19
REMARK    4  A    between atoms: C_19  and  O_22
REMARK    5  A    between atoms: C_27  and  O_30
REMARK                            x       y       z     vdW  Elec       q    Type
REMARK                         _______ _______ _______ _____ _____    ______ ____
ROOT
ATOM      1  O   UNL     1     -38.576  23.590   3.006  0.00  0.00    -0.273 OA
ATOM      2  N   UNL     1     -37.116  21.969   2.208  0.00  0.00    -0.232 N 
ATOM      3  N   UNL     1     -39.242  20.913   0.770  0.00  0.00    -0.308 N 
ATOM      4  N   UNL     1     -35.691  20.254   1.299  0.00  0.00    -0.386 NA
ATOM      5  N   UNL     1     -37.841  19.248  -0.148  0.00  0.00    -0.245 NA
ATOM      6  C   UNL     1     -36.923  20.812   1.398  0.00  0.00    +0.220 C 
ATOM      7  C   UNL     1     -38.375  22.533   2.402  0.00  0.00    +0.251 C 
ATOM      8  C   UNL     1     -39.552  21.715   1.924  0.00  0.00    +0.175 C 
ATOM      9  C   UNL     1     -38.001  20.309   0.681  0.00  0.00    +0.170 C 
ATOM     10  C   UNL     1     -35.556  19.194   0.484  0.00  0.00    +0.137 C 
ATOM     11  C   UNL     1     -36.615  18.699  -0.230  0.00  0.00    +0.186 C 
ATOM     12  H   UNL     1     -39.905  20.796   0.052  0.00  0.00    +0.149 HD
ENDROOT
BRANCH  10  14
ATOM     13  N   UNL     1     -32.665  17.209  -0.771  0.00  0.00    -0.246 NA
ATOM     14  C   UNL     1     -34.237  18.619   0.407  0.00  0.00    +0.047 C 
ATOM     15  C   UNL     1     -33.280  18.888   1.378  0.00  0.00    +0.005 C 
ATOM     16  C   UNL     1     -31.761  17.494   0.192  0.00  0.00    +0.083 C 
ATOM     17  C   UNL     1     -33.883  17.781  -0.638  0.00  0.00    +0.101 C 
ATOM     18  C   UNL     1     -32.016  18.319   1.276  0.00  0.00    +0.017 C 
BRANCH  16  19
ATOM     19  C   UNL     1     -30.414  16.865   0.052  0.00  0.00    +0.123 C 
ATOM     20  C   UNL     1     -29.852  17.006  -1.383  0.00  0.00    +0.035 C 
ATOM     21  C   UNL     1     -29.394  17.441   1.061  0.00  0.00    +0.035 C 
BRANCH  19  22
ATOM     22  O   UNL     1     -30.460  15.444   0.314  0.00  0.00    -0.381 OA
ATOM     23  H   UNL     1     -29.712  15.195   0.878  0.00  0.00    +0.211 HD
ENDBRANCH  19  22
ENDBRANCH  16  19
ENDBRANCH  10  14
BRANCH   2  24
ATOM     24  C   UNL     1     -35.942  22.573   2.794  0.00  0.00    +0.082 C 
ATOM     25  C   UNL     1     -36.098  22.682   4.313  0.00  0.00    +0.023 C 
ATOM     26  C   UNL     1     -35.662  23.938   2.161  0.00  0.00    +0.023 C 
ATOM     27  C   UNL     1     -34.617  24.728   4.320  0.00  0.00    +0.115 C 
ATOM     28  C   UNL     1     -34.894  23.365   4.952  0.00  0.00    +0.031 C 
ATOM     29  C   UNL     1     -34.458  24.618   2.805  0.00  0.00    +0.031 C 
BRANCH  27  30
ATOM     30  O   UNL     1     -33.420  25.274   4.864  0.00  0.00    -0.354 OA
ATOM     31  C   UNL     1     -33.695  26.351   5.749  0.00  0.00    +0.174 C 
ENDBRANCH  27  30
ENDBRANCH   2  24
TORSDOF 5
ENDMDL
MODEL 3
REMARK VINA RESULT:      -7.0      5.748      9.018
REMARK  Name = 58298316
REMARK  5 active torsions:
REMARK  status: ('A' for Active; 'I' for Inactive)
REMARK    1  A    between atoms: N_2  and  C_24
REMARK    2  A    between atoms: C_10  and  C_14
REMARK    3  A    between atoms: C_16  and  C_19
REMARK    4  A    between atoms: C_19  and  O_22
REMARK    5  A    between atoms: C_27  and  O_30
REMARK                            x       y       z     vdW  Elec       q    Type
REMARK                         _______ _______ _______ _____ _____    ______ ____
ROOT
ATOM      1  O   UNL     1     -37.417  26.460   1.700  0.00  0.00    -0.273 OA
ATOM      2  N   UNL     1     -35.514  27.327   2.710  0.00  0.00    -0.232 N 
ATOM      3  N   UNL     1     -36.252  29.814   1.722  0.00  0.00    -0.308 N 
ATOM      4  N   UNL     1     -33.584  28.342   3.731  0.00  0.00    -0.386 NA
ATOM      5  N   UNL     1     -34.378  30.819   2.748  0.00  0.00    -0.245 NA
ATOM      6  C   UNL     1     -34.698  28.468   2.968  0.00  0.00    +0.220 C 
ATOM      7  C   UNL     1     -36.624  27.389   1.871  0.00  0.00    +0.251 C 
ATOM      8  C   UNL     1     -36.772  28.651   1.052  0.00  0.00    +0.175 C 
ATOM      9  C   UNL     1     -35.095  29.702   2.470  0.00  0.00    +0.170 C 
ATOM     10  C   UNL     1     -32.879  29.458   3.983  0.00  0.00    +0.137 C 
ATOM     11  C   UNL     1     -33.270  30.678   3.500  0.00  0.00    +0.186 C 
ATOM     12  H   UNL     1     -36.716  30.679   1.649  0.00  0.00    +0.149 HD
ENDROOT
BRANCH  10  14
ATOM     13  N   UNL     1     -30.442  27.952   6.364  0.00  0.00    -0.246 NA
ATOM     14  C   UNL     1     -31.696  29.291   4.790  0.00  0.00    +0.047 C 
ATOM     15  C   UNL     1     -30.690  30.250   4.792  0.00  0.00    +0.005 C 
ATOM     16  C   UNL     1     -29.485  28.906   6.341  0.00  0.00    +0.083 C 
ATOM     17  C   UNL     1     -31.526  28.171   5.586  0.00  0.00    +0.101 C 
ATOM     18  C   UNL     1     -29.560  30.062   5.581  0.00  0.00    +0.017 C 
BRANCH  16  19
ATOM     19  C   UNL     1     -28.287  28.671   7.200  0.00  0.00    +0.123 C 
ATOM     20  C   UNL     1     -27.865  27.182   7.217  0.00  0.00    +0.035 C 
ATOM     21  C   UNL     1     -27.082  29.540   6.770  0.00  0.00    +0.035 C 
BRANCH  19  22
ATOM     22  O   UNL     1     -28.544  29.018   8.580  0.00  0.00    -0.381 OA
ATOM     23  H   UNL     1     -29.378  29.509   8.640  0.00  0.00    +0.211 HD
ENDBRANCH  19  22
ENDBRANCH  16  19
ENDBRANCH  10  14
BRANCH   2  24
ATOM     24  C   UNL     1     -35.175  26.100   3.390  0.00  0.00    +0.082 C 
ATOM     25  C   UNL     1     -35.127  24.934   2.399  0.00  0.00    +0.023 C 
ATOM     26  C   UNL     1     -36.156  25.824   4.531  0.00  0.00    +0.023 C 
ATOM     27  C   UNL     1     -35.804  23.340   4.238  0.00  0.00    +0.115 C 
ATOM     28  C   UNL     1     -34.823  23.614   3.099  0.00  0.00    +0.031 C 
ATOM     29  C   UNL     1     -35.848  24.502   5.228  0.00  0.00    +0.031 C 
BRANCH  27  30
ATOM     30  O   UNL     1     -35.412  22.162   4.935  0.00  0.00    -0.354 OA
ATOM     31  C   UNL     1     -35.411  22.366   6.340  0.00  0.00    +0.174 C 
ENDBRANCH  27  30
ENDBRANCH   2  24
TORSDOF 5
ENDMDL
MODEL 4
REMARK VINA RESULT:      -6.9      3.888      8.984
REMARK  Name = 58298316
REMARK  5 active torsions:
REMARK  status: ('A' for Active; 'I' for Inactive)
REMARK    1  A    between atoms: N_2  and  C_24
REMARK    2  A    between atoms: C_10  and  C_14
REMARK    3  A    between atoms: C_16  and  C_19
REMARK    4  A    between atoms: C_19  and  O_22
REMARK    5  A    between atoms: C_27  and  O_30
REMARK                            x       y       z     vdW  Elec       q    Type
REMARK                         _______ _______ _______ _____ _____    ______ ____
ROOT
ATOM      1  O   UNL     1     -34.801  20.607   2.758  0.00  0.00    -0.273 OA
ATOM      2  N   UNL     1     -36.678  21.939   2.447  0.00  0.00    -0.232 N 
ATOM      3  N   UNL     1     -37.781  19.857   0.980  0.00  0.00    -0.308 N 
ATOM      4  N   UNL     1     -38.683  23.220   2.076  0.00  0.00    -0.386 NA
ATOM      5  N   UNL     1     -39.762  21.098   0.640  0.00  0.00    -0.245 NA
ATOM      6  C   UNL     1     -37.974  22.082   1.870  0.00  0.00    +0.220 C 
ATOM      7  C   UNL     1     -35.881  20.824   2.202  0.00  0.00    +0.251 C 
ATOM      8  C   UNL     1     -36.347  19.898   1.103  0.00  0.00    +0.175 C 
ATOM      9  C   UNL     1     -38.507  21.021   1.149  0.00  0.00    +0.170 C 
ATOM     10  C   UNL     1     -39.919  23.281   1.551  0.00  0.00    +0.137 C 
ATOM     11  C   UNL     1     -40.450  22.235   0.844  0.00  0.00    +0.186 C 
ATOM     12  H   UNL     1     -38.239  19.009   0.779  0.00  0.00    +0.149 HD
ENDROOT
BRANCH  10  14
ATOM     13  N   UNL     1     -40.812  26.620   2.939  0.00  0.00    -0.246 NA
ATOM     14  C   UNL     1     -40.643  24.506   1.779  0.00  0.00    +0.047 C 
ATOM     15  C   UNL     1     -41.826  24.775   1.100  0.00  0.00    +0.005 C 
ATOM     16  C   UNL     1     -41.959  26.847   2.261  0.00  0.00    +0.083 C 
ATOM     17  C   UNL     1     -40.183  25.452   2.679  0.00  0.00    +0.101 C 
ATOM     18  C   UNL     1     -42.503  25.965   1.340  0.00  0.00    +0.017 C 
BRANCH  16  19
ATOM     19  C   UNL     1     -42.660  28.134   2.544  0.00  0.00    +0.123 C 
ATOM     20  C   UNL     1     -44.087  28.165   1.946  0.00  0.00    +0.035 C 
ATOM     21  C   UNL     1     -42.733  28.436   4.059  0.00  0.00    +0.035 C 
BRANCH  19  22
ATOM     22  O   UNL     1     -41.968  29.259   1.956  0.00  0.00    -0.381 OA
ATOM     23  H   UNL     1     -41.208  28.940   1.445  0.00  0.00    +0.211 HD
ENDBRANCH  19  22
ENDBRANCH  16  19
ENDBRANCH  10  14
BRANCH   2  24
ATOM     24  C   UNL     1     -36.229  22.982   3.339  0.00  0.00    +0.082 C 
ATOM     25  C   UNL     1     -35.186  23.865   2.648  0.00  0.00    +0.023 C 
ATOM     26  C   UNL     1     -35.684  22.385   4.639  0.00  0.00    +0.023 C 
ATOM     27  C   UNL     1     -34.111  24.346   4.883  0.00  0.00    +0.115 C 
ATOM     28  C   UNL     1     -34.655  24.943   3.587  0.00  0.00    +0.031 C 
ATOM     29  C   UNL     1     -35.153  23.468   5.573  0.00  0.00    +0.031 C 
BRANCH  27  30
ATOM     30  O   UNL     1     -33.736  25.392   5.773  0.00  0.00    -0.354 OA
ATOM     31  C   UNL     1     -33.664  26.642   5.103  0.00  0.00    +0.174 C 
ENDBRANCH  27  30
ENDBRANCH   2  24
TORSDOF 5
ENDMDL
MODEL 5
REMARK VINA RESULT:      -6.6      2.418      7.527
REMARK  Name = 58298316
REMARK  5 active torsions:
REMARK  status: ('A' for Active; 'I' for Inactive)
REMARK    1  A    between atoms: N_2  and  C_24
REMARK    2  A    between atoms: C_10  and  C_14
REMARK    3  A    between atoms: C_16  and  C_19
REMARK    4  A    between atoms: C_19  and  O_22
REMARK    5  A    between atoms: C_27  and  O_30
REMARK                            x       y       z     vdW  Elec       q    Type
REMARK                         _______ _______ _______ _____ _____    ______ ____
ROOT
ATOM      1  O   UNL     1     -37.493  19.875   0.565  0.00  0.00    -0.273 OA
ATOM      2  N   UNL     1     -36.729  21.776   1.659  0.00  0.00    -0.232 N 
ATOM      3  N   UNL     1     -39.380  22.414   2.177  0.00  0.00    -0.308 N 
ATOM      4  N   UNL     1     -36.055  23.765   2.835  0.00  0.00    -0.386 NA
ATOM      5  N   UNL     1     -38.722  24.349   3.359  0.00  0.00    -0.245 NA
ATOM      6  C   UNL     1     -37.049  22.968   2.374  0.00  0.00    +0.220 C 
ATOM      7  C   UNL     1     -37.713  20.965   1.100  0.00  0.00    +0.251 C 
ATOM      8  C   UNL     1     -39.111  21.537   1.067  0.00  0.00    +0.175 C 
ATOM      9  C   UNL     1     -38.383  23.258   2.628  0.00  0.00    +0.170 C 
ATOM     10  C   UNL     1     -36.412  24.850   3.545  0.00  0.00    +0.137 C 
ATOM     11  C   UNL     1     -37.726  25.137   3.803  0.00  0.00    +0.186 C 
ATOM     12  H   UNL     1     -40.264  22.410   2.611  0.00  0.00    +0.149 HD
ENDROOT
BRANCH  10  14
ATOM     13  N   UNL     1     -33.866  27.567   3.641  0.00  0.00    -0.246 NA
ATOM     14  C   UNL     1     -35.333  25.682   4.015  0.00  0.00    +0.047 C 
ATOM     15  C   UNL     1     -34.726  25.443   5.241  0.00  0.00    +0.005 C 
ATOM     16  C   UNL     1     -33.299  27.303   4.839  0.00  0.00    +0.083 C 
ATOM     17  C   UNL     1     -34.872  26.747   3.259  0.00  0.00    +0.101 C 
ATOM     18  C   UNL     1     -33.687  26.264   5.669  0.00  0.00    +0.017 C 
BRANCH  16  19
ATOM     19  C   UNL     1     -32.187  28.204   5.265  0.00  0.00    +0.123 C 
ATOM     20  C   UNL     1     -32.362  29.642   4.722  0.00  0.00    +0.035 C 
ATOM     21  C   UNL     1     -32.034  28.253   6.803  0.00  0.00    +0.035 C 
BRANCH  19  22
ATOM     22  O   UNL     1     -30.911  27.750   4.761  0.00  0.00    -0.381 OA
ATOM     23  H   UNL     1     -30.696  26.889   5.152  0.00  0.00    +0.211 HD
ENDBRANCH  19  22
ENDBRANCH  16  19
ENDBRANCH  10  14
BRANCH   2  24
ATOM     24  C   UNL     1     -35.336  21.409   1.569  0.00  0.00    +0.082 C 
ATOM     25  C   UNL     1     -34.773  21.773   0.193  0.00  0.00    +0.023 C 
ATOM     26  C   UNL     1     -35.147  19.921   1.875  0.00  0.00    +0.023 C 
ATOM     27  C   UNL     1     -33.130  19.861   0.356  0.00  0.00    +0.115 C 
ATOM     28  C   UNL     1     -33.316  21.347   0.052  0.00  0.00    +0.031 C 
ATOM     29  C   UNL     1     -33.687  19.500   1.731  0.00  0.00    +0.031 C 
BRANCH  27  30
ATOM     30  O   UNL     1     -31.744  19.537   0.328  0.00  0.00    -0.354 OA
ATOM     31  C   UNL     1     -31.535  18.137   0.445  0.00  0.00    +0.174 C 
ENDBRANCH  27  30
ENDBRANCH   2  24
TORSDOF 5
ENDMDL
MODEL 6
REMARK VINA RESULT:      -6.5      4.102      7.883
REMARK  Name = 58298316
REMARK  5 active torsions:
REMARK  status: ('A' for Active; 'I' for Inactive)
REMARK    1  A    between atoms: N_2  and  C_24
REMARK    2  A    between atoms: C_10  and  C_14
REMARK    3  A    between atoms: C_16  and  C_19
REMARK    4  A    between atoms: C_19  and  O_22
REMARK    5  A    between atoms: C_27  and  O_30
REMARK                            x       y       z     vdW  Elec       q    Type
REMARK                         _______ _______ _______ _____ _____    ______ ____
ROOT
ATOM      1  O   UNL     1     -36.299  21.946  -0.229  0.00  0.00    -0.273 OA
ATOM      2  N   UNL     1     -35.498  23.350   1.440  0.00  0.00    -0.232 N 
ATOM      3  N   UNL     1     -37.127  21.982   3.224  0.00  0.00    -0.308 N 
ATOM      4  N   UNL     1     -34.725  24.730   3.254  0.00  0.00    -0.386 NA
ATOM      5  N   UNL     1     -36.347  23.314   5.012  0.00  0.00    -0.245 NA
ATOM      6  C   UNL     1     -35.526  23.729   2.814  0.00  0.00    +0.220 C 
ATOM      7  C   UNL     1     -36.356  22.381   0.925  0.00  0.00    +0.251 C 
ATOM      8  C   UNL     1     -37.482  21.937   1.830  0.00  0.00    +0.175 C 
ATOM      9  C   UNL     1     -36.342  23.022   3.688  0.00  0.00    +0.170 C 
ATOM     10  C   UNL     1     -34.755  25.013   4.568  0.00  0.00    +0.137 C 
ATOM     11  C   UNL     1     -35.554  24.315   5.434  0.00  0.00    +0.186 C 
ATOM     12  H   UNL     1     -37.438  21.280   3.840  0.00  0.00    +0.149 HD
ENDROOT
BRANCH  10  14
ATOM     13  N   UNL     1     -32.865  27.295   6.826  0.00  0.00    -0.246 NA
ATOM     14  C   UNL     1     -33.899  26.088   5.004  0.00  0.00    +0.047 C 
ATOM     15  C   UNL     1     -33.289  26.935   4.086  0.00  0.00    +0.005 C 
ATOM     16  C   UNL     1     -32.290  28.098   5.904  0.00  0.00    +0.083 C 
ATOM     17  C   UNL     1     -33.657  26.307   6.350  0.00  0.00    +0.101 C 
ATOM     18  C   UNL     1     -32.468  27.963   4.537  0.00  0.00    +0.017 C 
BRANCH  16  19
ATOM     19  C   UNL     1     -31.415  29.192   6.423  0.00  0.00    +0.123 C 
ATOM     20  C   UNL     1     -29.914  28.893   6.200  0.00  0.00    +0.035 C 
ATOM     21  C   UNL     1     -31.763  30.562   5.797  0.00  0.00    +0.035 C 
BRANCH  19  22
ATOM     22  O   UNL     1     -31.569  29.365   7.850  0.00  0.00    -0.381 OA
ATOM     23  H   UNL     1     -32.242  28.750   8.180  0.00  0.00    +0.211 HD
ENDBRANCH  19  22
ENDBRANCH  16  19
ENDBRANCH  10  14
BRANCH   2  24
ATOM     24  C   UNL     1     -34.510  23.979   0.597  0.00  0.00    +0.082 C 
ATOM     25  C   UNL     1     -35.188  24.745  -0.543  0.00  0.00    +0.023 C 
ATOM     26  C   UNL     1     -33.516  22.945   0.062  0.00  0.00    +0.023 C 
ATOM     27  C   UNL     1     -33.174  24.342  -2.014  0.00  0.00    +0.115 C 
ATOM     28  C   UNL     1     -34.164  25.376  -1.481  0.00  0.00    +0.031 C 
ATOM     29  C   UNL     1     -32.496  23.582  -0.876  0.00  0.00    +0.031 C 
BRANCH  27  30
ATOM     30  O   UNL     1     -32.171  24.994  -2.787  0.00  0.00    -0.354 OA
ATOM     31  C   UNL     1     -31.720  26.183  -2.156  0.00  0.00    +0.174 C 
ENDBRANCH  27  30
ENDBRANCH   2  24
TORSDOF 5
ENDMDL
MODEL 7
REMARK VINA RESULT:      -6.5      5.466      7.817
REMARK  Name = 58298316
REMARK  5 active torsions:
REMARK  status: ('A' for Active; 'I' for Inactive)
REMARK    1  A    between atoms: N_2  and  C_24
REMARK    2  A    between atoms: C_10  and  C_14
REMARK    3  A    between atoms: C_16  and  C_19
REMARK    4  A    between atoms: C_19  and  O_22
REMARK    5  A    between atoms: C_27  and  O_30
REMARK                            x       y       z     vdW  Elec       q    Type
REMARK                         _______ _______ _______ _____ _____    ______ ____
ROOT
ATOM      1  O   UNL     1     -38.179  23.547   0.108  0.00  0.00    -0.273 OA
ATOM      2  N   UNL     1     -36.813  24.463   1.747  0.00  0.00    -0.232 N 
ATOM      3  N   UNL     1     -37.300  22.194   3.270  0.00  0.00    -0.308 N 
ATOM      4  N   UNL     1     -35.400  25.301   3.508  0.00  0.00    -0.386 NA
ATOM      5  N   UNL     1     -35.890  22.998   4.986  0.00  0.00    -0.245 NA
ATOM      6  C   UNL     1     -36.228  24.334   3.042  0.00  0.00    +0.220 C 
ATOM      7  C   UNL     1     -37.727  23.535   1.256  0.00  0.00    +0.251 C 
ATOM      8  C   UNL     1     -38.259  22.530   2.251  0.00  0.00    +0.175 C 
ATOM      9  C   UNL     1     -36.480  23.184   3.779  0.00  0.00    +0.170 C 
ATOM     10  C   UNL     1     -34.837  25.105   4.713  0.00  0.00    +0.137 C 
ATOM     11  C   UNL     1     -35.078  23.970   5.441  0.00  0.00    +0.186 C 
ATOM     12  H   UNL     1     -37.228  21.269   3.601  0.00  0.00    +0.149 HD
ENDROOT
BRANCH  10  14
ATOM     13  N   UNL     1     -32.668  28.133   4.700  0.00  0.00    -0.246 NA
ATOM     14  C   UNL     1     -33.970  26.154   5.185  0.00  0.00    +0.047 C 
ATOM     15  C   UNL     1     -33.597  26.227   6.522  0.00  0.00    +0.005 C 
ATOM     16  C   UNL     1     -32.327  28.171   6.006  0.00  0.00    +0.083 C 
ATOM     17  C   UNL     1     -33.484  27.122   4.322  0.00  0.00    +0.101 C 
ATOM     18  C   UNL     1     -32.758  27.252   6.949  0.00  0.00    +0.017 C 
BRANCH  16  19
ATOM     19  C   UNL     1     -31.425  29.284   6.429  0.00  0.00    +0.123 C 
ATOM     20  C   UNL     1     -29.951  29.019   6.040  0.00  0.00    +0.035 C 
ATOM     21  C   UNL     1     -31.871  30.647   5.850  0.00  0.00    +0.035 C 
BRANCH  19  22
ATOM     22  O   UNL     1     -31.424  29.453   7.865  0.00  0.00    -0.381 OA
ATOM     23  H   UNL     1     -30.530  29.295   8.208  0.00  0.00    +0.211 HD
ENDBRANCH  19  22
ENDBRANCH  16  19
ENDBRANCH  10  14
BRANCH   2  24
ATOM     24  C   UNL     1     -36.388  25.578   0.935  0.00  0.00    +0.082 C 
ATOM     25  C   UNL     1     -34.866  25.570   0.767  0.00  0.00    +0.023 C 
ATOM     26  C   UNL     1     -36.878  26.900   1.531  0.00  0.00    +0.023 C 
ATOM     27  C   UNL     1     -34.874  28.087   0.554  0.00  0.00    +0.115 C 
ATOM     28  C   UNL     1     -34.385  26.768  -0.043  0.00  0.00    +0.031 C 
ATOM     29  C   UNL     1     -36.392  28.095   0.717  0.00  0.00    +0.031 C 
BRANCH  27  30
ATOM     30  O   UNL     1     -34.502  29.165  -0.297  0.00  0.00    -0.354 OA
ATOM     31  C   UNL     1     -35.622  29.968  -0.639  0.00  0.00    +0.174 C 
ENDBRANCH  27  30
ENDBRANCH   2  24
TORSDOF 5
ENDMDL
MODEL 8
REMARK VINA RESULT:      -6.5      3.413      8.506
REMARK  Name = 58298316
REMARK  5 active torsions:
REMARK  status: ('A' for Active; 'I' for Inactive)
REMARK    1  A    between atoms: N_2  and  C_24
REMARK    2  A    between atoms: C_10  and  C_14
REMARK    3  A    between atoms: C_16  and  C_19
REMARK    4  A    between atoms: C_19  and  O_22
REMARK    5  A    between atoms: C_27  and  O_30
REMARK                            x       y       z     vdW  Elec       q    Type
REMARK                         _______ _______ _______ _____ _____    ______ ____
ROOT
ATOM      1  O   UNL     1     -34.079  20.002   1.847  0.00  0.00    -0.273 OA
ATOM      2  N   UNL     1     -35.992  21.316   1.918  0.00  0.00    -0.232 N 
ATOM      3  N   UNL     1     -37.246  19.387   0.363  0.00  0.00    -0.308 N 
ATOM      4  N   UNL     1     -38.040  22.582   1.940  0.00  0.00    -0.386 NA
ATOM      5  N   UNL     1     -39.265  20.611   0.408  0.00  0.00    -0.245 NA
ATOM      6  C   UNL     1     -37.351  21.492   1.521  0.00  0.00    +0.220 C 
ATOM      7  C   UNL     1     -35.220  20.254   1.453  0.00  0.00    +0.251 C 
ATOM      8  C   UNL     1     -35.808  19.448   0.317  0.00  0.00    +0.175 C 
ATOM      9  C   UNL     1     -37.957  20.508   0.751  0.00  0.00    +0.170 C 
ATOM     10  C   UNL     1     -39.331  22.673   1.577  0.00  0.00    +0.137 C 
ATOM     11  C   UNL     1     -39.935  21.702   0.823  0.00  0.00    +0.186 C 
ATOM     12  H   UNL     1     -37.717  18.557   0.122  0.00  0.00    +0.149 HD
ENDROOT
BRANCH  10  14
ATOM     13  N   UNL     1     -41.833  25.430   1.705  0.00  0.00    -0.246 NA
ATOM     14  C   UNL     1     -40.035  23.847   2.030  0.00  0.00    +0.047 C 
ATOM     15  C   UNL     1     -39.637  24.521   3.178  0.00  0.00    +0.005 C 
ATOM     16  C   UNL     1     -41.417  26.060   2.826  0.00  0.00    +0.083 C 
ATOM     17  C   UNL     1     -41.129  24.336   1.335  0.00  0.00    +0.101 C 
ATOM     18  C   UNL     1     -40.336  25.651   3.591  0.00  0.00    +0.017 C 
BRANCH  16  19
ATOM     19  C   UNL     1     -42.190  27.269   3.239  0.00  0.00    +0.123 C 
ATOM     20  C   UNL     1     -42.329  28.293   2.088  0.00  0.00    +0.035 C 
ATOM     21  C   UNL     1     -43.595  26.908   3.775  0.00  0.00    +0.035 C 
BRANCH  19  22
ATOM     22  O   UNL     1     -41.534  27.979   4.314  0.00  0.00    -0.381 OA
ATOM     23  H   UNL     1     -42.122  28.674   4.648  0.00  0.00    +0.211 HD
ENDBRANCH  19  22
ENDBRANCH  16  19
ENDBRANCH  10  14
BRANCH   2  24
ATOM     24  C   UNL     1     -35.449  22.261   2.864  0.00  0.00    +0.082 C 
ATOM     25  C   UNL     1     -36.037  22.023   4.257  0.00  0.00    +0.023 C 
ATOM     26  C   UNL     1     -35.689  23.697   2.394  0.00  0.00    +0.023 C 
ATOM     27  C   UNL     1     -35.762  24.476   4.795  0.00  0.00    +0.115 C 
ATOM     28  C   UNL     1     -35.520  23.042   5.266  0.00  0.00    +0.031 C 
ATOM     29  C   UNL     1     -35.171  24.713   3.407  0.00  0.00    +0.031 C 
BRANCH  27  30
ATOM     30  O   UNL     1     -35.160  25.387   5.708  0.00  0.00    -0.354 OA
ATOM     31  C   UNL     1     -34.034  26.032   5.132  0.00  0.00    +0.174 C 
ENDBRANCH  27  30
ENDBRANCH   2  24
TORSDOF 5
ENDMDL
MODEL 9
REMARK VINA RESULT:      -6.5      5.636      9.492
REMARK  Name = 58298316
REMARK  5 active torsions:
REMARK  status: ('A' for Active; 'I' for Inactive)
REMARK    1  A    between atoms: N_2  and  C_24
REMARK    2  A    between atoms: C_10  and  C_14
REMARK    3  A    between atoms: C_16  and  C_19
REMARK    4  A    between atoms: C_19  and  O_22
REMARK    5  A    between atoms: C_27  and  O_30
REMARK                            x       y       z     vdW  Elec       q    Type
REMARK                         _______ _______ _______ _____ _____    ______ ____
ROOT
ATOM      1  O   UNL     1     -32.555  33.040   2.462  0.00  0.00    -0.273 OA
ATOM      2  N   UNL     1     -32.941  30.853   3.142  0.00  0.00    -0.232 N 
ATOM      3  N   UNL     1     -31.144  31.293   5.212  0.00  0.00    -0.308 N 
ATOM      4  N   UNL     1     -33.276  28.611   3.953  0.00  0.00    -0.386 NA
ATOM      5  N   UNL     1     -31.494  29.105   6.029  0.00  0.00    -0.245 NA
ATOM      6  C   UNL     1     -32.646  29.806   4.065  0.00  0.00    +0.220 C 
ATOM      7  C   UNL     1     -32.265  32.071   3.168  0.00  0.00    +0.251 C 
ATOM      8  C   UNL     1     -31.039  32.136   4.050  0.00  0.00    +0.175 C 
ATOM      9  C   UNL     1     -31.750  30.056   5.097  0.00  0.00    +0.170 C 
ATOM     10  C   UNL     1     -32.997  27.677   4.879  0.00  0.00    +0.137 C 
ATOM     11  C   UNL     1     -32.120  27.921   5.902  0.00  0.00    +0.186 C 
ATOM     12  H   UNL     1     -30.789  31.594   6.079  0.00  0.00    +0.149 HD
ENDROOT
BRANCH  10  14
ATOM     13  N   UNL     1     -34.288  24.554   3.311  0.00  0.00    -0.246 NA
ATOM     14  C   UNL     1     -33.676  26.415   4.729  0.00  0.00    +0.047 C 
ATOM     15  C   UNL     1     -34.352  25.834   5.796  0.00  0.00    +0.005 C 
ATOM     16  C   UNL     1     -34.936  24.021   4.370  0.00  0.00    +0.083 C 
ATOM     17  C   UNL     1     -33.673  25.741   3.519  0.00  0.00    +0.101 C 
ATOM     18  C   UNL     1     -34.998  24.615   5.621  0.00  0.00    +0.017 C 
BRANCH  16  19
ATOM     19  C   UNL     1     -35.618  22.712   4.147  0.00  0.00    +0.123 C 
ATOM     20  C   UNL     1     -35.230  22.077   2.790  0.00  0.00    +0.035 C 
ATOM     21  C   UNL     1     -35.332  21.704   5.284  0.00  0.00    +0.035 C 
BRANCH  19  22
ATOM     22  O   UNL     1     -37.056  22.860   4.110  0.00  0.00    -0.381 OA
ATOM     23  H   UNL     1     -37.444  22.120   3.618  0.00  0.00    +0.211 HD
ENDBRANCH  19  22
ENDBRANCH  16  19
ENDBRANCH  10  14
BRANCH   2  24
ATOM     24  C   UNL     1     -34.005  30.624   2.195  0.00  0.00    +0.082 C 
ATOM     25  C   UNL     1     -33.567  31.033   0.786  0.00  0.00    +0.023 C 
ATOM     26  C   UNL     1     -35.278  31.360   2.621  0.00  0.00    +0.023 C 
ATOM     27  C   UNL     1     -35.961  31.588   0.201  0.00  0.00    +0.115 C 
ATOM     28  C   UNL     1     -34.692  30.851  -0.226  0.00  0.00    +0.031 C 
ATOM     29  C   UNL     1     -36.399  31.176   1.604  0.00  0.00    +0.031 C 
BRANCH  27  30
ATOM     30  O   UNL     1     -37.015  31.294  -0.710  0.00  0.00    -0.354 OA
ATOM     31  C   UNL     1     -38.226  31.005  -0.028  0.00  0.00    +0.174 C 
ENDBRANCH  27  30
ENDBRANCH   2  24
TORSDOF 5
ENDMDL
