MODEL 1
REMARK VINA RESULT:      -6.7      0.000      0.000
REMARK  Name = 21239
REMARK  5 active torsions:
REMARK  status: ('A' for Active; 'I' for Inactive)
REMARK    1  A    between atoms: N_1  and  N_2
REMARK    2  A    between atoms: N_1  and  C_17
REMARK    3  A    between atoms: N_2  and  C_5
REMARK    4  A    between atoms: C_6  and  O_13
REMARK    5  A    between atoms: C_16  and  S_23
REMARK                            x       y       z     vdW  Elec       q    Type
REMARK                         _______ _______ _______ _____ _____    ______ ____
ROOT
ATOM      1  N   UNL     1     -34.151  26.837   4.613  0.00  0.00    -0.127 NA
ENDROOT
BRANCH   1   4
ATOM      2 CL   UNL     1     -35.916  21.348   3.290  0.00  0.00    -0.083 Cl
ATOM      3  C   UNL     1     -35.005  25.225   3.003  0.00  0.00    +0.130 C 
ATOM      4  C   UNL     1     -34.572  25.536   4.289  0.00  0.00    +0.106 C 
ATOM      5  C   UNL     1     -34.965  23.260   4.982  0.00  0.00    -0.010 C 
ATOM      6  C   UNL     1     -34.551  24.558   5.280  0.00  0.00    +0.016 C 
ATOM      7  C   UNL     1     -35.418  23.926   2.705  0.00  0.00    +0.031 C 
ATOM      8  C   UNL     1     -35.398  22.944   3.695  0.00  0.00    +0.055 C 
ATOM      9  C   UNL     1     -34.928  22.236   6.071  0.00  0.00    +0.032 C 
BRANCH   3  10
ATOM     10  S   UNL     1     -35.042  26.433   1.737  0.00  0.00    +0.043 S 
ATOM     11  O   UNL     1     -35.991  25.795   0.569  0.00  0.00    -0.065 OA
ATOM     12  O   UNL     1     -35.732  27.602   2.256  0.00  0.00    -0.065 OA
ATOM     13  O   UNL     1     -33.689  26.536   1.215  0.00  0.00    -0.065 OA
ENDBRANCH   3  10
ENDBRANCH   1   4
BRANCH   1  14
ATOM     14  N   UNL     1     -32.918  26.940   4.426  0.00  0.00    -0.125 NA
BRANCH  14  17
ATOM     15  C   UNL     1     -32.288  29.296   4.249  0.00  0.00    +0.020 C 
ATOM     16  C   UNL     1     -31.811  30.472   4.876  0.00  0.00    +0.001 C 
ATOM     17  C   UNL     1     -32.447  28.128   5.011  0.00  0.00    +0.123 C 
ATOM     18  C   UNL     1     -32.143  28.119   6.374  0.00  0.00    +0.150 C 
ATOM     19  C   UNL     1     -31.509  30.445   6.247  0.00  0.00    +0.003 C 
ATOM     20  C   UNL     1     -32.589  29.322   2.877  0.00  0.00    +0.001 C 
ATOM     21  C   UNL     1     -31.651  31.640   4.112  0.00  0.00    +0.000 C 
ATOM     22  C   UNL     1     -31.674  29.276   6.990  0.00  0.00    +0.038 C 
ATOM     23  C   UNL     1     -32.425  30.491   2.134  0.00  0.00    +0.000 C 
ATOM     24  C   UNL     1     -31.955  31.648   2.751  0.00  0.00    +0.000 C 
BRANCH  18  25
ATOM     25  O   UNL     1     -32.295  26.989   7.119  0.00  0.00    -0.504 OA
ATOM     26  H   UNL     1     -31.804  26.878   7.909  0.00  0.00    +0.292 HD
ENDBRANCH  18  25
ENDBRANCH  14  17
ENDBRANCH   1  14
TORSDOF 5
ENDMDL
MODEL 2
REMARK VINA RESULT:      -6.6      5.877      9.501
REMARK  Name = 21239
REMARK  5 active torsions:
REMARK  status: ('A' for Active; 'I' for Inactive)
REMARK    1  A    between atoms: N_1  and  N_2
REMARK    2  A    between atoms: N_1  and  C_17
REMARK    3  A    between atoms: N_2  and  C_5
REMARK    4  A    between atoms: C_6  and  O_13
REMARK    5  A    between atoms: C_16  and  S_23
REMARK                            x       y       z     vdW  Elec       q    Type
REMARK                         _______ _______ _______ _____ _____    ______ ____
ROOT
ATOM      1  N   UNL     1     -36.893  20.721   2.074  0.00  0.00    -0.127 NA
ENDROOT
BRANCH   1   4
ATOM      2 CL   UNL     1     -36.621  25.912   4.898  0.00  0.00    -0.083 Cl
ATOM      3  C   UNL     1     -37.857  22.893   2.595  0.00  0.00    +0.130 C 
ATOM      4  C   UNL     1     -36.837  21.957   2.741  0.00  0.00    +0.106 C 
ATOM      5  C   UNL     1     -35.663  23.451   4.224  0.00  0.00    -0.010 C 
ATOM      6  C   UNL     1     -35.740  22.231   3.552  0.00  0.00    +0.016 C 
ATOM      7  C   UNL     1     -37.780  24.113   3.267  0.00  0.00    +0.031 C 
ATOM      8  C   UNL     1     -36.682  24.392   4.081  0.00  0.00    +0.055 C 
ATOM      9  C   UNL     1     -34.471  23.712   5.087  0.00  0.00    +0.032 C 
BRANCH   3  10
ATOM     10  S   UNL     1     -39.249  22.576   1.581  0.00  0.00    +0.043 S 
ATOM     11  O   UNL     1     -40.229  23.866   1.790  0.00  0.00    -0.065 OA
ATOM     12  O   UNL     1     -38.805  22.595   0.197  0.00  0.00    -0.065 OA
ATOM     13  O   UNL     1     -39.913  21.408   2.135  0.00  0.00    -0.065 OA
ENDBRANCH   3  10
ENDBRANCH   1   4
BRANCH   1  14
ATOM     14  N   UNL     1     -36.123  20.738   1.087  0.00  0.00    -0.125 NA
BRANCH  14  17
ATOM     15  C   UNL     1     -34.789  18.761   0.550  0.00  0.00    +0.020 C 
ATOM     16  C   UNL     1     -34.722  17.460  -0.003  0.00  0.00    +0.001 C 
ATOM     17  C   UNL     1     -36.015  19.446   0.548  0.00  0.00    +0.123 C 
ATOM     18  C   UNL     1     -37.159  18.856   0.008  0.00  0.00    +0.150 C 
ATOM     19  C   UNL     1     -35.882  16.882  -0.543  0.00  0.00    +0.003 C 
ATOM     20  C   UNL     1     -33.628  19.339   1.090  0.00  0.00    +0.001 C 
ATOM     21  C   UNL     1     -33.495  16.775  -0.001  0.00  0.00    +0.000 C 
ATOM     22  C   UNL     1     -37.093  17.576  -0.536  0.00  0.00    +0.038 C 
ATOM     23  C   UNL     1     -32.418  18.645   1.084  0.00  0.00    +0.000 C 
ATOM     24  C   UNL     1     -32.352  17.365   0.539  0.00  0.00    +0.000 C 
BRANCH  18  25
ATOM     25  O   UNL     1     -38.351  19.515   0.002  0.00  0.00    -0.504 OA
ATOM     26  H   UNL     1     -38.461  20.289   0.519  0.00  0.00    +0.292 HD
ENDBRANCH  18  25
ENDBRANCH  14  17
ENDBRANCH   1  14
TORSDOF 5
ENDMDL
MODEL 3
REMARK VINA RESULT:      -6.6      3.410      7.045
REMARK  Name = 21239
REMARK  5 active torsions:
REMARK  status: ('A' for Active; 'I' for Inactive)
REMARK    1  A    between atoms: N_1  and  N_2
REMARK    2  A    between atoms: N_1  and  C_17
REMARK    3  A    between atoms: N_2  and  C_5
REMARK    4  A    between atoms: C_6  and  O_13
REMARK    5  A    between atoms: C_16  and  S_23
REMARK                            x       y       z     vdW  Elec       q    Type
REMARK                         _______ _______ _______ _____ _____    ______ ____
ROOT
ATOM      1  N   UNL     1     -34.429  26.105   3.076  0.00  0.00    -0.127 NA
ENDROOT
BRANCH   1   4
ATOM      2 CL   UNL     1     -35.146  31.874   1.980  0.00  0.00    -0.083 Cl
ATOM      3  C   UNL     1     -33.804  28.423   3.474  0.00  0.00    +0.130 C 
ATOM      4  C   UNL     1     -34.592  27.478   2.822  0.00  0.00    +0.106 C 
ATOM      5  C   UNL     1     -35.740  29.237   1.638  0.00  0.00    -0.010 C 
ATOM      6  C   UNL     1     -35.559  27.880   1.905  0.00  0.00    +0.016 C 
ATOM      7  C   UNL     1     -33.984  29.780   3.206  0.00  0.00    +0.031 C 
ATOM      8  C   UNL     1     -34.952  30.187   2.287  0.00  0.00    +0.055 C 
ATOM      9  C   UNL     1     -36.787  29.632   0.647  0.00  0.00    +0.032 C 
BRANCH   3  10
ATOM     10  S   UNL     1     -32.580  27.948   4.631  0.00  0.00    +0.043 S 
ATOM     11  O   UNL     1     -32.212  29.315   5.446  0.00  0.00    -0.065 OA
ATOM     12  O   UNL     1     -33.195  27.036   5.581  0.00  0.00    -0.065 OA
ATOM     13  O   UNL     1     -31.411  27.549   3.865  0.00  0.00    -0.065 OA
ENDBRANCH   3  10
ENDBRANCH   1   4
BRANCH   1  14
ATOM     14  N   UNL     1     -35.536  25.527   2.995  0.00  0.00    -0.125 NA
BRANCH  14  17
ATOM     15  C   UNL     1     -35.399  23.086   3.056  0.00  0.00    +0.020 C 
ATOM     16  C   UNL     1     -35.360  21.895   3.820  0.00  0.00    +0.001 C 
ATOM     17  C   UNL     1     -35.494  24.322   3.716  0.00  0.00    +0.123 C 
ATOM     18  C   UNL     1     -35.550  24.383   5.110  0.00  0.00    +0.150 C 
ATOM     19  C   UNL     1     -35.418  21.975   5.220  0.00  0.00    +0.003 C 
ATOM     20  C   UNL     1     -35.342  23.007   1.655  0.00  0.00    +0.001 C 
ATOM     21  C   UNL     1     -35.265  20.659   3.159  0.00  0.00    +0.000 C 
ATOM     22  C   UNL     1     -35.511  23.211   5.860  0.00  0.00    +0.038 C 
ATOM     23  C   UNL     1     -35.248  21.771   1.016  0.00  0.00    +0.000 C 
ATOM     24  C   UNL     1     -35.211  20.599   1.766  0.00  0.00    +0.000 C 
BRANCH  18  25
ATOM     25  O   UNL     1     -35.643  25.579   5.756  0.00  0.00    -0.504 OA
ATOM     26  H   UNL     1     -36.483  25.961   5.917  0.00  0.00    +0.292 HD
ENDBRANCH  18  25
ENDBRANCH  14  17
ENDBRANCH   1  14
TORSDOF 5
ENDMDL
MODEL 4
REMARK VINA RESULT:      -6.5      4.183      6.429
REMARK  Name = 21239
REMARK  5 active torsions:
REMARK  status: ('A' for Active; 'I' for Inactive)
REMARK    1  A    between atoms: N_1  and  N_2
REMARK    2  A    between atoms: N_1  and  C_17
REMARK    3  A    between atoms: N_2  and  C_5
REMARK    4  A    between atoms: C_6  and  O_13
REMARK    5  A    between atoms: C_16  and  S_23
REMARK                            x       y       z     vdW  Elec       q    Type
REMARK                         _______ _______ _______ _____ _____    ______ ____
ROOT
ATOM      1  N   UNL     1     -36.808  25.323   1.260  0.00  0.00    -0.127 NA
ENDROOT
BRANCH   1   4
ATOM      2 CL   UNL     1     -40.235  20.833  -0.498  0.00  0.00    -0.083 Cl
ATOM      3  C   UNL     1     -38.900  24.087   1.392  0.00  0.00    +0.130 C 
ATOM      4  C   UNL     1     -37.629  24.259   0.849  0.00  0.00    +0.106 C 
ATOM      5  C   UNL     1     -37.947  22.312  -0.538  0.00  0.00    -0.010 C 
ATOM      6  C   UNL     1     -37.150  23.375  -0.114  0.00  0.00    +0.016 C 
ATOM      7  C   UNL     1     -39.697  23.024   0.968  0.00  0.00    +0.031 C 
ATOM      8  C   UNL     1     -39.221  22.136   0.003  0.00  0.00    +0.055 C 
ATOM      9  C   UNL     1     -37.400  21.383  -1.573  0.00  0.00    +0.032 C 
BRANCH   3  10
ATOM     10  S   UNL     1     -39.530  25.182   2.604  0.00  0.00    +0.043 S 
ATOM     11  O   UNL     1     -38.881  26.637   2.240  0.00  0.00    -0.065 OA
ATOM     12  O   UNL     1     -40.965  25.292   2.402  0.00  0.00    -0.065 OA
ATOM     13  O   UNL     1     -38.987  24.751   3.881  0.00  0.00    -0.065 OA
ENDBRANCH   3  10
ENDBRANCH   1   4
BRANCH   1  14
ATOM     14  N   UNL     1     -35.708  24.877   1.656  0.00  0.00    -0.125 NA
BRANCH  14  17
ATOM     15  C   UNL     1     -35.510  23.768   3.827  0.00  0.00    +0.020 C 
ATOM     16  C   UNL     1     -35.456  23.870   5.237  0.00  0.00    +0.001 C 
ATOM     17  C   UNL     1     -35.650  24.936   3.059  0.00  0.00    +0.123 C 
ATOM     18  C   UNL     1     -35.735  26.186   3.673  0.00  0.00    +0.150 C 
ATOM     19  C   UNL     1     -35.544  25.136   5.839  0.00  0.00    +0.003 C 
ATOM     20  C   UNL     1     -35.423  22.502   3.225  0.00  0.00    +0.001 C 
ATOM     21  C   UNL     1     -35.317  22.702   6.005  0.00  0.00    +0.000 C 
ATOM     22  C   UNL     1     -35.682  26.286   5.061  0.00  0.00    +0.038 C 
ATOM     23  C   UNL     1     -35.284  21.352   4.003  0.00  0.00    +0.000 C 
ATOM     24  C   UNL     1     -35.232  21.452   5.391  0.00  0.00    +0.000 C 
BRANCH  18  25
ATOM     25  O   UNL     1     -35.872  27.322   2.934  0.00  0.00    -0.504 OA
ATOM     26  H   UNL     1     -36.297  28.072   3.301  0.00  0.00    +0.292 HD
ENDBRANCH  18  25
ENDBRANCH  14  17
ENDBRANCH   1  14
TORSDOF 5
ENDMDL
MODEL 5
REMARK VINA RESULT:      -6.5      5.577      7.904
REMARK  Name = 21239
REMARK  5 active torsions:
REMARK  status: ('A' for Active; 'I' for Inactive)
REMARK    1  A    between atoms: N_1  and  N_2
REMARK    2  A    between atoms: N_1  and  C_17
REMARK    3  A    between atoms: N_2  and  C_5
REMARK    4  A    between atoms: C_6  and  O_13
REMARK    5  A    between atoms: C_16  and  S_23
REMARK                            x       y       z     vdW  Elec       q    Type
REMARK                         _______ _______ _______ _____ _____    ______ ____
ROOT
ATOM      1  N   UNL     1     -35.334  22.157   2.530  0.00  0.00    -0.127 NA
ENDROOT
BRANCH   1   4
ATOM      2 CL   UNL     1     -40.208  25.412   3.330  0.00  0.00    -0.083 Cl
ATOM      3  C   UNL     1     -36.484  24.003   3.621  0.00  0.00    +0.130 C 
ATOM      4  C   UNL     1     -36.487  22.936   2.727  0.00  0.00    +0.106 C 
ATOM      5  C   UNL     1     -38.796  23.380   2.190  0.00  0.00    -0.010 C 
ATOM      6  C   UNL     1     -37.639  22.621   2.011  0.00  0.00    +0.016 C 
ATOM      7  C   UNL     1     -37.640  24.762   3.800  0.00  0.00    +0.031 C 
ATOM      8  C   UNL     1     -38.796  24.451   3.084  0.00  0.00    +0.055 C 
ATOM      9  C   UNL     1     -40.013  23.015   1.404  0.00  0.00    +0.032 C 
BRANCH   3  10
ATOM     10  S   UNL     1     -35.051  24.422   4.535  0.00  0.00    +0.043 S 
ATOM     11  O   UNL     1     -35.475  25.733   5.412  0.00  0.00    -0.065 OA
ATOM     12  O   UNL     1     -34.791  23.345   5.476  0.00  0.00    -0.065 OA
ATOM     13  O   UNL     1     -34.042  24.828   3.571  0.00  0.00    -0.065 OA
ENDBRANCH   3  10
ENDBRANCH   1   4
BRANCH   1  14
ATOM     14  N   UNL     1     -35.432  21.523   1.455  0.00  0.00    -0.125 NA
BRANCH  14  17
ATOM     15  C   UNL     1     -33.351  20.431   0.777  0.00  0.00    +0.020 C 
ATOM     16  C   UNL     1     -32.121  20.498   0.081  0.00  0.00    +0.001 C 
ATOM     17  C   UNL     1     -34.202  21.548   0.776  0.00  0.00    +0.123 C 
ATOM     18  C   UNL     1     -33.846  22.715   0.097  0.00  0.00    +0.150 C 
ATOM     19  C   UNL     1     -31.777  21.679  -0.596  0.00  0.00    +0.003 C 
ATOM     20  C   UNL     1     -33.694  19.250   1.455  0.00  0.00    +0.001 C 
ATOM     21  C   UNL     1     -31.270  19.381   0.084  0.00  0.00    +0.000 C 
ATOM     22  C   UNL     1     -32.635  22.780  -0.588  0.00  0.00    +0.038 C 
ATOM     23  C   UNL     1     -32.837  18.150   1.447  0.00  0.00    +0.000 C 
ATOM     24  C   UNL     1     -31.626  18.215   0.763  0.00  0.00    +0.000 C 
BRANCH  18  25
ATOM     25  O   UNL     1     -34.667  23.802   0.092  0.00  0.00    -0.504 OA
ATOM     26  H   UNL     1     -35.055  24.093  -0.710  0.00  0.00    +0.292 HD
ENDBRANCH  18  25
ENDBRANCH  14  17
ENDBRANCH   1  14
TORSDOF 5
ENDMDL
MODEL 6
REMARK VINA RESULT:      -6.5      4.421      6.502
REMARK  Name = 21239
REMARK  5 active torsions:
REMARK  status: ('A' for Active; 'I' for Inactive)
REMARK    1  A    between atoms: N_1  and  N_2
REMARK    2  A    between atoms: N_1  and  C_17
REMARK    3  A    between atoms: N_2  and  C_5
REMARK    4  A    between atoms: C_6  and  O_13
REMARK    5  A    between atoms: C_16  and  S_23
REMARK                            x       y       z     vdW  Elec       q    Type
REMARK                         _______ _______ _______ _____ _____    ______ ____
ROOT
ATOM      1  N   UNL     1     -36.938  22.661   1.515  0.00  0.00    -0.127 NA
ENDROOT
BRANCH   1   4
ATOM      2 CL   UNL     1     -38.681  27.225  -1.821  0.00  0.00    -0.083 Cl
ATOM      3  C   UNL     1     -38.497  24.475   1.068  0.00  0.00    +0.130 C 
ATOM      4  C   UNL     1     -37.360  23.746   0.729  0.00  0.00    +0.106 C 
ATOM      5  C   UNL     1     -37.020  25.156  -1.197  0.00  0.00    -0.010 C 
ATOM      6  C   UNL     1     -36.620  24.083  -0.401  0.00  0.00    +0.016 C 
ATOM      7  C   UNL     1     -38.896  25.549   0.272  0.00  0.00    +0.031 C 
ATOM      8  C   UNL     1     -38.157  25.890  -0.860  0.00  0.00    +0.055 C 
ATOM      9  C   UNL     1     -36.201  25.490  -2.403  0.00  0.00    +0.032 C 
BRANCH   3  10
ATOM     10  S   UNL     1     -39.447  24.075   2.483  0.00  0.00    +0.043 S 
ATOM     11  O   UNL     1     -40.635  25.196   2.527  0.00  0.00    -0.065 OA
ATOM     12  O   UNL     1     -40.081  22.789   2.245  0.00  0.00    -0.065 OA
ATOM     13  O   UNL     1     -38.588  24.281   3.637  0.00  0.00    -0.065 OA
ENDBRANCH   3  10
ENDBRANCH   1   4
BRANCH   1  14
ATOM     14  N   UNL     1     -35.704  22.735   1.709  0.00  0.00    -0.125 NA
BRANCH  14  17
ATOM     15  C   UNL     1     -35.030  24.044   3.661  0.00  0.00    +0.020 C 
ATOM     16  C   UNL     1     -34.780  24.100   5.053  0.00  0.00    +0.001 C 
ATOM     17  C   UNL     1     -35.445  22.832   3.086  0.00  0.00    +0.123 C 
ATOM     18  C   UNL     1     -35.612  21.691   3.873  0.00  0.00    +0.150 C 
ATOM     19  C   UNL     1     -34.952  22.943   5.829  0.00  0.00    +0.003 C 
ATOM     20  C   UNL     1     -34.858  25.202   2.884  0.00  0.00    +0.001 C 
ATOM     21  C   UNL     1     -34.364  25.313   5.627  0.00  0.00    +0.000 C 
ATOM     22  C   UNL     1     -35.366  21.747   5.242  0.00  0.00    +0.038 C 
ATOM     23  C   UNL     1     -34.444  26.397   3.471  0.00  0.00    +0.000 C 
ATOM     24  C   UNL     1     -34.197  26.453   4.840  0.00  0.00    +0.000 C 
BRANCH  18  25
ATOM     25  O   UNL     1     -36.014  20.512   3.321  0.00  0.00    -0.504 OA
ATOM     26  H   UNL     1     -35.394  19.967   2.877  0.00  0.00    +0.292 HD
ENDBRANCH  18  25
ENDBRANCH  14  17
ENDBRANCH   1  14
TORSDOF 5
ENDMDL
MODEL 7
REMARK VINA RESULT:      -6.4      5.340      7.510
REMARK  Name = 21239
REMARK  5 active torsions:
REMARK  status: ('A' for Active; 'I' for Inactive)
REMARK    1  A    between atoms: N_1  and  N_2
REMARK    2  A    between atoms: N_1  and  C_17
REMARK    3  A    between atoms: N_2  and  C_5
REMARK    4  A    between atoms: C_6  and  O_13
REMARK    5  A    between atoms: C_16  and  S_23
REMARK                            x       y       z     vdW  Elec       q    Type
REMARK                         _______ _______ _______ _____ _____    ______ ____
ROOT
ATOM      1  N   UNL     1     -35.264  22.677   2.366  0.00  0.00    -0.127 NA
ENDROOT
BRANCH   1   4
ATOM      2 CL   UNL     1     -40.321  25.565   3.404  0.00  0.00    -0.083 Cl
ATOM      3  C   UNL     1     -36.474  24.498   3.434  0.00  0.00    +0.130 C 
ATOM      4  C   UNL     1     -36.460  23.369   2.618  0.00  0.00    +0.106 C 
ATOM      5  C   UNL     1     -38.838  23.577   2.275  0.00  0.00    -0.010 C 
ATOM      6  C   UNL     1     -37.638  22.906   2.038  0.00  0.00    +0.016 C 
ATOM      7  C   UNL     1     -37.673  25.169   3.670  0.00  0.00    +0.031 C 
ATOM      8  C   UNL     1     -38.856  24.709   3.091  0.00  0.00    +0.055 C 
ATOM      9  C   UNL     1     -40.083  23.052   1.636  0.00  0.00    +0.032 C 
BRANCH   3  10
ATOM     10  S   UNL     1     -35.009  25.103   4.176  0.00  0.00    +0.043 S 
ATOM     11  O   UNL     1     -35.459  26.469   4.952  0.00  0.00    -0.065 OA
ATOM     12  O   UNL     1     -34.598  24.150   5.193  0.00  0.00    -0.065 OA
ATOM     13  O   UNL     1     -34.111  25.472   3.094  0.00  0.00    -0.065 OA
ENDBRANCH   3  10
ENDBRANCH   1   4
BRANCH   1  14
ATOM     14  N   UNL     1     -35.241  22.295   1.174  0.00  0.00    -0.125 NA
BRANCH  14  17
ATOM     15  C   UNL     1     -33.125  21.452   0.286  0.00  0.00    +0.020 C 
ATOM     16  C   UNL     1     -32.204  20.384   0.160  0.00  0.00    +0.001 C 
ATOM     17  C   UNL     1     -34.302  21.260   1.026  0.00  0.00    +0.123 C 
ATOM     18  C   UNL     1     -34.568  20.033   1.636  0.00  0.00    +0.150 C 
ATOM     19  C   UNL     1     -32.488  19.156   0.780  0.00  0.00    +0.003 C 
ATOM     20  C   UNL     1     -32.841  22.680  -0.334  0.00  0.00    +0.001 C 
ATOM     21  C   UNL     1     -31.027  20.576  -0.581  0.00  0.00    +0.000 C 
ATOM     22  C   UNL     1     -33.662  18.983   1.513  0.00  0.00    +0.038 C 
ATOM     23  C   UNL     1     -31.667  22.853  -1.067  0.00  0.00    +0.000 C 
ATOM     24  C   UNL     1     -30.762  21.802  -1.191  0.00  0.00    +0.000 C 
BRANCH  18  25
ATOM     25  O   UNL     1     -35.709  19.841   2.356  0.00  0.00    -0.504 OA
ATOM     26  H   UNL     1     -36.479  20.336   2.155  0.00  0.00    +0.292 HD
ENDBRANCH  18  25
ENDBRANCH  14  17
ENDBRANCH   1  14
TORSDOF 5
ENDMDL
MODEL 8
REMARK VINA RESULT:      -6.4     10.876     12.847
REMARK  Name = 21239
REMARK  5 active torsions:
REMARK  status: ('A' for Active; 'I' for Inactive)
REMARK    1  A    between atoms: N_1  and  N_2
REMARK    2  A    between atoms: N_1  and  C_17
REMARK    3  A    between atoms: N_2  and  C_5
REMARK    4  A    between atoms: C_6  and  O_13
REMARK    5  A    between atoms: C_16  and  S_23
REMARK                            x       y       z     vdW  Elec       q    Type
REMARK                         _______ _______ _______ _____ _____    ______ ____
ROOT
ATOM      1  N   UNL     1     -43.135  29.645   4.536  0.00  0.00    -0.127 NA
ENDROOT
BRANCH   1   4
ATOM      2 CL   UNL     1     -47.188  32.493   7.770  0.00  0.00    -0.083 Cl
ATOM      3  C   UNL     1     -45.079  31.102   4.678  0.00  0.00    +0.130 C 
ATOM      4  C   UNL     1     -44.102  30.326   5.296  0.00  0.00    +0.106 C 
ATOM      5  C   UNL     1     -45.016  30.878   7.458  0.00  0.00    -0.010 C 
ATOM      6  C   UNL     1     -44.067  30.211   6.683  0.00  0.00    +0.016 C 
ATOM      7  C   UNL     1     -46.028  31.768   5.453  0.00  0.00    +0.031 C 
ATOM      8  C   UNL     1     -45.997  31.656   6.843  0.00  0.00    +0.055 C 
ATOM      9  C   UNL     1     -44.949  30.732   8.944  0.00  0.00    +0.032 C 
BRANCH   3  10
ATOM     10  S   UNL     1     -45.147  31.265   2.936  0.00  0.00    +0.043 S 
ATOM     11  O   UNL     1     -46.422  32.246   2.652  0.00  0.00    -0.065 OA
ATOM     12  O   UNL     1     -43.955  31.978   2.508  0.00  0.00    -0.065 OA
ATOM     13  O   UNL     1     -45.461  29.949   2.404  0.00  0.00    -0.065 OA
ENDBRANCH   3  10
ENDBRANCH   1   4
BRANCH   1  14
ATOM     14  N   UNL     1     -43.013  28.474   4.959  0.00  0.00    -0.125 NA
BRANCH  14  17
ATOM     15  C   UNL     1     -44.663  26.790   4.308  0.00  0.00    +0.020 C 
ATOM     16  C   UNL     1     -45.156  25.894   3.330  0.00  0.00    +0.001 C 
ATOM     17  C   UNL     1     -43.534  27.573   4.015  0.00  0.00    +0.123 C 
ATOM     18  C   UNL     1     -42.901  27.473   2.776  0.00  0.00    +0.150 C 
ATOM     19  C   UNL     1     -44.507  25.807   2.088  0.00  0.00    +0.003 C 
ATOM     20  C   UNL     1     -45.313  26.877   5.550  0.00  0.00    +0.001 C 
ATOM     21  C   UNL     1     -46.285  25.112   3.623  0.00  0.00    +0.000 C 
ATOM     22  C   UNL     1     -43.386  26.592   1.813  0.00  0.00    +0.038 C 
ATOM     23  C   UNL     1     -46.433  26.093   5.824  0.00  0.00    +0.000 C 
ATOM     24  C   UNL     1     -46.918  25.210   4.862  0.00  0.00    +0.000 C 
BRANCH  18  25
ATOM     25  O   UNL     1     -41.805  28.229   2.486  0.00  0.00    -0.504 OA
ATOM     26  H   UNL     1     -41.152  27.903   1.899  0.00  0.00    +0.292 HD
ENDBRANCH  18  25
ENDBRANCH  14  17
ENDBRANCH   1  14
TORSDOF 5
ENDMDL
MODEL 9
REMARK VINA RESULT:      -6.4      4.957      6.828
REMARK  Name = 21239
REMARK  5 active torsions:
REMARK  status: ('A' for Active; 'I' for Inactive)
REMARK    1  A    between atoms: N_1  and  N_2
REMARK    2  A    between atoms: N_1  and  C_17
REMARK    3  A    between atoms: N_2  and  C_5
REMARK    4  A    between atoms: C_6  and  O_13
REMARK    5  A    between atoms: C_16  and  S_23
REMARK                            x       y       z     vdW  Elec       q    Type
REMARK                         _______ _______ _______ _____ _____    ______ ____
ROOT
ATOM      1  N   UNL     1     -36.767  21.317   1.184  0.00  0.00    -0.127 NA
ENDROOT
BRANCH   1   4
ATOM      2 CL   UNL     1     -31.099  20.241  -0.125  0.00  0.00    -0.083 Cl
ATOM      3  C   UNL     1     -34.674  21.999   0.147  0.00  0.00    +0.130 C 
ATOM      4  C   UNL     1     -35.420  21.070   0.868  0.00  0.00    +0.106 C 
ATOM      5  C   UNL     1     -33.505  19.609   0.987  0.00  0.00    -0.010 C 
ATOM      6  C   UNL     1     -34.841  19.876   1.289  0.00  0.00    +0.016 C 
ATOM      7  C   UNL     1     -33.339  21.732  -0.155  0.00  0.00    +0.031 C 
ATOM      8  C   UNL     1     -32.754  20.537   0.265  0.00  0.00    +0.055 C 
ATOM      9  C   UNL     1     -32.916  18.318   1.455  0.00  0.00    +0.032 C 
BRANCH   3  10
ATOM     10  S   UNL     1     -35.376  23.508  -0.395  0.00  0.00    +0.043 S 
ATOM     11  O   UNL     1     -34.390  24.029  -1.589  0.00  0.00    -0.065 OA
ATOM     12  O   UNL     1     -36.662  23.209  -1.003  0.00  0.00    -0.065 OA
ATOM     13  O   UNL     1     -35.275  24.440   0.715  0.00  0.00    -0.065 OA
ENDBRANCH   3  10
ENDBRANCH   1   4
BRANCH   1  14
ATOM     14  N   UNL     1     -36.909  21.351   2.427  0.00  0.00    -0.125 NA
BRANCH  14  17
ATOM     15  C   UNL     1     -36.555  23.405   3.706  0.00  0.00    +0.020 C 
ATOM     16  C   UNL     1     -37.010  24.692   4.078  0.00  0.00    +0.001 C 
ATOM     17  C   UNL     1     -37.326  22.634   2.821  0.00  0.00    +0.123 C 
ATOM     18  C   UNL     1     -38.528  23.125   2.310  0.00  0.00    +0.150 C 
ATOM     19  C   UNL     1     -38.221  25.171   3.555  0.00  0.00    +0.003 C 
ATOM     20  C   UNL     1     -35.343  22.926   4.230  0.00  0.00    +0.001 C 
ATOM     21  C   UNL     1     -36.238  25.463   4.964  0.00  0.00    +0.000 C 
ATOM     22  C   UNL     1     -38.975  24.392   2.676  0.00  0.00    +0.038 C 
ATOM     23  C   UNL     1     -34.590  23.705   5.108  0.00  0.00    +0.000 C 
ATOM     24  C   UNL     1     -35.037  24.971   5.476  0.00  0.00    +0.000 C 
BRANCH  18  25
ATOM     25  O   UNL     1     -39.280  22.382   1.451  0.00  0.00    -0.504 OA
ATOM     26  H   UNL     1     -39.079  22.377   0.536  0.00  0.00    +0.292 HD
ENDBRANCH  18  25
ENDBRANCH  14  17
ENDBRANCH   1  14
TORSDOF 5
ENDMDL
