MODEL 1
REMARK VINA RESULT:      -6.0      0.000      0.000
REMARK  Name = 195621
REMARK  13 active torsions:
REMARK  status: ('A' for Active; 'I' for Inactive)
REMARK    1  A    between atoms: C_1  and  C_3
REMARK    2  A    between atoms: C_1  and  C_6
REMARK    3  A    between atoms: C_1  and  C_17
REMARK    4  A    between atoms: C_3  and  O_4
REMARK    5  A    between atoms: C_6  and  C_7
REMARK    6  A    between atoms: C_7  and  C_8
REMARK    7  A    between atoms: C_8  and  C_9
REMARK    8  A    between atoms: C_9  and  C_10
REMARK    9  A    between atoms: C_10  and  C_11
REMARK   10  A    between atoms: C_17  and  CA_18
REMARK   11  A    between atoms: CA_18  and  N_19
REMARK   12  A    between atoms: CA_18  and  C_24
REMARK   13  A    between atoms: C_24  and  O_25
REMARK                            x       y       z     vdW  Elec       q    Type
REMARK                         _______ _______ _______ _____ _____    ______ ____
ROOT
ATOM      1  C   UNL     1     -35.973  24.737   5.277  0.00  0.00    +0.097 C 
ENDROOT
BRANCH   1   3
ATOM      2  O   UNL     1     -37.851  24.216   3.807  0.00  0.00    -0.250 OA
ATOM      3  C   UNL     1     -37.021  25.022   4.209  0.00  0.00    +0.313 C 
BRANCH   3   4
ATOM      4  O   UNL     1     -36.932  26.289   3.726  0.00  0.00    -0.480 OA
ATOM      5  H   UNL     1     -36.896  27.014   4.317  0.00  0.00    +0.295 HD
ENDBRANCH   3   4
ENDBRANCH   1   3
BRANCH   1   6
ATOM      6  C   UNL     1     -34.945  23.697   4.799  0.00  0.00    +0.011 C 
BRANCH   6   7
ATOM      7  C   UNL     1     -35.100  22.353   5.524  0.00  0.00    +0.001 C 
BRANCH   7   8
ATOM      8  C   UNL     1     -35.268  21.164   4.571  0.00  0.00    +0.000 C 
BRANCH   8   9
ATOM      9  C   UNL     1     -35.602  21.514   3.117  0.00  0.00    +0.005 C 
BRANCH   9  10
ATOM     10  C   UNL     1     -35.604  20.301   2.185  0.00  0.00    +0.026 C 
BRANCH  10  11
ATOM     11  C   UNL     1     -34.297  20.171   1.444  0.00  0.00    -0.022 C 
ATOM     12  C   UNL     1     -33.852  21.211   0.630  0.00  0.00    -0.004 C 
ATOM     13  C   UNL     1     -33.535  19.009   1.573  0.00  0.00    -0.004 C 
ATOM     14  C   UNL     1     -32.642  21.091  -0.056  0.00  0.00    -0.000 C 
ATOM     15  C   UNL     1     -32.326  18.889   0.888  0.00  0.00    -0.000 C 
ATOM     16  C   UNL     1     -31.880  19.930   0.072  0.00  0.00    -0.000 C 
ENDBRANCH  10  11
ENDBRANCH   9  10
ENDBRANCH   8   9
ENDBRANCH   7   8
ENDBRANCH   6   7
ENDBRANCH   1   6
BRANCH   1  17
ATOM     17  C   UNL     1     -35.336  26.056   5.768  0.00  0.00    +0.000 C 
BRANCH  17  18
ATOM     18  CA  UNL     1     -33.834  26.241   5.487  0.00  0.00    +0.036 C 
BRANCH  18  19
ATOM     19  N   UNL     1     -33.195  26.918   6.620  0.00  0.00    +0.389 N 
ATOM     20  H1  UNL     1     -33.147  27.920   6.431  0.00  0.00    -0.088 HD
ATOM     21  H2  UNL     1     -32.253  26.551   6.747  0.00  0.00    -0.088 HD
ATOM     22  H3  UNL     1     -33.741  26.757   7.465  0.00  0.00    -0.088 HD
ENDBRANCH  18  19
BRANCH  18  24
ATOM     23  OXT UNL     1     -34.327  27.910   3.807  0.00  0.00    -0.253 OA
ATOM     24  C   UNL     1     -33.540  27.090   4.265  0.00  0.00    +0.293 C 
BRANCH  24  25
ATOM     25  O   UNL     1     -32.318  26.862   3.720  0.00  0.00    -0.482 OA
ATOM     26  H   UNL     1     -32.124  26.030   3.338  0.00  0.00    +0.295 HD
ENDBRANCH  24  25
ENDBRANCH  18  24
ENDBRANCH  17  18
ENDBRANCH   1  17
TORSDOF 13
ENDMDL
MODEL 2
REMARK VINA RESULT:      -6.0      1.786      2.632
REMARK  Name = 195621
REMARK  13 active torsions:
REMARK  status: ('A' for Active; 'I' for Inactive)
REMARK    1  A    between atoms: C_1  and  C_3
REMARK    2  A    between atoms: C_1  and  C_6
REMARK    3  A    between atoms: C_1  and  C_17
REMARK    4  A    between atoms: C_3  and  O_4
REMARK    5  A    between atoms: C_6  and  C_7
REMARK    6  A    between atoms: C_7  and  C_8
REMARK    7  A    between atoms: C_8  and  C_9
REMARK    8  A    between atoms: C_9  and  C_10
REMARK    9  A    between atoms: C_10  and  C_11
REMARK   10  A    between atoms: C_17  and  CA_18
REMARK   11  A    between atoms: CA_18  and  N_19
REMARK   12  A    between atoms: CA_18  and  C_24
REMARK   13  A    between atoms: C_24  and  O_25
REMARK                            x       y       z     vdW  Elec       q    Type
REMARK                         _______ _______ _______ _____ _____    ______ ____
ROOT
ATOM      1  C   UNL     1     -35.037  23.062   4.908  0.00  0.00    +0.097 C 
ENDROOT
BRANCH   1   3
ATOM      2  O   UNL     1     -36.088  21.989   6.833  0.00  0.00    -0.250 OA
ATOM      3  C   UNL     1     -35.459  21.891   5.786  0.00  0.00    +0.313 C 
BRANCH   3   4
ATOM      4  O   UNL     1     -35.047  20.697   5.286  0.00  0.00    -0.480 OA
ATOM      5  H   UNL     1     -35.023  20.561   4.360  0.00  0.00    +0.295 HD
ENDBRANCH   3   4
ENDBRANCH   1   3
BRANCH   1   6
ATOM      6  C   UNL     1     -35.887  23.145   3.628  0.00  0.00    +0.011 C 
BRANCH   6   7
ATOM      7  C   UNL     1     -35.067  22.834   2.367  0.00  0.00    +0.001 C 
BRANCH   7   8
ATOM      8  C   UNL     1     -35.914  22.295   1.209  0.00  0.00    +0.000 C 
BRANCH   8   9
ATOM      9  C   UNL     1     -35.576  20.877   0.736  0.00  0.00    +0.005 C 
BRANCH   9  10
ATOM     10  C   UNL     1     -34.764  20.074   1.755  0.00  0.00    +0.026 C 
BRANCH  10  11
ATOM     11  C   UNL     1     -33.431  19.653   1.190  0.00  0.00    -0.022 C 
ATOM     12  C   UNL     1     -32.722  20.517   0.356  0.00  0.00    -0.004 C 
ATOM     13  C   UNL     1     -32.906  18.398   1.503  0.00  0.00    -0.004 C 
ATOM     14  C   UNL     1     -31.489  20.127  -0.166  0.00  0.00    -0.000 C 
ATOM     15  C   UNL     1     -31.673  18.009   0.981  0.00  0.00    -0.000 C 
ATOM     16  C   UNL     1     -30.964  18.873   0.146  0.00  0.00    -0.000 C 
ENDBRANCH  10  11
ENDBRANCH   9  10
ENDBRANCH   8   9
ENDBRANCH   7   8
ENDBRANCH   6   7
ENDBRANCH   1   6
BRANCH   1  17
ATOM     17  C   UNL     1     -35.026  24.370   5.729  0.00  0.00    +0.000 C 
BRANCH  17  18
ATOM     18  CA  UNL     1     -34.411  25.605   5.047  0.00  0.00    +0.036 C 
BRANCH  18  19
ATOM     19  N   UNL     1     -33.702  26.420   6.037  0.00  0.00    +0.389 N 
ATOM     20  H1  UNL     1     -34.289  26.536   6.864  0.00  0.00    -0.088 HD
ATOM     21  H2  UNL     1     -33.493  27.335   5.638  0.00  0.00    -0.088 HD
ATOM     22  H3  UNL     1     -32.832  25.957   6.300  0.00  0.00    -0.088 HD
ENDBRANCH  18  19
BRANCH  18  24
ATOM     23  OXT UNL     1     -35.246  27.101   3.339  0.00  0.00    -0.253 OA
ATOM     24  C   UNL     1     -35.435  26.520   4.401  0.00  0.00    +0.293 C 
BRANCH  24  25
ATOM     25  O   UNL     1     -36.588  26.637   5.106  0.00  0.00    -0.482 OA
ATOM     26  H   UNL     1     -37.116  27.406   5.017  0.00  0.00    +0.295 HD
ENDBRANCH  24  25
ENDBRANCH  18  24
ENDBRANCH  17  18
ENDBRANCH   1  17
TORSDOF 13
ENDMDL
MODEL 3
REMARK VINA RESULT:      -5.8      1.776      3.440
REMARK  Name = 195621
REMARK  13 active torsions:
REMARK  status: ('A' for Active; 'I' for Inactive)
REMARK    1  A    between atoms: C_1  and  C_3
REMARK    2  A    between atoms: C_1  and  C_6
REMARK    3  A    between atoms: C_1  and  C_17
REMARK    4  A    between atoms: C_3  and  O_4
REMARK    5  A    between atoms: C_6  and  C_7
REMARK    6  A    between atoms: C_7  and  C_8
REMARK    7  A    between atoms: C_8  and  C_9
REMARK    8  A    between atoms: C_9  and  C_10
REMARK    9  A    between atoms: C_10  and  C_11
REMARK   10  A    between atoms: C_17  and  CA_18
REMARK   11  A    between atoms: CA_18  and  N_19
REMARK   12  A    between atoms: CA_18  and  C_24
REMARK   13  A    between atoms: C_24  and  O_25
REMARK                            x       y       z     vdW  Elec       q    Type
REMARK                         _______ _______ _______ _____ _____    ______ ____
ROOT
ATOM      1  C   UNL     1     -35.550  24.682   4.534  0.00  0.00    +0.097 C 
ENDROOT
BRANCH   1   3
ATOM      2  O   UNL     1     -33.230  25.439   4.531  0.00  0.00    -0.250 OA
ATOM      3  C   UNL     1     -34.423  25.701   4.627  0.00  0.00    +0.313 C 
BRANCH   3   4
ATOM      4  O   UNL     1     -34.883  26.960   4.845  0.00  0.00    -0.480 OA
ATOM      5  H   UNL     1     -35.012  27.543   4.124  0.00  0.00    +0.295 HD
ENDBRANCH   3   4
ENDBRANCH   1   3
BRANCH   1   6
ATOM      6  C   UNL     1     -35.437  23.609   5.631  0.00  0.00    +0.011 C 
BRANCH   6   7
ATOM      7  C   UNL     1     -35.503  22.186   5.060  0.00  0.00    +0.001 C 
BRANCH   7   8
ATOM      8  C   UNL     1     -35.493  22.145   3.528  0.00  0.00    +0.000 C 
BRANCH   8   9
ATOM      9  C   UNL     1     -35.451  20.749   2.897  0.00  0.00    +0.005 C 
BRANCH   9  10
ATOM     10  C   UNL     1     -35.195  20.771   1.389  0.00  0.00    +0.026 C 
BRANCH  10  11
ATOM     11  C   UNL     1     -33.860  20.159   1.045  0.00  0.00    -0.022 C 
ATOM     12  C   UNL     1     -33.526  18.897   1.534  0.00  0.00    -0.004 C 
ATOM     13  C   UNL     1     -32.959  20.856   0.239  0.00  0.00    -0.004 C 
ATOM     14  C   UNL     1     -32.291  18.330   1.216  0.00  0.00    -0.000 C 
ATOM     15  C   UNL     1     -31.725  20.290  -0.079  0.00  0.00    -0.000 C 
ATOM     16  C   UNL     1     -31.390  19.026   0.411  0.00  0.00    -0.000 C 
ENDBRANCH  10  11
ENDBRANCH   9  10
ENDBRANCH   8   9
ENDBRANCH   7   8
ENDBRANCH   6   7
ENDBRANCH   1   6
BRANCH   1  17
ATOM     17  C   UNL     1     -36.918  25.397   4.507  0.00  0.00    +0.000 C 
BRANCH  17  18
ATOM     18  CA  UNL     1     -37.559  25.606   3.124  0.00  0.00    +0.036 C 
BRANCH  18  19
ATOM     19  N   UNL     1     -37.044  26.836   2.516  0.00  0.00    +0.389 N 
ATOM     20  H1  UNL     1     -37.176  27.615   3.162  0.00  0.00    -0.088 HD
ATOM     21  H2  UNL     1     -37.549  27.025   1.650  0.00  0.00    -0.088 HD
ATOM     22  H3  UNL     1     -36.050  26.727   2.314  0.00  0.00    -0.088 HD
ENDBRANCH  18  19
BRANCH  18  24
ATOM     23  OXT UNL     1     -39.680  26.614   2.542  0.00  0.00    -0.253 OA
ATOM     24  C   UNL     1     -39.068  25.753   3.164  0.00  0.00    +0.293 C 
BRANCH  24  25
ATOM     25  O   UNL     1     -39.688  24.839   3.954  0.00  0.00    -0.482 OA
ATOM     26  H   UNL     1     -40.099  24.091   3.570  0.00  0.00    +0.295 HD
ENDBRANCH  24  25
ENDBRANCH  18  24
ENDBRANCH  17  18
ENDBRANCH   1  17
TORSDOF 13
ENDMDL
MODEL 4
REMARK VINA RESULT:      -5.7      2.449      3.833
REMARK  Name = 195621
REMARK  13 active torsions:
REMARK  status: ('A' for Active; 'I' for Inactive)
REMARK    1  A    between atoms: C_1  and  C_3
REMARK    2  A    between atoms: C_1  and  C_6
REMARK    3  A    between atoms: C_1  and  C_17
REMARK    4  A    between atoms: C_3  and  O_4
REMARK    5  A    between atoms: C_6  and  C_7
REMARK    6  A    between atoms: C_7  and  C_8
REMARK    7  A    between atoms: C_8  and  C_9
REMARK    8  A    between atoms: C_9  and  C_10
REMARK    9  A    between atoms: C_10  and  C_11
REMARK   10  A    between atoms: C_17  and  CA_18
REMARK   11  A    between atoms: CA_18  and  N_19
REMARK   12  A    between atoms: CA_18  and  C_24
REMARK   13  A    between atoms: C_24  and  O_25
REMARK                            x       y       z     vdW  Elec       q    Type
REMARK                         _______ _______ _______ _____ _____    ______ ____
ROOT
ATOM      1  C   UNL     1     -35.510  25.038   3.503  0.00  0.00    +0.097 C 
ENDROOT
BRANCH   1   3
ATOM      2  O   UNL     1     -34.738  27.036   4.673  0.00  0.00    -0.250 OA
ATOM      3  C   UNL     1     -35.607  26.191   4.493  0.00  0.00    +0.313 C 
BRANCH   3   4
ATOM      4  O   UNL     1     -36.777  26.181   5.182  0.00  0.00    -0.480 OA
ATOM      5  H   UNL     1     -37.568  25.917   4.757  0.00  0.00    +0.295 HD
ENDBRANCH   3   4
ENDBRANCH   1   3
BRANCH   1   6
ATOM      6  C   UNL     1     -34.909  25.491   2.161  0.00  0.00    +0.011 C 
BRANCH   6   7
ATOM      7  C   UNL     1     -33.979  24.431   1.554  0.00  0.00    +0.001 C 
BRANCH   7   8
ATOM      8  C   UNL     1     -34.174  24.244   0.046  0.00  0.00    +0.000 C 
BRANCH   8   9
ATOM      9  C   UNL     1     -34.586  22.839  -0.406  0.00  0.00    +0.005 C 
BRANCH   9  10
ATOM     10  C   UNL     1     -34.809  21.868   0.755  0.00  0.00    +0.026 C 
BRANCH  10  11
ATOM     11  C   UNL     1     -33.784  20.761   0.756  0.00  0.00    -0.022 C 
ATOM     12  C   UNL     1     -32.576  20.930   0.081  0.00  0.00    -0.004 C 
ATOM     13  C   UNL     1     -34.046  19.569   1.431  0.00  0.00    -0.004 C 
ATOM     14  C   UNL     1     -31.628  19.907   0.082  0.00  0.00    -0.000 C 
ATOM     15  C   UNL     1     -33.098  18.546   1.432  0.00  0.00    -0.000 C 
ATOM     16  C   UNL     1     -31.889  18.715   0.756  0.00  0.00    -0.000 C 
ENDBRANCH  10  11
ENDBRANCH   9  10
ENDBRANCH   8   9
ENDBRANCH   7   8
ENDBRANCH   6   7
ENDBRANCH   1   6
BRANCH   1  17
ATOM     17  C   UNL     1     -34.767  23.845   4.141  0.00  0.00    +0.000 C 
BRANCH  17  18
ATOM     18  CA  UNL     1     -35.534  22.511   4.207  0.00  0.00    +0.036 C 
BRANCH  18  19
ATOM     19  N   UNL     1     -36.944  22.730   3.869  0.00  0.00    +0.389 N 
ATOM     20  H1  UNL     1     -37.518  22.584   4.700  0.00  0.00    -0.088 HD
ATOM     21  H2  UNL     1     -37.225  22.073   3.142  0.00  0.00    -0.088 HD
ATOM     22  H3  UNL     1     -37.070  23.684   3.532  0.00  0.00    -0.088 HD
ENDBRANCH  18  19
BRANCH  18  24
ATOM     23  OXT UNL     1     -35.899  22.436   6.597  0.00  0.00    -0.253 OA
ATOM     24  C   UNL     1     -35.523  21.866   5.580  0.00  0.00    +0.293 C 
BRANCH  24  25
ATOM     25  O   UNL     1     -35.059  20.591   5.582  0.00  0.00    -0.482 OA
ATOM     26  H   UNL     1     -35.585  19.901   5.936  0.00  0.00    +0.295 HD
ENDBRANCH  24  25
ENDBRANCH  18  24
ENDBRANCH  17  18
ENDBRANCH   1  17
TORSDOF 13
ENDMDL
MODEL 5
REMARK VINA RESULT:      -5.7      1.953      3.033
REMARK  Name = 195621
REMARK  13 active torsions:
REMARK  status: ('A' for Active; 'I' for Inactive)
REMARK    1  A    between atoms: C_1  and  C_3
REMARK    2  A    between atoms: C_1  and  C_6
REMARK    3  A    between atoms: C_1  and  C_17
REMARK    4  A    between atoms: C_3  and  O_4
REMARK    5  A    between atoms: C_6  and  C_7
REMARK    6  A    between atoms: C_7  and  C_8
REMARK    7  A    between atoms: C_8  and  C_9
REMARK    8  A    between atoms: C_9  and  C_10
REMARK    9  A    between atoms: C_10  and  C_11
REMARK   10  A    between atoms: C_17  and  CA_18
REMARK   11  A    between atoms: CA_18  and  N_19
REMARK   12  A    between atoms: CA_18  and  C_24
REMARK   13  A    between atoms: C_24  and  O_25
REMARK                            x       y       z     vdW  Elec       q    Type
REMARK                         _______ _______ _______ _____ _____    ______ ____
ROOT
ATOM      1  C   UNL     1     -35.222  22.747   4.318  0.00  0.00    +0.097 C 
ENDROOT
BRANCH   1   3
ATOM      2  O   UNL     1     -35.980  22.314   6.597  0.00  0.00    -0.250 OA
ATOM      3  C   UNL     1     -35.483  21.901   5.557  0.00  0.00    +0.313 C 
BRANCH   3   4
ATOM      4  O   UNL     1     -35.087  20.612   5.393  0.00  0.00    -0.480 OA
ATOM      5  H   UNL     1     -34.468  20.394   4.725  0.00  0.00    +0.295 HD
ENDBRANCH   3   4
ENDBRANCH   1   3
BRANCH   1   6
ATOM      6  C   UNL     1     -36.445  22.778   3.385  0.00  0.00    +0.011 C 
BRANCH   6   7
ATOM      7  C   UNL     1     -36.066  22.498   1.924  0.00  0.00    +0.001 C 
BRANCH   7   8
ATOM      8  C   UNL     1     -36.756  21.259   1.343  0.00  0.00    +0.000 C 
BRANCH   8   9
ATOM      9  C   UNL     1     -35.829  20.112   0.925  0.00  0.00    +0.005 C 
BRANCH   9  10
ATOM     10  C   UNL     1     -34.722  19.824   1.942  0.00  0.00    +0.026 C 
BRANCH  10  11
ATOM     11  C   UNL     1     -33.407  19.540   1.261  0.00  0.00    -0.022 C 
ATOM     12  C   UNL     1     -32.767  18.318   1.463  0.00  0.00    -0.004 C 
ATOM     13  C   UNL     1     -32.830  20.500   0.429  0.00  0.00    -0.004 C 
ATOM     14  C   UNL     1     -31.550  18.055   0.833  0.00  0.00    -0.000 C 
ATOM     15  C   UNL     1     -31.614  20.237  -0.201  0.00  0.00    -0.000 C 
ATOM     16  C   UNL     1     -30.974  19.015   0.002  0.00  0.00    -0.000 C 
ENDBRANCH  10  11
ENDBRANCH   9  10
ENDBRANCH   8   9
ENDBRANCH   7   8
ENDBRANCH   6   7
ENDBRANCH   1   6
BRANCH   1  17
ATOM     17  C   UNL     1     -34.719  24.150   4.724  0.00  0.00    +0.000 C 
BRANCH  17  18
ATOM     18  CA  UNL     1     -34.986  25.292   3.727  0.00  0.00    +0.036 C 
BRANCH  18  19
ATOM     19  N   UNL     1     -33.795  25.527   2.906  0.00  0.00    +0.389 N 
ATOM     20  H1  UNL     1     -33.470  24.640   2.519  0.00  0.00    -0.088 HD
ATOM     21  H2  UNL     1     -33.059  25.935   3.483  0.00  0.00    -0.088 HD
ATOM     22  H3  UNL     1     -34.025  26.166   2.145  0.00  0.00    -0.088 HD
ENDBRANCH  18  19
BRANCH  18  24
ATOM     23  OXT UNL     1     -34.680  27.647   4.186  0.00  0.00    -0.253 OA
ATOM     24  C   UNL     1     -35.312  26.617   4.389  0.00  0.00    +0.293 C 
BRANCH  24  25
ATOM     25  O   UNL     1     -36.377  26.564   5.229  0.00  0.00    -0.482 OA
ATOM     26  H   UNL     1     -36.914  25.797   5.257  0.00  0.00    +0.295 HD
ENDBRANCH  24  25
ENDBRANCH  18  24
ENDBRANCH  17  18
ENDBRANCH   1  17
TORSDOF 13
ENDMDL
MODEL 6
REMARK VINA RESULT:      -5.5      1.842      2.828
REMARK  Name = 195621
REMARK  13 active torsions:
REMARK  status: ('A' for Active; 'I' for Inactive)
REMARK    1  A    between atoms: C_1  and  C_3
REMARK    2  A    between atoms: C_1  and  C_6
REMARK    3  A    between atoms: C_1  and  C_17
REMARK    4  A    between atoms: C_3  and  O_4
REMARK    5  A    between atoms: C_6  and  C_7
REMARK    6  A    between atoms: C_7  and  C_8
REMARK    7  A    between atoms: C_8  and  C_9
REMARK    8  A    between atoms: C_9  and  C_10
REMARK    9  A    between atoms: C_10  and  C_11
REMARK   10  A    between atoms: C_17  and  CA_18
REMARK   11  A    between atoms: CA_18  and  N_19
REMARK   12  A    between atoms: CA_18  and  C_24
REMARK   13  A    between atoms: C_24  and  O_25
REMARK                            x       y       z     vdW  Elec       q    Type
REMARK                         _______ _______ _______ _____ _____    ______ ____
ROOT
ATOM      1  C   UNL     1     -35.149  23.179   4.554  0.00  0.00    +0.097 C 
ENDROOT
BRANCH   1   3
ATOM      2  O   UNL     1     -36.044  22.166   6.586  0.00  0.00    -0.250 OA
ATOM      3  C   UNL     1     -35.498  22.036   5.498  0.00  0.00    +0.313 C 
BRANCH   3   4
ATOM      4  O   UNL     1     -35.122  20.827   5.004  0.00  0.00    -0.480 OA
ATOM      5  H   UNL     1     -34.241  20.531   5.111  0.00  0.00    +0.295 HD
ENDBRANCH   3   4
ENDBRANCH   1   3
BRANCH   1   6
ATOM      6  C   UNL     1     -35.042  22.698   3.096  0.00  0.00    +0.011 C 
BRANCH   6   7
ATOM      7  C   UNL     1     -36.414  22.361   2.495  0.00  0.00    +0.001 C 
BRANCH   7   8
ATOM      8  C   UNL     1     -36.381  22.169   0.975  0.00  0.00    +0.000 C 
BRANCH   8   9
ATOM      9  C   UNL     1     -36.066  20.751   0.487  0.00  0.00    +0.005 C 
BRANCH   9  10
ATOM     10  C   UNL     1     -35.294  19.914   1.509  0.00  0.00    +0.026 C 
BRANCH  10  11
ATOM     11  C   UNL     1     -33.868  19.688   1.074  0.00  0.00    -0.022 C 
ATOM     12  C   UNL     1     -33.213  18.506   1.419  0.00  0.00    -0.004 C 
ATOM     13  C   UNL     1     -33.204  20.661   0.328  0.00  0.00    -0.004 C 
ATOM     14  C   UNL     1     -31.893  18.297   1.017  0.00  0.00    -0.000 C 
ATOM     15  C   UNL     1     -31.885  20.452  -0.075  0.00  0.00    -0.000 C 
ATOM     16  C   UNL     1     -31.229  19.270   0.271  0.00  0.00    -0.000 C 
ENDBRANCH  10  11
ENDBRANCH   9  10
ENDBRANCH   8   9
ENDBRANCH   7   8
ENDBRANCH   6   7
ENDBRANCH   1   6
BRANCH   1  17
ATOM     17  C   UNL     1     -36.133  24.352   4.747  0.00  0.00    +0.000 C 
BRANCH  17  18
ATOM     18  CA  UNL     1     -35.597  25.584   5.498  0.00  0.00    +0.036 C 
BRANCH  18  19
ATOM     19  N   UNL     1     -36.639  26.613   5.576  0.00  0.00    +0.389 N 
ATOM     20  H1  UNL     1     -37.062  26.597   6.505  0.00  0.00    -0.088 HD
ATOM     21  H2  UNL     1     -37.355  26.426   4.874  0.00  0.00    -0.088 HD
ATOM     22  H3  UNL     1     -36.227  27.530   5.405  0.00  0.00    -0.088 HD
ENDBRANCH  18  19
BRANCH  18  24
ATOM     23  OXT UNL     1     -33.254  25.842   4.959  0.00  0.00    -0.253 OA
ATOM     24  C   UNL     1     -34.405  26.239   4.827  0.00  0.00    +0.293 C 
BRANCH  24  25
ATOM     25  O   UNL     1     -34.728  27.311   4.059  0.00  0.00    -0.482 OA
ATOM     26  H   UNL     1     -34.655  27.258   3.127  0.00  0.00    +0.295 HD
ENDBRANCH  24  25
ENDBRANCH  18  24
ENDBRANCH  17  18
ENDBRANCH   1  17
TORSDOF 13
ENDMDL
MODEL 7
REMARK VINA RESULT:      -5.4      2.751      5.308
REMARK  Name = 195621
REMARK  13 active torsions:
REMARK  status: ('A' for Active; 'I' for Inactive)
REMARK    1  A    between atoms: C_1  and  C_3
REMARK    2  A    between atoms: C_1  and  C_6
REMARK    3  A    between atoms: C_1  and  C_17
REMARK    4  A    between atoms: C_3  and  O_4
REMARK    5  A    between atoms: C_6  and  C_7
REMARK    6  A    between atoms: C_7  and  C_8
REMARK    7  A    between atoms: C_8  and  C_9
REMARK    8  A    between atoms: C_9  and  C_10
REMARK    9  A    between atoms: C_10  and  C_11
REMARK   10  A    between atoms: C_17  and  CA_18
REMARK   11  A    between atoms: CA_18  and  N_19
REMARK   12  A    between atoms: CA_18  and  C_24
REMARK   13  A    between atoms: C_24  and  O_25
REMARK                            x       y       z     vdW  Elec       q    Type
REMARK                         _______ _______ _______ _____ _____    ______ ____
ROOT
ATOM      1  C   UNL     1     -35.445  22.579   4.153  0.00  0.00    +0.097 C 
ENDROOT
BRANCH   1   3
ATOM      2  O   UNL     1     -35.920  22.361   6.538  0.00  0.00    -0.250 OA
ATOM      3  C   UNL     1     -35.506  21.865   5.497  0.00  0.00    +0.313 C 
BRANCH   3   4
ATOM      4  O   UNL     1     -35.033  20.594   5.427  0.00  0.00    -0.480 OA
ATOM      5  H   UNL     1     -34.451  20.349   4.735  0.00  0.00    +0.295 HD
ENDBRANCH   3   4
ENDBRANCH   1   3
BRANCH   1   6
ATOM      6  C   UNL     1     -35.966  21.688   3.013  0.00  0.00    +0.011 C 
BRANCH   6   7
ATOM      7  C   UNL     1     -34.993  21.634   1.827  0.00  0.00    +0.001 C 
BRANCH   7   8
ATOM      8  C   UNL     1     -35.050  22.881   0.937  0.00  0.00    +0.000 C 
BRANCH   8   9
ATOM      9  C   UNL     1     -36.284  23.004   0.037  0.00  0.00    +0.005 C 
BRANCH   9  10
ATOM     10  C   UNL     1     -36.892  24.407   0.028  0.00  0.00    +0.026 C 
BRANCH  10  11
ATOM     11  C   UNL     1     -37.918  24.572   1.122  0.00  0.00    -0.022 C 
ATOM     12  C   UNL     1     -38.718  23.493   1.495  0.00  0.00    -0.004 C 
ATOM     13  C   UNL     1     -38.065  25.804   1.760  0.00  0.00    -0.004 C 
ATOM     14  C   UNL     1     -39.667  23.646   2.507  0.00  0.00    -0.000 C 
ATOM     15  C   UNL     1     -39.013  25.956   2.772  0.00  0.00    -0.000 C 
ATOM     16  C   UNL     1     -39.815  24.877   3.145  0.00  0.00    -0.000 C 
ENDBRANCH  10  11
ENDBRANCH   9  10
ENDBRANCH   8   9
ENDBRANCH   7   8
ENDBRANCH   6   7
ENDBRANCH   1   6
BRANCH   1  17
ATOM     17  C   UNL     1     -36.154  23.948   4.242  0.00  0.00    +0.000 C 
BRANCH  17  18
ATOM     18  CA  UNL     1     -35.267  25.195   4.073  0.00  0.00    +0.036 C 
BRANCH  18  19
ATOM     19  N   UNL     1     -33.861  24.795   3.964  0.00  0.00    +0.389 N 
ATOM     20  H1  UNL     1     -33.371  25.040   4.825  0.00  0.00    -0.088 HD
ATOM     21  H2  UNL     1     -33.429  25.281   3.178  0.00  0.00    -0.088 HD
ATOM     22  H3  UNL     1     -33.803  23.788   3.814  0.00  0.00    -0.088 HD
ENDBRANCH  18  19
BRANCH  18  24
ATOM     23  OXT UNL     1     -34.370  26.491   5.908  0.00  0.00    -0.253 OA
ATOM     24  C   UNL     1     -35.343  26.162   5.239  0.00  0.00    +0.293 C 
BRANCH  24  25
ATOM     25  O   UNL     1     -36.592  26.638   5.477  0.00  0.00    -0.482 OA
ATOM     26  H   UNL     1     -37.202  26.126   5.969  0.00  0.00    +0.295 HD
ENDBRANCH  24  25
ENDBRANCH  18  24
ENDBRANCH  17  18
ENDBRANCH   1  17
TORSDOF 13
ENDMDL
MODEL 8
REMARK VINA RESULT:      -5.4      1.858      2.922
REMARK  Name = 195621
REMARK  13 active torsions:
REMARK  status: ('A' for Active; 'I' for Inactive)
REMARK    1  A    between atoms: C_1  and  C_3
REMARK    2  A    between atoms: C_1  and  C_6
REMARK    3  A    between atoms: C_1  and  C_17
REMARK    4  A    between atoms: C_3  and  O_4
REMARK    5  A    between atoms: C_6  and  C_7
REMARK    6  A    between atoms: C_7  and  C_8
REMARK    7  A    between atoms: C_8  and  C_9
REMARK    8  A    between atoms: C_9  and  C_10
REMARK    9  A    between atoms: C_10  and  C_11
REMARK   10  A    between atoms: C_17  and  CA_18
REMARK   11  A    between atoms: CA_18  and  N_19
REMARK   12  A    between atoms: CA_18  and  C_24
REMARK   13  A    between atoms: C_24  and  O_25
REMARK                            x       y       z     vdW  Elec       q    Type
REMARK                         _______ _______ _______ _____ _____    ______ ____
ROOT
ATOM      1  C   UNL     1     -37.229  23.790   2.768  0.00  0.00    +0.097 C 
ENDROOT
BRANCH   1   3
ATOM      2  O   UNL     1     -39.541  24.275   2.153  0.00  0.00    -0.250 OA
ATOM      3  C   UNL     1     -38.621  24.379   2.955  0.00  0.00    +0.313 C 
BRANCH   3   4
ATOM      4  O   UNL     1     -38.740  25.059   4.125  0.00  0.00    -0.480 OA
ATOM      5  H   UNL     1     -38.153  25.762   4.320  0.00  0.00    +0.295 HD
ENDBRANCH   3   4
ENDBRANCH   1   3
BRANCH   1   6
ATOM      6  C   UNL     1     -37.057  23.178   1.367  0.00  0.00    +0.011 C 
BRANCH   6   7
ATOM      7  C   UNL     1     -37.045  21.644   1.402  0.00  0.00    +0.001 C 
BRANCH   7   8
ATOM      8  C   UNL     1     -36.299  21.069   2.612  0.00  0.00    +0.000 C 
BRANCH   8   9
ATOM      9  C   UNL     1     -35.027  20.274   2.297  0.00  0.00    +0.005 C 
BRANCH   9  10
ATOM     10  C   UNL     1     -34.385  20.657   0.962  0.00  0.00    +0.026 C 
BRANCH  10  11
ATOM     11  C   UNL     1     -33.083  19.927   0.744  0.00  0.00    -0.022 C 
ATOM     12  C   UNL     1     -32.885  18.671   1.317  0.00  0.00    -0.004 C 
ATOM     13  C   UNL     1     -32.079  20.509  -0.029  0.00  0.00    -0.004 C 
ATOM     14  C   UNL     1     -31.680  17.996   1.116  0.00  0.00    -0.000 C 
ATOM     15  C   UNL     1     -30.875  19.834  -0.230  0.00  0.00    -0.000 C 
ATOM     16  C   UNL     1     -30.676  18.577   0.343  0.00  0.00    -0.000 C 
ENDBRANCH  10  11
ENDBRANCH   9  10
ENDBRANCH   8   9
ENDBRANCH   7   8
ENDBRANCH   6   7
ENDBRANCH   1   6
BRANCH   1  17
ATOM     17  C   UNL     1     -36.153  24.839   3.122  0.00  0.00    +0.000 C 
BRANCH  17  18
ATOM     18  CA  UNL     1     -35.439  24.663   4.475  0.00  0.00    +0.036 C 
BRANCH  18  19
ATOM     19  N   UNL     1     -36.117  23.632   5.266  0.00  0.00    +0.389 N 
ATOM     20  H1  UNL     1     -36.881  24.056   5.792  0.00  0.00    -0.088 HD
ATOM     21  H2  UNL     1     -35.453  23.208   5.913  0.00  0.00    -0.088 HD
ATOM     22  H3  UNL     1     -36.490  22.915   4.643  0.00  0.00    -0.088 HD
ENDBRANCH  18  19
BRANCH  18  24
ATOM     23  OXT UNL     1     -34.473  26.267   6.006  0.00  0.00    -0.253 OA
ATOM     24  C   UNL     1     -35.432  25.916   5.330  0.00  0.00    +0.293 C 
BRANCH  24  25
ATOM     25  O   UNL     1     -36.591  26.622   5.279  0.00  0.00    -0.482 OA
ATOM     26  H   UNL     1     -36.685  27.324   4.666  0.00  0.00    +0.295 HD
ENDBRANCH  24  25
ENDBRANCH  18  24
ENDBRANCH  17  18
ENDBRANCH   1  17
TORSDOF 13
ENDMDL
MODEL 9
REMARK VINA RESULT:      -5.4      3.523      5.988
REMARK  Name = 195621
REMARK  13 active torsions:
REMARK  status: ('A' for Active; 'I' for Inactive)
REMARK    1  A    between atoms: C_1  and  C_3
REMARK    2  A    between atoms: C_1  and  C_6
REMARK    3  A    between atoms: C_1  and  C_17
REMARK    4  A    between atoms: C_3  and  O_4
REMARK    5  A    between atoms: C_6  and  C_7
REMARK    6  A    between atoms: C_7  and  C_8
REMARK    7  A    between atoms: C_8  and  C_9
REMARK    8  A    between atoms: C_9  and  C_10
REMARK    9  A    between atoms: C_10  and  C_11
REMARK   10  A    between atoms: C_17  and  CA_18
REMARK   11  A    between atoms: CA_18  and  N_19
REMARK   12  A    between atoms: CA_18  and  C_24
REMARK   13  A    between atoms: C_24  and  O_25
REMARK                            x       y       z     vdW  Elec       q    Type
REMARK                         _______ _______ _______ _____ _____    ______ ____
ROOT
ATOM      1  C   UNL     1     -35.571  25.190   4.039  0.00  0.00    +0.097 C 
ENDROOT
BRANCH   1   3
ATOM      2  O   UNL     1     -34.426  26.323   5.873  0.00  0.00    -0.250 OA
ATOM      3  C   UNL     1     -35.461  26.098   5.257  0.00  0.00    +0.313 C 
BRANCH   3   4
ATOM      4  O   UNL     1     -36.657  26.637   5.607  0.00  0.00    -0.480 OA
ATOM      5  H   UNL     1     -37.449  26.294   5.245  0.00  0.00    +0.295 HD
ENDBRANCH   3   4
ENDBRANCH   1   3
BRANCH   1   6
ATOM      6  C   UNL     1     -34.193  24.907   3.416  0.00  0.00    +0.011 C 
BRANCH   6   7
ATOM      7  C   UNL     1     -34.153  25.242   1.919  0.00  0.00    +0.001 C 
BRANCH   7   8
ATOM      8  C   UNL     1     -34.757  26.610   1.586  0.00  0.00    +0.000 C 
BRANCH   8   9
ATOM      9  C   UNL     1     -35.952  26.598   0.626  0.00  0.00    +0.005 C 
BRANCH   9  10
ATOM     10  C   UNL     1     -37.261  27.044   1.280  0.00  0.00    +0.026 C 
BRANCH  10  11
ATOM     11  C   UNL     1     -38.097  25.863   1.706  0.00  0.00    -0.022 C 
ATOM     12  C   UNL     1     -37.960  24.640   1.051  0.00  0.00    -0.004 C 
ATOM     13  C   UNL     1     -39.007  25.995   2.755  0.00  0.00    -0.004 C 
ATOM     14  C   UNL     1     -38.733  23.547   1.445  0.00  0.00    -0.000 C 
ATOM     15  C   UNL     1     -39.779  24.902   3.149  0.00  0.00    -0.000 C 
ATOM     16  C   UNL     1     -39.643  23.678   2.493  0.00  0.00    -0.000 C 
ENDBRANCH  10  11
ENDBRANCH   9  10
ENDBRANCH   8   9
ENDBRANCH   7   8
ENDBRANCH   6   7
ENDBRANCH   1   6
BRANCH   1  17
ATOM     17  C   UNL     1     -36.364  23.914   4.393  0.00  0.00    +0.000 C 
BRANCH  17  18
ATOM     18  CA  UNL     1     -35.598  22.582   4.307  0.00  0.00    +0.036 C 
BRANCH  18  19
ATOM     19  N   UNL     1     -36.281  21.672   3.382  0.00  0.00    +0.389 N 
ATOM     20  H1  UNL     1     -35.953  21.847   2.431  0.00  0.00    -0.088 HD
ATOM     21  H2  UNL     1     -37.287  21.832   3.429  0.00  0.00    -0.088 HD
ATOM     22  H3  UNL     1     -36.077  20.707   3.640  0.00  0.00    -0.088 HD
ENDBRANCH  18  19
BRANCH  18  24
ATOM     23  OXT UNL     1     -35.820  22.341   6.704  0.00  0.00    -0.253 OA
ATOM     24  C   UNL     1     -35.501  21.845   5.630  0.00  0.00    +0.293 C 
BRANCH  24  25
ATOM     25  O   UNL     1     -35.030  20.577   5.518  0.00  0.00    -0.482 OA
ATOM     26  H   UNL     1     -35.196  19.954   6.198  0.00  0.00    +0.295 HD
ENDBRANCH  24  25
ENDBRANCH  18  24
ENDBRANCH  17  18
ENDBRANCH   1  17
TORSDOF 13
ENDMDL
