MODEL 1
REMARK VINA RESULT:      -6.4      0.000      0.000
REMARK  Name = 1989
REMARK  4 active torsions:
REMARK  status: ('A' for Active; 'I' for Inactive)
REMARK    1  A    between atoms: S_1  and  N_6
REMARK    2  A    between atoms: S_1  and  C_16
REMARK    3  A    between atoms: N_5  and  C_10
REMARK    4  A    between atoms: C_19  and  C_23
REMARK                            x       y       z     vdW  Elec       q    Type
REMARK                         _______ _______ _______ _____ _____    ______ ____
ROOT
ATOM      1  S   UNL     1     -36.129  27.015   1.862  0.00  0.00    +0.077 S 
ATOM      2  O   UNL     1     -37.533  27.376   1.917  0.00  0.00    -0.150 OA
ATOM      3  O   UNL     1     -35.469  26.824   0.586  0.00  0.00    -0.150 OA
ENDROOT
BRANCH   1   6
ATOM      4  O   UNL     1     -33.071  27.408   2.245  0.00  0.00    -0.251 OA
ATOM      5  N   UNL     1     -33.345  29.164   3.722  0.00  0.00    -0.289 N 
ATOM      6  N   UNL     1     -35.225  28.117   2.806  0.00  0.00    -0.169 N 
ATOM      7  C   UNL     1     -33.797  28.170   2.877  0.00  0.00    +0.319 C 
ATOM      8  H   UNL     1     -34.008  29.726   4.186  0.00  0.00    +0.151 HD
ATOM      9  H   UNL     1     -35.730  28.770   3.344  0.00  0.00    +0.178 HD
BRANCH   5  10
ATOM     10  C   UNL     1     -31.941  29.419   3.956  0.00  0.00    +0.073 C 
ATOM     11  C   UNL     1     -31.728  30.803   4.581  0.00  0.00    +0.020 C 
ATOM     12  C   UNL     1     -31.318  28.318   4.821  0.00  0.00    +0.020 C 
ATOM     13  C   UNL     1     -32.191  30.864   6.036  0.00  0.00    +0.002 C 
ATOM     14  C   UNL     1     -31.781  28.384   6.276  0.00  0.00    +0.002 C 
ATOM     15  C   UNL     1     -31.549  29.766   6.879  0.00  0.00    +0.000 C 
ENDBRANCH   5  10
ENDBRANCH   1   6
BRANCH   1  16
ATOM     16  C   UNL     1     -35.910  25.521   2.782  0.00  0.00    +0.125 C 
ATOM     17  C   UNL     1     -35.482  24.380   2.126  0.00  0.00    +0.020 C 
ATOM     18  C   UNL     1     -36.170  25.521   4.141  0.00  0.00    +0.020 C 
ATOM     19  C   UNL     1     -35.569  23.183   4.222  0.00  0.00    +0.035 C 
ATOM     20  C   UNL     1     -35.310  23.202   2.851  0.00  0.00    +0.004 C 
ATOM     21  C   UNL     1     -35.999  24.343   4.867  0.00  0.00    +0.004 C 
BRANCH  19  23
ATOM     22  O   UNL     1     -35.187  20.863   4.408  0.00  0.00    -0.291 OA
ATOM     23  C   UNL     1     -35.388  21.954   4.979  0.00  0.00    +0.173 C 
ATOM     24  C   UNL     1     -35.443  21.974   6.502  0.00  0.00    +0.077 C 
ENDBRANCH  19  23
ENDBRANCH   1  16
TORSDOF 4
ENDMDL
MODEL 2
REMARK VINA RESULT:      -6.4      4.042      8.017
REMARK  Name = 1989
REMARK  4 active torsions:
REMARK  status: ('A' for Active; 'I' for Inactive)
REMARK    1  A    between atoms: S_1  and  N_6
REMARK    2  A    between atoms: S_1  and  C_16
REMARK    3  A    between atoms: N_5  and  C_10
REMARK    4  A    between atoms: C_19  and  C_23
REMARK                            x       y       z     vdW  Elec       q    Type
REMARK                         _______ _______ _______ _____ _____    ______ ____
ROOT
ATOM      1  S   UNL     1     -36.001  23.169   4.094  0.00  0.00    +0.077 S 
ATOM      2  O   UNL     1     -37.299  23.637   3.648  0.00  0.00    -0.150 OA
ATOM      3  O   UNL     1     -35.887  22.339   5.277  0.00  0.00    -0.150 OA
ENDROOT
BRANCH   1   6
ATOM      4  O   UNL     1     -36.033  20.244   3.047  0.00  0.00    -0.251 OA
ATOM      5  N   UNL     1     -34.547  20.697   1.335  0.00  0.00    -0.289 N 
ATOM      6  N   UNL     1     -35.196  22.409   2.791  0.00  0.00    -0.169 N 
ATOM      7  C   UNL     1     -35.316  21.030   2.433  0.00  0.00    +0.319 C 
ATOM      8  H   UNL     1     -34.004  21.401   0.910  0.00  0.00    +0.151 HD
ATOM      9  H   UNL     1     -34.600  22.969   2.241  0.00  0.00    +0.178 HD
BRANCH   5  10
ATOM     10  C   UNL     1     -34.505  19.363   0.779  0.00  0.00    +0.073 C 
ATOM     11  C   UNL     1     -34.522  19.403  -0.753  0.00  0.00    +0.020 C 
ATOM     12  C   UNL     1     -33.291  18.587   1.300  0.00  0.00    +0.020 C 
ATOM     13  C   UNL     1     -33.205  19.909  -1.339  0.00  0.00    +0.002 C 
ATOM     14  C   UNL     1     -31.975  19.095   0.710  0.00  0.00    +0.002 C 
ATOM     15  C   UNL     1     -32.013  19.116  -0.815  0.00  0.00    +0.000 C 
ENDBRANCH   5  10
ENDBRANCH   1   6
BRANCH   1  16
ATOM     16  C   UNL     1     -34.967  24.579   4.356  0.00  0.00    +0.125 C 
ATOM     17  C   UNL     1     -34.843  25.098   5.632  0.00  0.00    +0.020 C 
ATOM     18  C   UNL     1     -34.301  25.137   3.278  0.00  0.00    +0.020 C 
ATOM     19  C   UNL     1     -33.351  26.787   4.764  0.00  0.00    +0.035 C 
ATOM     20  C   UNL     1     -34.029  26.212   5.838  0.00  0.00    +0.004 C 
ATOM     21  C   UNL     1     -33.487  26.250   3.483  0.00  0.00    +0.004 C 
BRANCH  19  23
ATOM     22  O   UNL     1     -32.465  28.533   6.080  0.00  0.00    -0.291 OA
ATOM     23  C   UNL     1     -32.501  27.948   4.979  0.00  0.00    +0.173 C 
ATOM     24  C   UNL     1     -31.626  28.480   3.849  0.00  0.00    +0.077 C 
ENDBRANCH  19  23
ENDBRANCH   1  16
TORSDOF 4
ENDMDL
MODEL 3
REMARK VINA RESULT:      -6.2      4.809      6.435
REMARK  Name = 1989
REMARK  4 active torsions:
REMARK  status: ('A' for Active; 'I' for Inactive)
REMARK    1  A    between atoms: S_1  and  N_6
REMARK    2  A    between atoms: S_1  and  C_16
REMARK    3  A    between atoms: N_5  and  C_10
REMARK    4  A    between atoms: C_19  and  C_23
REMARK                            x       y       z     vdW  Elec       q    Type
REMARK                         _______ _______ _______ _____ _____    ______ ____
ROOT
ATOM      1  S   UNL     1     -35.339  20.838   1.038  0.00  0.00    +0.077 S 
ATOM      2  O   UNL     1     -36.171  20.082   1.953  0.00  0.00    -0.150 OA
ATOM      3  O   UNL     1     -35.797  21.124  -0.307  0.00  0.00    -0.150 OA
ENDROOT
BRANCH   1   6
ATOM      4  O   UNL     1     -36.952  23.136   2.368  0.00  0.00    -0.251 OA
ATOM      5  N   UNL     1     -35.054  24.344   2.900  0.00  0.00    -0.289 N 
ATOM      6  N   UNL     1     -34.851  22.294   1.790  0.00  0.00    -0.169 N 
ATOM      7  C   UNL     1     -35.731  23.266   2.363  0.00  0.00    +0.319 C 
ATOM      8  H   UNL     1     -34.071  24.356   2.846  0.00  0.00    +0.151 HD
ATOM      9  H   UNL     1     -33.885  22.478   1.833  0.00  0.00    +0.178 HD
BRANCH   5  10
ATOM     10  C   UNL     1     -35.724  25.454   3.540  0.00  0.00    +0.073 C 
ATOM     11  C   UNL     1     -36.084  25.118   4.992  0.00  0.00    +0.020 C 
ATOM     12  C   UNL     1     -34.877  26.728   3.459  0.00  0.00    +0.020 C 
ATOM     13  C   UNL     1     -34.857  25.069   5.902  0.00  0.00    +0.002 C 
ATOM     14  C   UNL     1     -33.652  26.677   4.372  0.00  0.00    +0.002 C 
ATOM     15  C   UNL     1     -34.037  26.351   5.813  0.00  0.00    +0.000 C 
ENDBRANCH   5  10
ENDBRANCH   1   6
BRANCH   1  16
ATOM     16  C   UNL     1     -33.789  20.001   0.885  0.00  0.00    +0.125 C 
ATOM     17  C   UNL     1     -33.617  18.778   1.508  0.00  0.00    +0.020 C 
ATOM     18  C   UNL     1     -32.777  20.587   0.144  0.00  0.00    +0.020 C 
ATOM     19  C   UNL     1     -31.363  18.693   0.646  0.00  0.00    +0.035 C 
ATOM     20  C   UNL     1     -32.394  18.119   1.388  0.00  0.00    +0.004 C 
ATOM     21  C   UNL     1     -31.554  19.927   0.024  0.00  0.00    +0.004 C 
BRANCH  19  23
ATOM     22  O   UNL     1     -29.971  16.795   0.801  0.00  0.00    -0.291 OA
ATOM     23  C   UNL     1     -30.087  18.005   0.520  0.00  0.00    +0.173 C 
ATOM     24  C   UNL     1     -28.852  18.757   0.037  0.00  0.00    +0.077 C 
ENDBRANCH  19  23
ENDBRANCH   1  16
TORSDOF 4
ENDMDL
MODEL 4
REMARK VINA RESULT:      -6.0     10.459     14.225
REMARK  Name = 1989
REMARK  4 active torsions:
REMARK  status: ('A' for Active; 'I' for Inactive)
REMARK    1  A    between atoms: S_1  and  N_6
REMARK    2  A    between atoms: S_1  and  C_16
REMARK    3  A    between atoms: N_5  and  C_10
REMARK    4  A    between atoms: C_19  and  C_23
REMARK                            x       y       z     vdW  Elec       q    Type
REMARK                         _______ _______ _______ _____ _____    ______ ____
ROOT
ATOM      1  S   UNL     1     -34.100  39.531   0.244  0.00  0.00    +0.077 S 
ATOM      2  O   UNL     1     -33.037  38.736  -0.340  0.00  0.00    -0.150 OA
ATOM      3  O   UNL     1     -34.695  40.623  -0.501  0.00  0.00    -0.150 OA
ENDROOT
BRANCH   1   6
ATOM      4  O   UNL     1     -36.079  37.650  -1.239  0.00  0.00    -0.251 OA
ATOM      5  N   UNL     1     -37.087  36.944   0.718  0.00  0.00    -0.289 N 
ATOM      6  N   UNL     1     -35.336  38.493   0.809  0.00  0.00    -0.169 N 
ATOM      7  C   UNL     1     -36.176  37.679  -0.015  0.00  0.00    +0.319 C 
ATOM      8  H   UNL     1     -37.086  37.037   1.699  0.00  0.00    +0.151 HD
ATOM      9  H   UNL     1     -35.481  38.452   1.782  0.00  0.00    +0.178 HD
BRANCH   5  10
ATOM     10  C   UNL     1     -38.040  36.042   0.111  0.00  0.00    +0.073 C 
ATOM     11  C   UNL     1     -37.421  34.660  -0.124  0.00  0.00    +0.020 C 
ATOM     12  C   UNL     1     -39.317  35.943   0.953  0.00  0.00    +0.020 C 
ATOM     13  C   UNL     1     -37.209  33.886   1.177  0.00  0.00    +0.002 C 
ATOM     14  C   UNL     1     -39.102  35.166   2.252  0.00  0.00    +0.002 C 
ATOM     15  C   UNL     1     -38.494  33.790   1.992  0.00  0.00    +0.000 C 
ENDBRANCH   5  10
ENDBRANCH   1   6
BRANCH   1  16
ATOM     16  C   UNL     1     -33.507  40.210   1.765  0.00  0.00    +0.125 C 
ATOM     17  C   UNL     1     -32.235  39.882   2.200  0.00  0.00    +0.020 C 
ATOM     18  C   UNL     1     -34.327  41.056   2.491  0.00  0.00    +0.020 C 
ATOM     19  C   UNL     1     -32.580  41.271   4.146  0.00  0.00    +0.035 C 
ATOM     20  C   UNL     1     -31.768  40.417   3.400  0.00  0.00    +0.004 C 
ATOM     21  C   UNL     1     -33.860  41.590   3.691  0.00  0.00    +0.004 C 
BRANCH  19  23
ATOM     22  O   UNL     1     -31.728  43.020   5.480  0.00  0.00    -0.291 OA
ATOM     23  C   UNL     1     -32.092  41.829   5.398  0.00  0.00    +0.173 C 
ATOM     24  C   UNL     1     -32.014  40.961   6.648  0.00  0.00    +0.077 C 
ENDBRANCH  19  23
ENDBRANCH   1  16
TORSDOF 4
ENDMDL
MODEL 5
REMARK VINA RESULT:      -5.9      2.451      2.890
REMARK  Name = 1989
REMARK  4 active torsions:
REMARK  status: ('A' for Active; 'I' for Inactive)
REMARK    1  A    between atoms: S_1  and  N_6
REMARK    2  A    between atoms: S_1  and  C_16
REMARK    3  A    between atoms: N_5  and  C_10
REMARK    4  A    between atoms: C_19  and  C_23
REMARK                            x       y       z     vdW  Elec       q    Type
REMARK                         _______ _______ _______ _____ _____    ______ ____
ROOT
ATOM      1  S   UNL     1     -33.567  27.914   3.292  0.00  0.00    +0.077 S 
ATOM      2  O   UNL     1     -34.679  28.817   3.516  0.00  0.00    -0.150 OA
ATOM      3  O   UNL     1     -32.973  27.792   1.975  0.00  0.00    -0.150 OA
ENDROOT
BRANCH   1   6
ATOM      4  O   UNL     1     -30.514  28.404   2.991  0.00  0.00    -0.251 OA
ATOM      5  N   UNL     1     -30.197  28.678   5.265  0.00  0.00    -0.289 N 
ATOM      6  N   UNL     1     -32.340  28.234   4.438  0.00  0.00    -0.169 N 
ATOM      7  C   UNL     1     -30.956  28.439   4.136  0.00  0.00    +0.319 C 
ATOM      8  H   UNL     1     -30.646  28.685   6.141  0.00  0.00    +0.151 HD
ATOM      9  H   UNL     1     -32.608  28.282   5.385  0.00  0.00    +0.178 HD
BRANCH   5  10
ATOM     10  C   UNL     1     -28.772  28.920   5.217  0.00  0.00    +0.073 C 
ATOM     11  C   UNL     1     -28.355  29.968   6.254  0.00  0.00    +0.020 C 
ATOM     12  C   UNL     1     -27.986  27.617   5.398  0.00  0.00    +0.020 C 
ATOM     13  C   UNL     1     -28.423  29.434   7.685  0.00  0.00    +0.002 C 
ATOM     14  C   UNL     1     -28.054  27.086   6.830  0.00  0.00    +0.002 C 
ATOM     15  C   UNL     1     -27.625  28.144   7.843  0.00  0.00    +0.000 C 
ENDBRANCH   5  10
ENDBRANCH   1   6
BRANCH   1  16
ATOM     16  C   UNL     1     -34.070  26.290   3.779  0.00  0.00    +0.125 C 
ATOM     17  C   UNL     1     -34.419  25.371   2.806  0.00  0.00    +0.020 C 
ATOM     18  C   UNL     1     -34.105  25.970   5.126  0.00  0.00    +0.020 C 
ATOM     19  C   UNL     1     -34.860  23.751   4.543  0.00  0.00    +0.035 C 
ATOM     20  C   UNL     1     -34.818  24.091   3.191  0.00  0.00    +0.004 C 
ATOM     21  C   UNL     1     -34.504  24.691   5.510  0.00  0.00    +0.004 C 
BRANCH  19  23
ATOM     22  O   UNL     1     -35.423  21.502   4.107  0.00  0.00    -0.291 OA
ATOM     23  C   UNL     1     -35.274  22.415   4.944  0.00  0.00    +0.173 C 
ATOM     24  C   UNL     1     -35.538  22.101   6.412  0.00  0.00    +0.077 C 
ENDBRANCH  19  23
ENDBRANCH   1  16
TORSDOF 4
ENDMDL
MODEL 6
REMARK VINA RESULT:      -5.8      2.964      7.221
REMARK  Name = 1989
REMARK  4 active torsions:
REMARK  status: ('A' for Active; 'I' for Inactive)
REMARK    1  A    between atoms: S_1  and  N_6
REMARK    2  A    between atoms: S_1  and  C_16
REMARK    3  A    between atoms: N_5  and  C_10
REMARK    4  A    between atoms: C_19  and  C_23
REMARK                            x       y       z     vdW  Elec       q    Type
REMARK                         _______ _______ _______ _____ _____    ______ ____
ROOT
ATOM      1  S   UNL     1     -32.733  29.911   3.777  0.00  0.00    +0.077 S 
ATOM      2  O   UNL     1     -32.149  29.876   2.451  0.00  0.00    -0.150 OA
ATOM      3  O   UNL     1     -33.512  31.056   4.207  0.00  0.00    -0.150 OA
ENDROOT
BRANCH   1   6
ATOM      4  O   UNL     1     -32.072  26.913   3.306  0.00  0.00    -0.251 OA
ATOM      5  N   UNL     1     -34.135  26.198   4.066  0.00  0.00    -0.289 N 
ATOM      6  N   UNL     1     -33.639  28.484   4.034  0.00  0.00    -0.169 N 
ATOM      7  C   UNL     1     -33.187  27.155   3.760  0.00  0.00    +0.319 C 
ATOM      8  H   UNL     1     -35.002  26.494   4.428  0.00  0.00    +0.151 HD
ATOM      9  H   UNL     1     -34.548  28.586   4.401  0.00  0.00    +0.178 HD
BRANCH   5  10
ATOM     10  C   UNL     1     -33.910  24.782   3.882  0.00  0.00    +0.073 C 
ATOM     11  C   UNL     1     -34.390  23.985   5.100  0.00  0.00    +0.020 C 
ATOM     12  C   UNL     1     -34.575  24.282   2.595  0.00  0.00    +0.020 C 
ATOM     13  C   UNL     1     -35.914  23.937   5.205  0.00  0.00    +0.002 C 
ATOM     14  C   UNL     1     -36.099  24.233   2.704  0.00  0.00    +0.002 C 
ATOM     15  C   UNL     1     -36.552  23.426   3.917  0.00  0.00    +0.000 C 
ENDBRANCH   5  10
ENDBRANCH   1   6
BRANCH   1  16
ATOM     16  C   UNL     1     -31.433  29.704   4.957  0.00  0.00    +0.125 C 
ATOM     17  C   UNL     1     -30.130  29.575   4.511  0.00  0.00    +0.020 C 
ATOM     18  C   UNL     1     -31.744  29.673   6.306  0.00  0.00    +0.020 C 
ATOM     19  C   UNL     1     -29.399  29.376   6.804  0.00  0.00    +0.035 C 
ATOM     20  C   UNL     1     -29.105  29.410   5.441  0.00  0.00    +0.004 C 
ATOM     21  C   UNL     1     -30.719  29.508   7.236  0.00  0.00    +0.004 C 
BRANCH  19  23
ATOM     22  O   UNL     1     -28.357  29.780   8.882  0.00  0.00    -0.291 OA
ATOM     23  C   UNL     1     -28.329  29.205   7.775  0.00  0.00    +0.173 C 
ATOM     24  C   UNL     1     -27.138  28.308   7.456  0.00  0.00    +0.077 C 
ENDBRANCH  19  23
ENDBRANCH   1  16
TORSDOF 4
ENDMDL
MODEL 7
REMARK VINA RESULT:      -5.8      3.239      4.465
REMARK  Name = 1989
REMARK  4 active torsions:
REMARK  status: ('A' for Active; 'I' for Inactive)
REMARK    1  A    between atoms: S_1  and  N_6
REMARK    2  A    between atoms: S_1  and  C_16
REMARK    3  A    between atoms: N_5  and  C_10
REMARK    4  A    between atoms: C_19  and  C_23
REMARK                            x       y       z     vdW  Elec       q    Type
REMARK                         _______ _______ _______ _____ _____    ______ ____
ROOT
ATOM      1  S   UNL     1     -32.476  28.032   4.735  0.00  0.00    +0.077 S 
ATOM      2  O   UNL     1     -31.369  27.826   3.821  0.00  0.00    -0.150 OA
ATOM      3  O   UNL     1     -32.230  28.387   6.118  0.00  0.00    -0.150 OA
ENDROOT
BRANCH   1   6
ATOM      4  O   UNL     1     -33.275  28.631   1.793  0.00  0.00    -0.251 OA
ATOM      5  N   UNL     1     -34.769  30.289   2.394  0.00  0.00    -0.289 N 
ATOM      6  N   UNL     1     -33.574  29.150   4.051  0.00  0.00    -0.169 N 
ATOM      7  C   UNL     1     -33.833  29.307   2.653  0.00  0.00    +0.319 C 
ATOM      8  H   UNL     1     -35.161  30.778   3.154  0.00  0.00    +0.151 HD
ATOM      9  H   UNL     1     -34.069  29.733   4.671  0.00  0.00    +0.178 HD
BRANCH   5  10
ATOM     10  C   UNL     1     -35.201  30.631   1.057  0.00  0.00    +0.073 C 
ATOM     11  C   UNL     1     -36.725  30.783   0.993  0.00  0.00    +0.020 C 
ATOM     12  C   UNL     1     -34.495  31.896   0.556  0.00  0.00    +0.020 C 
ATOM     13  C   UNL     1     -37.216  32.049   1.695  0.00  0.00    +0.002 C 
ATOM     14  C   UNL     1     -34.990  33.160   1.259  0.00  0.00    +0.002 C 
ATOM     15  C   UNL     1     -36.508  33.295   1.172  0.00  0.00    +0.000 C 
ENDBRANCH   5  10
ENDBRANCH   1   6
BRANCH   1  16
ATOM     16  C   UNL     1     -33.457  26.560   4.750  0.00  0.00    +0.125 C 
ATOM     17  C   UNL     1     -33.523  25.781   3.609  0.00  0.00    +0.020 C 
ATOM     18  C   UNL     1     -34.140  26.217   5.903  0.00  0.00    +0.020 C 
ATOM     19  C   UNL     1     -34.994  24.260   4.774  0.00  0.00    +0.035 C 
ATOM     20  C   UNL     1     -34.297  24.621   3.620  0.00  0.00    +0.004 C 
ATOM     21  C   UNL     1     -34.915  25.058   5.915  0.00  0.00    +0.004 C 
BRANCH  19  23
ATOM     22  O   UNL     1     -36.849  22.960   4.115  0.00  0.00    -0.291 OA
ATOM     23  C   UNL     1     -35.801  23.049   4.786  0.00  0.00    +0.173 C 
ATOM     24  C   UNL     1     -35.378  21.852   5.630  0.00  0.00    +0.077 C 
ENDBRANCH  19  23
ENDBRANCH   1  16
TORSDOF 4
ENDMDL
MODEL 8
REMARK VINA RESULT:      -5.8      4.843      7.005
REMARK  Name = 1989
REMARK  4 active torsions:
REMARK  status: ('A' for Active; 'I' for Inactive)
REMARK    1  A    between atoms: S_1  and  N_6
REMARK    2  A    between atoms: S_1  and  C_16
REMARK    3  A    between atoms: N_5  and  C_10
REMARK    4  A    between atoms: C_19  and  C_23
REMARK                            x       y       z     vdW  Elec       q    Type
REMARK                         _______ _______ _______ _____ _____    ______ ____
ROOT
ATOM      1  S   UNL     1     -40.339  25.830   2.776  0.00  0.00    +0.077 S 
ATOM      2  O   UNL     1     -41.519  26.086   3.579  0.00  0.00    -0.150 OA
ATOM      3  O   UNL     1     -39.672  26.914   2.084  0.00  0.00    -0.150 OA
ENDROOT
BRANCH   1   6
ATOM      4  O   UNL     1     -37.239  25.676   2.651  0.00  0.00    -0.251 OA
ATOM      5  N   UNL     1     -37.105  24.204   4.428  0.00  0.00    -0.289 N 
ATOM      6  N   UNL     1     -39.196  24.968   3.711  0.00  0.00    -0.169 N 
ATOM      7  C   UNL     1     -37.778  25.002   3.524  0.00  0.00    +0.319 C 
ATOM      8  H   UNL     1     -37.629  23.700   5.092  0.00  0.00    +0.151 HD
ATOM      9  H   UNL     1     -39.544  24.401   4.438  0.00  0.00    +0.178 HD
BRANCH   5  10
ATOM     10  C   UNL     1     -35.665  24.076   4.444  0.00  0.00    +0.073 C 
ATOM     11  C   UNL     1     -35.154  23.767   5.856  0.00  0.00    +0.020 C 
ATOM     12  C   UNL     1     -35.194  23.019   3.440  0.00  0.00    +0.020 C 
ATOM     13  C   UNL     1     -35.489  22.343   6.300  0.00  0.00    +0.002 C 
ATOM     14  C   UNL     1     -35.529  21.596   3.888  0.00  0.00    +0.002 C 
ATOM     15  C   UNL     1     -35.002  21.309   5.291  0.00  0.00    +0.000 C 
ENDBRANCH   5  10
ENDBRANCH   1   6
BRANCH   1  16
ATOM     16  C   UNL     1     -40.757  24.622   1.554  0.00  0.00    +0.125 C 
ATOM     17  C   UNL     1     -39.984  23.481   1.440  0.00  0.00    +0.020 C 
ATOM     18  C   UNL     1     -41.851  24.842   0.734  0.00  0.00    +0.020 C 
ATOM     19  C   UNL     1     -41.411  22.734  -0.360  0.00  0.00    +0.035 C 
ATOM     20  C   UNL     1     -40.313  22.529   0.475  0.00  0.00    +0.004 C 
ATOM     21  C   UNL     1     -42.180  23.891  -0.231  0.00  0.00    +0.004 C 
BRANCH  19  23
ATOM     22  O   UNL     1     -41.295  21.802  -2.524  0.00  0.00    -0.291 OA
ATOM     23  C   UNL     1     -41.755  21.741  -1.366  0.00  0.00    +0.173 C 
ATOM     24  C   UNL     1     -42.695  20.591  -1.021  0.00  0.00    +0.077 C 
ENDBRANCH  19  23
ENDBRANCH   1  16
TORSDOF 4
ENDMDL
MODEL 9
REMARK VINA RESULT:      -5.8      5.291      7.759
REMARK  Name = 1989
REMARK  4 active torsions:
REMARK  status: ('A' for Active; 'I' for Inactive)
REMARK    1  A    between atoms: S_1  and  N_6
REMARK    2  A    between atoms: S_1  and  C_16
REMARK    3  A    between atoms: N_5  and  C_10
REMARK    4  A    between atoms: C_19  and  C_23
REMARK                            x       y       z     vdW  Elec       q    Type
REMARK                         _______ _______ _______ _____ _____    ______ ____
ROOT
ATOM      1  S   UNL     1     -40.309  24.724   1.496  0.00  0.00    +0.077 S 
ATOM      2  O   UNL     1     -39.656  25.576   0.521  0.00  0.00    -0.150 OA
ATOM      3  O   UNL     1     -40.944  23.487   1.083  0.00  0.00    -0.150 OA
ENDROOT
BRANCH   1   6
ATOM      4  O   UNL     1     -37.207  24.612   1.625  0.00  0.00    -0.251 OA
ATOM      5  N   UNL     1     -37.184  24.095   3.878  0.00  0.00    -0.289 N 
ATOM      6  N   UNL     1     -39.226  24.401   2.779  0.00  0.00    -0.169 N 
ATOM      7  C   UNL     1     -37.800  24.386   2.676  0.00  0.00    +0.319 C 
ATOM      8  H   UNL     1     -37.748  23.928   4.667  0.00  0.00    +0.151 HD
ATOM      9  H   UNL     1     -39.618  24.212   3.663  0.00  0.00    +0.178 HD
BRANCH   5  10
ATOM     10  C   UNL     1     -35.748  24.026   4.029  0.00  0.00    +0.073 C 
ATOM     11  C   UNL     1     -35.352  23.952   5.508  0.00  0.00    +0.020 C 
ATOM     12  C   UNL     1     -35.166  22.849   3.239  0.00  0.00    +0.020 C 
ATOM     13  C   UNL     1     -35.687  22.599   6.135  0.00  0.00    +0.002 C 
ATOM     14  C   UNL     1     -35.502  21.497   3.870  0.00  0.00    +0.002 C 
ATOM     15  C   UNL     1     -35.089  21.444   5.339  0.00  0.00    +0.000 C 
ENDBRANCH   5  10
ENDBRANCH   1   6
BRANCH   1  16
ATOM     16  C   UNL     1     -41.542  25.681   2.325  0.00  0.00    +0.125 C 
ATOM     17  C   UNL     1     -41.178  26.454   3.414  0.00  0.00    +0.020 C 
ATOM     18  C   UNL     1     -42.849  25.639   1.870  0.00  0.00    +0.020 C 
ATOM     19  C   UNL     1     -43.473  27.177   3.624  0.00  0.00    +0.035 C 
ATOM     20  C   UNL     1     -42.152  27.208   4.069  0.00  0.00    +0.004 C 
ATOM     21  C   UNL     1     -43.822  26.393   2.525  0.00  0.00    +0.004 C 
BRANCH  19  23
ATOM     22  O   UNL     1     -44.641  29.179   4.065  0.00  0.00    -0.291 OA
ATOM     23  C   UNL     1     -44.488  27.965   4.307  0.00  0.00    +0.173 C 
ATOM     24  C   UNL     1     -45.396  27.315   5.346  0.00  0.00    +0.077 C 
ENDBRANCH  19  23
ENDBRANCH   1  16
TORSDOF 4
ENDMDL
