MODEL 1
REMARK VINA RESULT:      -7.0      0.000      0.000
REMARK  Name = 193902
REMARK  9 active torsions:
REMARK  status: ('A' for Active; 'I' for Inactive)
REMARK    1  A    between atoms: C_1  and  C_2
REMARK    2  A    between atoms: C_1  and  O_20
REMARK    3  A    between atoms: C_3  and  N_9
REMARK    4  A    between atoms: O_20  and  C_25
REMARK    5  A    between atoms: C_22  and  O_27
REMARK    6  A    between atoms: C_23  and  O_29
REMARK    7  A    between atoms: C_24  and  O_31
REMARK    8  A    between atoms: C_26  and  C_34
REMARK    9  A    between atoms: C_34  and  O_35
REMARK                            x       y       z     vdW  Elec       q    Type
REMARK                         _______ _______ _______ _____ _____    ______ ____
ROOT
ATOM      1  C   UNL     1     -38.074  21.535   2.067  0.00  0.00    +0.173 C 
ENDROOT
BRANCH   1   2
ATOM      2  C   UNL     1     -38.731  21.245   0.750  0.00  0.00    +0.021 C 
ATOM      3  C   UNL     1     -37.979  20.855  -0.355  0.00  0.00    +0.058 C 
ATOM      4  C   UNL     1     -40.114  21.375   0.651  0.00  0.00    -0.001 C 
ATOM      5  C   UNL     1     -38.615  20.591  -1.568  0.00  0.00    +0.015 C 
ATOM      6  C   UNL     1     -40.749  21.112  -0.562  0.00  0.00    -0.000 C 
ATOM      7  C   UNL     1     -40.001  20.720  -1.671  0.00  0.00    +0.001 C 
BRANCH   3   9
ATOM      8  O   UNL     1     -36.719  18.430   0.273  0.00  0.00    -0.273 OA
ATOM      9  N   UNL     1     -36.551  20.716  -0.268  0.00  0.00    -0.215 N 
ATOM     10  N   UNL     1     -34.403  21.738  -0.288  0.00  0.00    -0.394 NA
ATOM     11  C   UNL     1     -35.687  21.797  -0.460  0.00  0.00    +0.170 C 
ATOM     12  C   UNL     1     -36.051  19.439   0.064  0.00  0.00    +0.245 C 
ATOM     13  C   UNL     1     -34.584  19.357   0.232  0.00  0.00    +0.151 C 
ATOM     14  C   UNL     1     -33.825  20.516   0.073  0.00  0.00    +0.123 C 
ATOM     15  C   UNL     1     -36.226  23.125  -0.952  0.00  0.00    +0.084 C 
ATOM     16  C   UNL     1     -33.972  18.143   0.569  0.00  0.00    -0.010 C 
ATOM     17  C   UNL     1     -32.440  20.449   0.255  0.00  0.00    +0.028 C 
ATOM     18  C   UNL     1     -32.590  18.090   0.748  0.00  0.00    -0.004 C 
ATOM     19  C   UNL     1     -31.824  19.243   0.592  0.00  0.00    +0.002 C 
ENDBRANCH   3   9
ENDBRANCH   1   2
BRANCH   1  20
ATOM     20  O   UNL     1     -38.220  22.915   2.365  0.00  0.00    -0.324 OA
BRANCH  20  25
ATOM     21  O   UNL     1     -36.671  22.581   4.078  0.00  0.00    -0.317 OA
ATOM     22  C   UNL     1     -36.227  25.408   4.340  0.00  0.00    +0.172 C 
ATOM     23  C   UNL     1     -37.385  24.833   3.523  0.00  0.00    +0.196 C 
ATOM     24  C   UNL     1     -35.723  24.402   5.377  0.00  0.00    +0.178 C 
ATOM     25  C   UNL     1     -37.053  23.435   3.001  0.00  0.00    +0.266 C 
ATOM     26  C   UNL     1     -35.497  23.038   4.740  0.00  0.00    +0.245 C 
BRANCH  22  27
ATOM     27  O   UNL     1     -36.667  26.575   5.034  0.00  0.00    -0.379 OA
ATOM     28  H   UNL     1     -36.403  26.517   5.965  0.00  0.00    +0.211 HD
ENDBRANCH  22  27
BRANCH  23  29
ATOM     29  O   UNL     1     -37.639  25.680   2.403  0.00  0.00    -0.378 OA
ATOM     30  H   UNL     1     -38.591  25.855   2.340  0.00  0.00    +0.211 HD
ENDBRANCH  23  29
BRANCH  24  31
ATOM     31  O   UNL     1     -34.486  24.868   5.914  0.00  0.00    -0.379 OA
ATOM     32  H   UNL     1     -34.324  24.442   6.770  0.00  0.00    +0.211 HD
ENDBRANCH  24  31
BRANCH  26  34
ATOM     33  O   UNL     1     -35.167  22.206   6.983  0.00  0.00    -0.247 OA
ATOM     34  C   UNL     1     -35.265  21.993   5.783  0.00  0.00    +0.344 C 
BRANCH  34  35
ATOM     35  O   UNL     1     -35.175  20.763   5.217  0.00  0.00    -0.478 OA
ATOM     36  H   UNL     1     -35.852  20.132   5.358  0.00  0.00    +0.295 HD
ENDBRANCH  34  35
ENDBRANCH  26  34
ENDBRANCH  20  25
ENDBRANCH   1  20
TORSDOF 9
ENDMDL
MODEL 2
REMARK VINA RESULT:      -6.9      3.177      7.098
REMARK  Name = 193902
REMARK  9 active torsions:
REMARK  status: ('A' for Active; 'I' for Inactive)
REMARK    1  A    between atoms: C_1  and  C_2
REMARK    2  A    between atoms: C_1  and  O_20
REMARK    3  A    between atoms: C_3  and  N_9
REMARK    4  A    between atoms: O_20  and  C_25
REMARK    5  A    between atoms: C_22  and  O_27
REMARK    6  A    between atoms: C_23  and  O_29
REMARK    7  A    between atoms: C_24  and  O_31
REMARK    8  A    between atoms: C_26  and  C_34
REMARK    9  A    between atoms: C_34  and  O_35
REMARK                            x       y       z     vdW  Elec       q    Type
REMARK                         _______ _______ _______ _____ _____    ______ ____
ROOT
ATOM      1  C   UNL     1     -36.189  21.854   2.243  0.00  0.00    +0.173 C 
ENDROOT
BRANCH   1   2
ATOM      2  C   UNL     1     -35.864  22.354   3.620  0.00  0.00    +0.021 C 
ATOM      3  C   UNL     1     -36.051  23.691   3.959  0.00  0.00    +0.058 C 
ATOM      4  C   UNL     1     -35.370  21.451   4.558  0.00  0.00    -0.001 C 
ATOM      5  C   UNL     1     -35.741  24.129   5.247  0.00  0.00    +0.015 C 
ATOM      6  C   UNL     1     -35.060  21.890   5.845  0.00  0.00    -0.000 C 
ATOM      7  C   UNL     1     -35.246  23.228   6.190  0.00  0.00    +0.001 C 
BRANCH   3   9
ATOM      8  O   UNL     1     -38.769  24.354   3.772  0.00  0.00    -0.273 OA
ATOM      9  N   UNL     1     -36.560  24.634   3.002  0.00  0.00    -0.215 N 
ATOM     10  N   UNL     1     -36.168  26.040   1.123  0.00  0.00    -0.394 NA
ATOM     11  C   UNL     1     -35.734  25.265   2.069  0.00  0.00    +0.170 C 
ATOM     12  C   UNL     1     -37.952  24.868   3.012  0.00  0.00    +0.245 C 
ATOM     13  C   UNL     1     -38.451  25.775   1.956  0.00  0.00    +0.151 C 
ATOM     14  C   UNL     1     -37.540  26.303   1.042  0.00  0.00    +0.123 C 
ATOM     15  C   UNL     1     -34.229  25.113   2.158  0.00  0.00    +0.084 C 
ATOM     16  C   UNL     1     -39.815  26.077   1.862  0.00  0.00    -0.010 C 
ATOM     17  C   UNL     1     -38.009  27.141   0.025  0.00  0.00    +0.028 C 
ATOM     18  C   UNL     1     -40.270  26.914   0.844  0.00  0.00    -0.004 C 
ATOM     19  C   UNL     1     -39.368  27.446  -0.075  0.00  0.00    +0.002 C 
ENDBRANCH   3   9
ENDBRANCH   1   2
BRANCH   1  20
ATOM     20  O   UNL     1     -37.485  21.277   2.253  0.00  0.00    -0.324 OA
BRANCH  20  25
ATOM     21  O   UNL     1     -37.477  22.533   0.287  0.00  0.00    -0.317 OA
ATOM     22  C   UNL     1     -40.348  22.509   0.161  0.00  0.00    +0.172 C 
ATOM     23  C   UNL     1     -39.579  22.062   1.405  0.00  0.00    +0.196 C 
ATOM     24  C   UNL     1     -39.499  23.430  -0.718  0.00  0.00    +0.178 C 
ATOM     25  C   UNL     1     -38.185  21.551   1.040  0.00  0.00    +0.266 C 
ATOM     26  C   UNL     1     -38.117  22.834  -0.948  0.00  0.00    +0.245 C 
BRANCH  22  27
ATOM     27  O   UNL     1     -41.516  23.228   0.556  0.00  0.00    -0.379 OA
ATOM     28  H   UNL     1     -41.566  24.061   0.061  0.00  0.00    +0.211 HD
ENDBRANCH  22  27
BRANCH  23  29
ATOM     29  O   UNL     1     -40.291  21.004   2.046  0.00  0.00    -0.378 OA
ATOM     30  H   UNL     1     -39.662  20.332   2.353  0.00  0.00    +0.211 HD
ENDBRANCH  23  29
BRANCH  24  31
ATOM     31  O   UNL     1     -40.144  23.592  -1.981  0.00  0.00    -0.379 OA
ATOM     32  H   UNL     1     -40.244  24.537  -2.174  0.00  0.00    +0.211 HD
ENDBRANCH  24  31
BRANCH  26  34
ATOM     33  O   UNL     1     -37.513  24.617  -2.459  0.00  0.00    -0.247 OA
ATOM     34  C   UNL     1     -37.200  23.835  -1.573  0.00  0.00    +0.344 C 
BRANCH  34  35
ATOM     35  O   UNL     1     -35.962  23.759  -1.024  0.00  0.00    -0.478 OA
ATOM     36  H   UNL     1     -35.232  24.155  -1.458  0.00  0.00    +0.295 HD
ENDBRANCH  34  35
ENDBRANCH  26  34
ENDBRANCH  20  25
ENDBRANCH   1  20
TORSDOF 9
ENDMDL
MODEL 3
REMARK VINA RESULT:      -6.9      1.805      2.598
REMARK  Name = 193902
REMARK  9 active torsions:
REMARK  status: ('A' for Active; 'I' for Inactive)
REMARK    1  A    between atoms: C_1  and  C_2
REMARK    2  A    between atoms: C_1  and  O_20
REMARK    3  A    between atoms: C_3  and  N_9
REMARK    4  A    between atoms: O_20  and  C_25
REMARK    5  A    between atoms: C_22  and  O_27
REMARK    6  A    between atoms: C_23  and  O_29
REMARK    7  A    between atoms: C_24  and  O_31
REMARK    8  A    between atoms: C_26  and  C_34
REMARK    9  A    between atoms: C_34  and  O_35
REMARK                            x       y       z     vdW  Elec       q    Type
REMARK                         _______ _______ _______ _____ _____    ______ ____
ROOT
ATOM      1  C   UNL     1     -39.414  23.158   2.258  0.00  0.00    +0.173 C 
ENDROOT
BRANCH   1   2
ATOM      2  C   UNL     1     -39.401  23.815   0.909  0.00  0.00    +0.021 C 
ATOM      3  C   UNL     1     -38.624  23.306  -0.128  0.00  0.00    +0.058 C 
ATOM      4  C   UNL     1     -40.184  24.950   0.712  0.00  0.00    -0.001 C 
ATOM      5  C   UNL     1     -38.632  23.937  -1.372  0.00  0.00    +0.015 C 
ATOM      6  C   UNL     1     -40.190  25.580  -0.532  0.00  0.00    -0.000 C 
ATOM      7  C   UNL     1     -39.414  25.074  -1.574  0.00  0.00    +0.001 C 
BRANCH   3   9
ATOM      8  O   UNL     1     -35.926  23.430   0.627  0.00  0.00    -0.273 OA
ATOM      9  N   UNL     1     -37.812  22.136   0.060  0.00  0.00    -0.215 N 
ATOM     10  N   UNL     1     -37.578  19.774  -0.100  0.00  0.00    -0.394 NA
ATOM     11  C   UNL     1     -38.305  20.847  -0.156  0.00  0.00    +0.170 C 
ATOM     12  C   UNL     1     -36.466  22.344   0.432  0.00  0.00    +0.245 C 
ATOM     13  C   UNL     1     -35.639  21.122   0.528  0.00  0.00    +0.151 C 
ATOM     14  C   UNL     1     -36.225  19.891   0.233  0.00  0.00    +0.123 C 
ATOM     15  C   UNL     1     -39.781  20.630  -0.418  0.00  0.00    +0.084 C 
ATOM     16  C   UNL     1     -34.287  21.203   0.883  0.00  0.00    -0.010 C 
ATOM     17  C   UNL     1     -35.440  18.735   0.298  0.00  0.00    +0.028 C 
ATOM     18  C   UNL     1     -33.515  20.043   0.943  0.00  0.00    -0.004 C 
ATOM     19  C   UNL     1     -34.092  18.809   0.650  0.00  0.00    +0.002 C 
ENDBRANCH   3   9
ENDBRANCH   1   2
BRANCH   1  20
ATOM     20  O   UNL     1     -39.019  24.104   3.239  0.00  0.00    -0.324 OA
BRANCH  20  25
ATOM     21  O   UNL     1     -37.052  23.201   4.109  0.00  0.00    -0.317 OA
ATOM     22  C   UNL     1     -35.768  25.771   4.102  0.00  0.00    +0.172 C 
ATOM     23  C   UNL     1     -37.273  25.606   3.883  0.00  0.00    +0.196 C 
ATOM     24  C   UNL     1     -35.176  24.565   4.832  0.00  0.00    +0.178 C 
ATOM     25  C   UNL     1     -37.599  24.234   3.293  0.00  0.00    +0.266 C 
ATOM     26  C   UNL     1     -35.632  23.264   4.185  0.00  0.00    +0.245 C 
BRANCH  22  27
ATOM     27  O   UNL     1     -35.528  26.932   4.899  0.00  0.00    -0.379 OA
ATOM     28  H   UNL     1     -35.432  26.672   5.828  0.00  0.00    +0.211 HD
ENDBRANCH  22  27
BRANCH  23  29
ATOM     29  O   UNL     1     -37.730  26.605   2.971  0.00  0.00    -0.378 OA
ATOM     30  H   UNL     1     -37.583  27.484   3.354  0.00  0.00    +0.211 HD
ENDBRANCH  23  29
BRANCH  24  31
ATOM     31  O   UNL     1     -33.752  24.635   4.767  0.00  0.00    -0.379 OA
ATOM     32  H   UNL     1     -33.374  23.790   5.057  0.00  0.00    +0.211 HD
ENDBRANCH  24  31
BRANCH  26  34
ATOM     33  O   UNL     1     -34.862  22.155   6.186  0.00  0.00    -0.247 OA
ATOM     34  C   UNL     1     -35.282  22.090   5.040  0.00  0.00    +0.344 C 
BRANCH  34  35
ATOM     35  O   UNL     1     -35.492  20.930   4.368  0.00  0.00    -0.478 OA
ATOM     36  H   UNL     1     -35.947  20.224   4.784  0.00  0.00    +0.295 HD
ENDBRANCH  34  35
ENDBRANCH  26  34
ENDBRANCH  20  25
ENDBRANCH   1  20
TORSDOF 9
ENDMDL
MODEL 4
REMARK VINA RESULT:      -6.8      3.952      7.106
REMARK  Name = 193902
REMARK  9 active torsions:
REMARK  status: ('A' for Active; 'I' for Inactive)
REMARK    1  A    between atoms: C_1  and  C_2
REMARK    2  A    between atoms: C_1  and  O_20
REMARK    3  A    between atoms: C_3  and  N_9
REMARK    4  A    between atoms: O_20  and  C_25
REMARK    5  A    between atoms: C_22  and  O_27
REMARK    6  A    between atoms: C_23  and  O_29
REMARK    7  A    between atoms: C_24  and  O_31
REMARK    8  A    between atoms: C_26  and  C_34
REMARK    9  A    between atoms: C_34  and  O_35
REMARK                            x       y       z     vdW  Elec       q    Type
REMARK                         _______ _______ _______ _____ _____    ______ ____
ROOT
ATOM      1  C   UNL     1     -39.387  23.385   1.980  0.00  0.00    +0.173 C 
ENDROOT
BRANCH   1   2
ATOM      2  C   UNL     1     -39.021  24.220   0.788  0.00  0.00    +0.021 C 
ATOM      3  C   UNL     1     -39.925  25.130   0.247  0.00  0.00    +0.058 C 
ATOM      4  C   UNL     1     -37.754  24.067   0.230  0.00  0.00    -0.001 C 
ATOM      5  C   UNL     1     -39.558  25.894  -0.861  0.00  0.00    +0.015 C 
ATOM      6  C   UNL     1     -37.389  24.830  -0.878  0.00  0.00    -0.000 C 
ATOM      7  C   UNL     1     -38.290  25.744  -1.423  0.00  0.00    +0.001 C 
BRANCH   3   9
ATOM      8  O   UNL     1     -40.473  26.959   2.301  0.00  0.00    -0.273 OA
ATOM      9  N   UNL     1     -41.235  25.300   0.813  0.00  0.00    -0.215 N 
ATOM     10  N   UNL     1     -43.499  24.583   0.953  0.00  0.00    -0.394 NA
ATOM     11  C   UNL     1     -42.327  24.534   0.397  0.00  0.00    +0.170 C 
ATOM     12  C   UNL     1     -41.368  26.250   1.847  0.00  0.00    +0.245 C 
ATOM     13  C   UNL     1     -42.709  26.333   2.464  0.00  0.00    +0.151 C 
ATOM     14  C   UNL     1     -43.711  25.477   2.007  0.00  0.00    +0.123 C 
ATOM     15  C   UNL     1     -42.204  23.620  -0.805  0.00  0.00    +0.084 C 
ATOM     16  C   UNL     1     -42.960  27.235   3.506  0.00  0.00    -0.010 C 
ATOM     17  C   UNL     1     -44.975  25.533   2.604  0.00  0.00    +0.028 C 
ATOM     18  C   UNL     1     -44.224  27.280   4.093  0.00  0.00    -0.004 C 
ATOM     19  C   UNL     1     -45.231  26.430   3.643  0.00  0.00    +0.002 C 
ENDBRANCH   3   9
ENDBRANCH   1   2
BRANCH   1  20
ATOM     20  O   UNL     1     -39.022  24.079   3.162  0.00  0.00    -0.324 OA
BRANCH  20  25
ATOM     21  O   UNL     1     -37.083  23.196   4.114  0.00  0.00    -0.317 OA
ATOM     22  C   UNL     1     -35.812  25.773   4.123  0.00  0.00    +0.172 C 
ATOM     23  C   UNL     1     -37.307  25.598   3.851  0.00  0.00    +0.196 C 
ATOM     24  C   UNL     1     -35.241  24.579   4.889  0.00  0.00    +0.178 C 
ATOM     25  C   UNL     1     -37.605  24.217   3.267  0.00  0.00    +0.266 C 
ATOM     26  C   UNL     1     -35.667  23.268   4.241  0.00  0.00    +0.245 C 
BRANCH  22  27
ATOM     27  O   UNL     1     -35.606  26.944   4.914  0.00  0.00    -0.379 OA
ATOM     28  H   UNL     1     -36.130  27.675   4.551  0.00  0.00    +0.211 HD
ENDBRANCH  22  27
BRANCH  23  29
ATOM     29  O   UNL     1     -37.735  26.584   2.912  0.00  0.00    -0.378 OA
ATOM     30  H   UNL     1     -38.200  27.295   3.379  0.00  0.00    +0.211 HD
ENDBRANCH  23  29
BRANCH  24  31
ATOM     31  O   UNL     1     -33.816  24.655   4.874  0.00  0.00    -0.379 OA
ATOM     32  H   UNL     1     -33.459  24.173   5.636  0.00  0.00    +0.211 HD
ENDBRANCH  24  31
BRANCH  26  34
ATOM     33  O   UNL     1     -34.985  22.185   6.288  0.00  0.00    -0.247 OA
ATOM     34  C   UNL     1     -35.343  22.105   5.122  0.00  0.00    +0.344 C 
BRANCH  34  35
ATOM     35  O   UNL     1     -35.498  20.938   4.449  0.00  0.00    -0.478 OA
ATOM     36  H   UNL     1     -34.805  20.613   3.908  0.00  0.00    +0.295 HD
ENDBRANCH  34  35
ENDBRANCH  26  34
ENDBRANCH  20  25
ENDBRANCH   1  20
TORSDOF 9
ENDMDL
MODEL 5
REMARK VINA RESULT:      -6.8      4.198      7.852
REMARK  Name = 193902
REMARK  9 active torsions:
REMARK  status: ('A' for Active; 'I' for Inactive)
REMARK    1  A    between atoms: C_1  and  C_2
REMARK    2  A    between atoms: C_1  and  O_20
REMARK    3  A    between atoms: C_3  and  N_9
REMARK    4  A    between atoms: O_20  and  C_25
REMARK    5  A    between atoms: C_22  and  O_27
REMARK    6  A    between atoms: C_23  and  O_29
REMARK    7  A    between atoms: C_24  and  O_31
REMARK    8  A    between atoms: C_26  and  C_34
REMARK    9  A    between atoms: C_34  and  O_35
REMARK                            x       y       z     vdW  Elec       q    Type
REMARK                         _______ _______ _______ _____ _____    ______ ____
ROOT
ATOM      1  C   UNL     1     -33.700  26.106   5.047  0.00  0.00    +0.173 C 
ENDROOT
BRANCH   1   2
ATOM      2  C   UNL     1     -32.925  27.357   5.338  0.00  0.00    +0.021 C 
ATOM      3  C   UNL     1     -32.603  28.252   4.323  0.00  0.00    +0.058 C 
ATOM      4  C   UNL     1     -32.531  27.608   6.651  0.00  0.00    -0.001 C 
ATOM      5  C   UNL     1     -31.882  29.409   4.621  0.00  0.00    +0.015 C 
ATOM      6  C   UNL     1     -31.809  28.764   6.948  0.00  0.00    -0.000 C 
ATOM      7  C   UNL     1     -31.485  29.664   5.934  0.00  0.00    +0.001 C 
BRANCH   3   9
ATOM      8  O   UNL     1     -35.083  29.062   3.295  0.00  0.00    -0.273 OA
ATOM      9  N   UNL     1     -33.003  28.007   2.964  0.00  0.00    -0.215 N 
ATOM     10  N   UNL     1     -32.556  26.981   0.865  0.00  0.00    -0.394 NA
ATOM     11  C   UNL     1     -32.190  27.314   2.064  0.00  0.00    +0.170 C 
ATOM     12  C   UNL     1     -34.283  28.462   2.581  0.00  0.00    +0.245 C 
ATOM     13  C   UNL     1     -34.695  28.114   1.205  0.00  0.00    +0.151 C 
ATOM     14  C   UNL     1     -33.822  27.366   0.414  0.00  0.00    +0.123 C 
ATOM     15  C   UNL     1     -30.768  26.955   2.443  0.00  0.00    +0.084 C 
ATOM     16  C   UNL     1     -35.947  28.505   0.715  0.00  0.00    -0.010 C 
ATOM     17  C   UNL     1     -34.217  27.012  -0.881  0.00  0.00    +0.028 C 
ATOM     18  C   UNL     1     -36.328  28.145  -0.578  0.00  0.00    -0.004 C 
ATOM     19  C   UNL     1     -35.464  27.398  -1.375  0.00  0.00    +0.002 C 
ENDBRANCH   3   9
ENDBRANCH   1   2
BRANCH   1  20
ATOM     20  O   UNL     1     -34.977  26.200   5.658  0.00  0.00    -0.324 OA
BRANCH  20  25
ATOM     21  O   UNL     1     -35.211  23.899   5.351  0.00  0.00    -0.317 OA
ATOM     22  C   UNL     1     -36.986  24.290   3.126  0.00  0.00    +0.172 C 
ATOM     23  C   UNL     1     -36.166  25.431   3.730  0.00  0.00    +0.196 C 
ATOM     24  C   UNL     1     -36.370  22.928   3.448  0.00  0.00    +0.178 C 
ATOM     25  C   UNL     1     -35.849  25.165   5.201  0.00  0.00    +0.266 C 
ATOM     26  C   UNL     1     -36.042  22.822   4.932  0.00  0.00    +0.245 C 
BRANCH  22  27
ATOM     27  O   UNL     1     -37.026  24.432   1.705  0.00  0.00    -0.379 OA
ATOM     28  H   UNL     1     -36.506  23.724   1.295  0.00  0.00    +0.211 HD
ENDBRANCH  22  27
BRANCH  23  29
ATOM     29  O   UNL     1     -36.910  26.646   3.644  0.00  0.00    -0.378 OA
ATOM     30  H   UNL     1     -37.163  26.806   2.721  0.00  0.00    +0.211 HD
ENDBRANCH  23  29
BRANCH  24  31
ATOM     31  O   UNL     1     -37.303  21.903   3.110  0.00  0.00    -0.379 OA
ATOM     32  H   UNL     1     -38.142  22.067   3.566  0.00  0.00    +0.211 HD
ENDBRANCH  24  31
BRANCH  26  34
ATOM     33  O   UNL     1     -35.087  20.655   4.463  0.00  0.00    -0.247 OA
ATOM     34  C   UNL     1     -35.204  21.616   5.209  0.00  0.00    +0.344 C 
BRANCH  34  35
ATOM     35  O   UNL     1     -34.587  21.728   6.411  0.00  0.00    -0.478 OA
ATOM     36  H   UNL     1     -35.089  21.683   7.202  0.00  0.00    +0.295 HD
ENDBRANCH  34  35
ENDBRANCH  26  34
ENDBRANCH  20  25
ENDBRANCH   1  20
TORSDOF 9
ENDMDL
MODEL 6
REMARK VINA RESULT:      -6.7      4.425      7.215
REMARK  Name = 193902
REMARK  9 active torsions:
REMARK  status: ('A' for Active; 'I' for Inactive)
REMARK    1  A    between atoms: C_1  and  C_2
REMARK    2  A    between atoms: C_1  and  O_20
REMARK    3  A    between atoms: C_3  and  N_9
REMARK    4  A    between atoms: O_20  and  C_25
REMARK    5  A    between atoms: C_22  and  O_27
REMARK    6  A    between atoms: C_23  and  O_29
REMARK    7  A    between atoms: C_24  and  O_31
REMARK    8  A    between atoms: C_26  and  C_34
REMARK    9  A    between atoms: C_34  and  O_35
REMARK                            x       y       z     vdW  Elec       q    Type
REMARK                         _______ _______ _______ _____ _____    ______ ____
ROOT
ATOM      1  C   UNL     1     -35.163  25.625   5.555  0.00  0.00    +0.173 C 
ENDROOT
BRANCH   1   2
ATOM      2  C   UNL     1     -35.329  24.234   5.018  0.00  0.00    +0.021 C 
ATOM      3  C   UNL     1     -35.762  24.018   3.713  0.00  0.00    +0.058 C 
ATOM      4  C   UNL     1     -35.041  23.157   5.853  0.00  0.00    -0.001 C 
ATOM      5  C   UNL     1     -35.908  22.714   3.238  0.00  0.00    +0.015 C 
ATOM      6  C   UNL     1     -35.187  21.854   5.378  0.00  0.00    -0.000 C 
ATOM      7  C   UNL     1     -35.620  21.632   4.072  0.00  0.00    +0.001 C 
BRANCH   3   9
ATOM      8  O   UNL     1     -33.869  25.150   1.981  0.00  0.00    -0.273 OA
ATOM      9  N   UNL     1     -36.063  25.118   2.839  0.00  0.00    -0.215 N 
ATOM     10  N   UNL     1     -37.601  26.785   2.122  0.00  0.00    -0.394 NA
ATOM     11  C   UNL     1     -37.321  25.726   2.817  0.00  0.00    +0.170 C 
ATOM     12  C   UNL     1     -35.014  25.595   2.025  0.00  0.00    +0.245 C 
ATOM     13  C   UNL     1     -35.335  26.784   1.207  0.00  0.00    +0.151 C 
ATOM     14  C   UNL     1     -36.609  27.343   1.310  0.00  0.00    +0.123 C 
ATOM     15  C   UNL     1     -38.474  25.119   3.589  0.00  0.00    +0.084 C 
ATOM     16  C   UNL     1     -34.371  27.352   0.365  0.00  0.00    -0.010 C 
ATOM     17  C   UNL     1     -36.911  28.483   0.557  0.00  0.00    +0.028 C 
ATOM     18  C   UNL     1     -34.685  28.489  -0.380  0.00  0.00    -0.004 C 
ATOM     19  C   UNL     1     -35.954  29.054  -0.284  0.00  0.00    +0.002 C 
ENDBRANCH   3   9
ENDBRANCH   1   2
BRANCH   1  20
ATOM     20  O   UNL     1     -33.855  25.762   6.089  0.00  0.00    -0.324 OA
BRANCH  20  25
ATOM     21  O   UNL     1     -32.649  26.838   4.407  0.00  0.00    -0.317 OA
ATOM     22  C   UNL     1     -31.421  28.611   6.305  0.00  0.00    +0.172 C 
ATOM     23  C   UNL     1     -32.206  27.371   6.732  0.00  0.00    +0.196 C 
ATOM     24  C   UNL     1     -30.924  28.487   4.864  0.00  0.00    +0.178 C 
ATOM     25  C   UNL     1     -33.256  26.994   5.687  0.00  0.00    +0.266 C 
ATOM     26  C   UNL     1     -32.051  28.042   3.941  0.00  0.00    +0.245 C 
BRANCH  22  27
ATOM     27  O   UNL     1     -30.282  28.769   7.153  0.00  0.00    -0.379 OA
ATOM     28  H   UNL     1     -30.027  29.704   7.180  0.00  0.00    +0.211 HD
ENDBRANCH  22  27
BRANCH  23  29
ATOM     29  O   UNL     1     -32.877  27.636   7.965  0.00  0.00    -0.378 OA
ATOM     30  H   UNL     1     -33.770  27.968   7.782  0.00  0.00    +0.211 HD
ENDBRANCH  23  29
BRANCH  24  31
ATOM     31  O   UNL     1     -30.448  29.759   4.425  0.00  0.00    -0.379 OA
ATOM     32  H   UNL     1     -29.504  29.694   4.212  0.00  0.00    +0.211 HD
ENDBRANCH  24  31
BRANCH  26  34
ATOM     33  O   UNL     1     -31.293  28.446   1.685  0.00  0.00    -0.247 OA
ATOM     34  C   UNL     1     -31.522  27.664   2.596  0.00  0.00    +0.344 C 
BRANCH  34  35
ATOM     35  O   UNL     1     -31.330  26.323   2.517  0.00  0.00    -0.478 OA
ATOM     36  H   UNL     1     -30.534  25.985   2.155  0.00  0.00    +0.295 HD
ENDBRANCH  34  35
ENDBRANCH  26  34
ENDBRANCH  20  25
ENDBRANCH   1  20
TORSDOF 9
ENDMDL
MODEL 7
REMARK VINA RESULT:      -6.6      3.822      7.085
REMARK  Name = 193902
REMARK  9 active torsions:
REMARK  status: ('A' for Active; 'I' for Inactive)
REMARK    1  A    between atoms: C_1  and  C_2
REMARK    2  A    between atoms: C_1  and  O_20
REMARK    3  A    between atoms: C_3  and  N_9
REMARK    4  A    between atoms: O_20  and  C_25
REMARK    5  A    between atoms: C_22  and  O_27
REMARK    6  A    between atoms: C_23  and  O_29
REMARK    7  A    between atoms: C_24  and  O_31
REMARK    8  A    between atoms: C_26  and  C_34
REMARK    9  A    between atoms: C_34  and  O_35
REMARK                            x       y       z     vdW  Elec       q    Type
REMARK                         _______ _______ _______ _____ _____    ______ ____
ROOT
ATOM      1  C   UNL     1     -34.031  25.549   4.907  0.00  0.00    +0.173 C 
ENDROOT
BRANCH   1   2
ATOM      2  C   UNL     1     -33.197  26.772   5.154  0.00  0.00    +0.021 C 
ATOM      3  C   UNL     1     -32.739  27.552   4.096  0.00  0.00    +0.058 C 
ATOM      4  C   UNL     1     -32.890  27.115   6.468  0.00  0.00    -0.001 C 
ATOM      5  C   UNL     1     -31.967  28.685   4.354  0.00  0.00    +0.015 C 
ATOM      6  C   UNL     1     -32.117  28.247   6.726  0.00  0.00    -0.000 C 
ATOM      7  C   UNL     1     -31.656  29.031   5.669  0.00  0.00    +0.001 C 
BRANCH   3   9
ATOM      8  O   UNL     1     -31.143  25.838   2.553  0.00  0.00    -0.273 OA
ATOM      9  N   UNL     1     -33.049  27.211   2.735  0.00  0.00    -0.215 N 
ATOM     10  N   UNL     1     -34.413  27.543   0.814  0.00  0.00    -0.394 NA
ATOM     11  C   UNL     1     -34.158  27.741   2.071  0.00  0.00    +0.170 C 
ATOM     12  C   UNL     1     -32.155  26.343   2.072  0.00  0.00    +0.245 C 
ATOM     13  C   UNL     1     -32.457  26.087   0.648  0.00  0.00    +0.151 C 
ATOM     14  C   UNL     1     -33.560  26.718   0.074  0.00  0.00    +0.123 C 
ATOM     15  C   UNL     1     -35.183  28.557   2.832  0.00  0.00    +0.084 C 
ATOM     16  C   UNL     1     -31.637  25.248  -0.115  0.00  0.00    -0.010 C 
ATOM     17  C   UNL     1     -33.837  26.500  -1.280  0.00  0.00    +0.028 C 
ATOM     18  C   UNL     1     -31.923  25.039  -1.464  0.00  0.00    -0.004 C 
ATOM     19  C   UNL     1     -33.022  25.665  -2.047  0.00  0.00    +0.002 C 
ENDBRANCH   3   9
ENDBRANCH   1   2
BRANCH   1  20
ATOM     20  O   UNL     1     -35.371  25.816   5.287  0.00  0.00    -0.324 OA
BRANCH  20  25
ATOM     21  O   UNL     1     -35.514  23.554   4.737  0.00  0.00    -0.317 OA
ATOM     22  C   UNL     1     -37.715  24.039   2.955  0.00  0.00    +0.172 C 
ATOM     23  C   UNL     1     -36.865  25.171   3.535  0.00  0.00    +0.196 C 
ATOM     24  C   UNL     1     -36.961  22.709   2.977  0.00  0.00    +0.178 C 
ATOM     25  C   UNL     1     -36.248  24.768   4.874  0.00  0.00    +0.266 C 
ATOM     26  C   UNL     1     -36.340  22.463   4.346  0.00  0.00    +0.245 C 
BRANCH  22  27
ATOM     27  O   UNL     1     -38.043  24.338   1.597  0.00  0.00    -0.379 OA
ATOM     28  H   UNL     1     -38.930  24.727   1.557  0.00  0.00    +0.211 HD
ENDBRANCH  22  27
BRANCH  23  29
ATOM     29  O   UNL     1     -37.688  26.318   3.748  0.00  0.00    -0.378 OA
ATOM     30  H   UNL     1     -38.257  26.455   2.975  0.00  0.00    +0.211 HD
ENDBRANCH  23  29
BRANCH  24  31
ATOM     31  O   UNL     1     -37.875  21.651   2.692  0.00  0.00    -0.379 OA
ATOM     32  H   UNL     1     -38.502  21.940   2.012  0.00  0.00    +0.211 HD
ENDBRANCH  24  31
BRANCH  26  34
ATOM     33  O   UNL     1     -35.102  20.674   3.300  0.00  0.00    -0.247 OA
ATOM     34  C   UNL     1     -35.389  21.311   4.303  0.00  0.00    +0.344 C 
BRANCH  34  35
ATOM     35  O   UNL     1     -34.884  21.061   5.537  0.00  0.00    -0.478 OA
ATOM     36  H   UNL     1     -34.243  20.388   5.653  0.00  0.00    +0.295 HD
ENDBRANCH  34  35
ENDBRANCH  26  34
ENDBRANCH  20  25
ENDBRANCH   1  20
TORSDOF 9
ENDMDL
MODEL 8
REMARK VINA RESULT:      -6.6      2.447      7.053
REMARK  Name = 193902
REMARK  9 active torsions:
REMARK  status: ('A' for Active; 'I' for Inactive)
REMARK    1  A    between atoms: C_1  and  C_2
REMARK    2  A    between atoms: C_1  and  O_20
REMARK    3  A    between atoms: C_3  and  N_9
REMARK    4  A    between atoms: O_20  and  C_25
REMARK    5  A    between atoms: C_22  and  O_27
REMARK    6  A    between atoms: C_23  and  O_29
REMARK    7  A    between atoms: C_24  and  O_31
REMARK    8  A    between atoms: C_26  and  C_34
REMARK    9  A    between atoms: C_34  and  O_35
REMARK                            x       y       z     vdW  Elec       q    Type
REMARK                         _______ _______ _______ _____ _____    ______ ____
ROOT
ATOM      1  C   UNL     1     -36.266  22.190   3.547  0.00  0.00    +0.173 C 
ENDROOT
BRANCH   1   2
ATOM      2  C   UNL     1     -35.992  23.529   4.166  0.00  0.00    +0.021 C 
ATOM      3  C   UNL     1     -36.491  24.697   3.596  0.00  0.00    +0.058 C 
ATOM      4  C   UNL     1     -35.227  23.583   5.329  0.00  0.00    -0.001 C 
ATOM      5  C   UNL     1     -36.222  25.929   4.193  0.00  0.00    +0.015 C 
ATOM      6  C   UNL     1     -34.958  24.815   5.925  0.00  0.00    -0.000 C 
ATOM      7  C   UNL     1     -35.456  25.987   5.357  0.00  0.00    +0.001 C 
BRANCH   3   9
ATOM      8  O   UNL     1     -39.281  24.419   3.621  0.00  0.00    -0.273 OA
ATOM      9  N   UNL     1     -37.282  24.658   2.397  0.00  0.00    -0.215 N 
ATOM     10  N   UNL     1     -37.374  24.585   0.021  0.00  0.00    -0.394 NA
ATOM     11  C   UNL     1     -36.708  24.722   1.125  0.00  0.00    +0.170 C 
ATOM     12  C   UNL     1     -38.677  24.506   2.555  0.00  0.00    +0.245 C 
ATOM     13  C   UNL     1     -39.447  24.380   1.299  0.00  0.00    +0.151 C 
ATOM     14  C   UNL     1     -38.759  24.400   0.086  0.00  0.00    +0.123 C 
ATOM     15  C   UNL     1     -35.231  25.024   0.971  0.00  0.00    +0.084 C 
ATOM     16  C   UNL     1     -40.838  24.217   1.330  0.00  0.00    -0.010 C 
ATOM     17  C   UNL     1     -39.480  24.255  -1.104  0.00  0.00    +0.028 C 
ATOM     18  C   UNL     1     -41.545  24.074   0.136  0.00  0.00    -0.004 C 
ATOM     19  C   UNL     1     -40.866  24.092  -1.080  0.00  0.00    +0.002 C 
ENDBRANCH   3   9
ENDBRANCH   1   2
BRANCH   1  20
ATOM     20  O   UNL     1     -35.240  21.894   2.612  0.00  0.00    -0.324 OA
BRANCH  20  25
ATOM     21  O   UNL     1     -37.193  21.252   1.509  0.00  0.00    -0.317 OA
ATOM     22  C   UNL     1     -35.832  19.106   0.169  0.00  0.00    +0.172 C 
ATOM     23  C   UNL     1     -35.206  19.872   1.335  0.00  0.00    +0.196 C 
ATOM     24  C   UNL     1     -37.357  19.226   0.179  0.00  0.00    +0.178 C 
ATOM     25  C   UNL     1     -35.770  21.289   1.433  0.00  0.00    +0.266 C 
ATOM     26  C   UNL     1     -37.783  20.678   0.349  0.00  0.00    +0.245 C 
BRANCH  22  27
ATOM     27  O   UNL     1     -35.497  17.722   0.274  0.00  0.00    -0.379 OA
ATOM     28  H   UNL     1     -35.662  17.284  -0.575  0.00  0.00    +0.211 HD
ENDBRANCH  22  27
BRANCH  23  29
ATOM     29  O   UNL     1     -33.795  19.965   1.136  0.00  0.00    -0.378 OA
ATOM     30  H   UNL     1     -33.401  20.484   1.855  0.00  0.00    +0.211 HD
ENDBRANCH  23  29
BRANCH  24  31
ATOM     31  O   UNL     1     -37.870  18.740  -1.061  0.00  0.00    -0.379 OA
ATOM     32  H   UNL     1     -38.081  19.488  -1.640  0.00  0.00    +0.211 HD
ENDBRANCH  24  31
BRANCH  26  34
ATOM     33  O   UNL     1     -40.128  20.725  -0.222  0.00  0.00    -0.247 OA
ATOM     34  C   UNL     1     -39.248  20.777   0.625  0.00  0.00    +0.344 C 
BRANCH  34  35
ATOM     35  O   UNL     1     -39.475  20.935   1.953  0.00  0.00    -0.478 OA
ATOM     36  H   UNL     1     -38.757  21.081   2.537  0.00  0.00    +0.295 HD
ENDBRANCH  34  35
ENDBRANCH  26  34
ENDBRANCH  20  25
ENDBRANCH   1  20
TORSDOF 9
ENDMDL
MODEL 9
REMARK VINA RESULT:      -6.5      4.175      7.069
REMARK  Name = 193902
REMARK  9 active torsions:
REMARK  status: ('A' for Active; 'I' for Inactive)
REMARK    1  A    between atoms: C_1  and  C_2
REMARK    2  A    between atoms: C_1  and  O_20
REMARK    3  A    between atoms: C_3  and  N_9
REMARK    4  A    between atoms: O_20  and  C_25
REMARK    5  A    between atoms: C_22  and  O_27
REMARK    6  A    between atoms: C_23  and  O_29
REMARK    7  A    between atoms: C_24  and  O_31
REMARK    8  A    between atoms: C_26  and  C_34
REMARK    9  A    between atoms: C_34  and  O_35
REMARK                            x       y       z     vdW  Elec       q    Type
REMARK                         _______ _______ _______ _____ _____    ______ ____
ROOT
ATOM      1  C   UNL     1     -35.250  25.611   5.254  0.00  0.00    +0.173 C 
ENDROOT
BRANCH   1   2
ATOM      2  C   UNL     1     -35.334  24.130   5.029  0.00  0.00    +0.021 C 
ATOM      3  C   UNL     1     -35.895  23.614   3.865  0.00  0.00    +0.058 C 
ATOM      4  C   UNL     1     -34.838  23.277   6.012  0.00  0.00    -0.001 C 
ATOM      5  C   UNL     1     -35.960  22.233   3.680  0.00  0.00    +0.015 C 
ATOM      6  C   UNL     1     -34.905  21.896   5.827  0.00  0.00    -0.000 C 
ATOM      7  C   UNL     1     -35.465  21.374   4.662  0.00  0.00    +0.001 C 
BRANCH   3   9
ATOM      8  O   UNL     1     -38.539  24.549   3.849  0.00  0.00    -0.273 OA
ATOM      9  N   UNL     1     -36.410  24.482   2.842  0.00  0.00    -0.215 N 
ATOM     10  N   UNL     1     -36.088  25.591   0.762  0.00  0.00    -0.394 NA
ATOM     11  C   UNL     1     -35.632  24.896   1.758  0.00  0.00    +0.170 C 
ATOM     12  C   UNL     1     -37.762  24.870   2.952  0.00  0.00    +0.245 C 
ATOM     13  C   UNL     1     -38.281  25.689   1.835  0.00  0.00    +0.151 C 
ATOM     14  C   UNL     1     -37.427  25.993   0.775  0.00  0.00    +0.123 C 
ATOM     15  C   UNL     1     -34.149  24.588   1.724  0.00  0.00    +0.084 C 
ATOM     16  C   UNL     1     -39.611  26.127   1.831  0.00  0.00    -0.010 C 
ATOM     17  C   UNL     1     -37.920  26.746  -0.296  0.00  0.00    +0.028 C 
ATOM     18  C   UNL     1     -40.089  26.877   0.756  0.00  0.00    -0.004 C 
ATOM     19  C   UNL     1     -39.244  27.186  -0.307  0.00  0.00    +0.002 C 
ENDBRANCH   3   9
ENDBRANCH   1   2
BRANCH   1  20
ATOM     20  O   UNL     1     -34.112  25.894   6.054  0.00  0.00    -0.324 OA
BRANCH  20  25
ATOM     21  O   UNL     1     -32.830  26.659   4.262  0.00  0.00    -0.317 OA
ATOM     22  C   UNL     1     -31.329  28.412   5.974  0.00  0.00    +0.172 C 
ATOM     23  C   UNL     1     -32.253  27.324   6.523  0.00  0.00    +0.196 C 
ATOM     24  C   UNL     1     -30.896  28.104   4.539  0.00  0.00    +0.178 C 
ATOM     25  C   UNL     1     -33.374  27.000   5.535  0.00  0.00    +0.266 C 
ATOM     26  C   UNL     1     -32.098  27.732   3.681  0.00  0.00    +0.245 C 
BRANCH  22  27
ATOM     27  O   UNL     1     -30.155  28.492   6.782  0.00  0.00    -0.379 OA
ATOM     28  H   UNL     1     -30.313  29.098   7.523  0.00  0.00    +0.211 HD
ENDBRANCH  22  27
BRANCH  23  29
ATOM     29  O   UNL     1     -32.846  27.778   7.739  0.00  0.00    -0.378 OA
ATOM     30  H   UNL     1     -32.416  28.600   8.022  0.00  0.00    +0.211 HD
ENDBRANCH  23  29
BRANCH  24  31
ATOM     31  O   UNL     1     -30.275  29.261   3.982  0.00  0.00    -0.379 OA
ATOM     32  H   UNL     1     -30.739  30.056   4.286  0.00  0.00    +0.211 HD
ENDBRANCH  24  31
BRANCH  26  34
ATOM     33  O   UNL     1     -32.148  27.471   1.281  0.00  0.00    -0.247 OA
ATOM     34  C   UNL     1     -31.662  27.176   2.364  0.00  0.00    +0.344 C 
BRANCH  34  35
ATOM     35  O   UNL     1     -30.649  26.290   2.530  0.00  0.00    -0.478 OA
ATOM     36  H   UNL     1     -30.832  25.417   2.816  0.00  0.00    +0.295 HD
ENDBRANCH  34  35
ENDBRANCH  26  34
ENDBRANCH  20  25
ENDBRANCH   1  20
TORSDOF 9
ENDMDL
