MODEL 1
REMARK VINA RESULT:      -5.5      0.000      0.000
REMARK  Name = 5488375
REMARK  5 active torsions:
REMARK  status: ('A' for Active; 'I' for Inactive)
REMARK    1  A    between atoms: C_3  and  C_10
REMARK    2  A    between atoms: C_7  and  C_19
REMARK    3  A    between atoms: N_9  and  C_12
REMARK    4  A    between atoms: C_12  and  C_16
REMARK    5  A    between atoms: C_19  and  N_22
REMARK                            x       y       z     vdW  Elec       q    Type
REMARK                         _______ _______ _______ _____ _____    ______ ____
ROOT
ATOM      1  O   UNL     1     -36.673  26.658   2.793  0.00  0.00    -0.273 OA
ATOM      2  N   UNL     1     -36.188  24.601   3.737  0.00  0.00    -0.272 N 
ATOM      3  C   UNL     1     -35.562  25.117   4.947  0.00  0.00    +0.152 C 
ATOM      4  C   UNL     1     -35.497  23.922   5.890  0.00  0.00    +0.031 C 
ATOM      5  C   UNL     1     -35.397  22.728   4.943  0.00  0.00    +0.024 C 
ATOM      6  C   UNL     1     -36.267  23.144   3.765  0.00  0.00    +0.094 C 
ATOM      7  C   UNL     1     -36.761  25.429   2.784  0.00  0.00    +0.244 C 
ENDROOT
BRANCH   3  10
ATOM      8  O   UNL     1     -33.294  24.823   4.261  0.00  0.00    -0.273 OA
ATOM      9  N   UNL     1     -34.090  26.980   4.628  0.00  0.00    -0.297 N 
ATOM     10  C   UNL     1     -34.195  25.600   4.566  0.00  0.00    +0.241 C 
ATOM     11  H   UNL     1     -34.886  27.499   4.887  0.00  0.00    +0.150 HD
BRANCH   9  12
ATOM     12  C   UNL     1     -32.870  27.694   4.331  0.00  0.00    +0.148 C 
ATOM     13  C   UNL     1     -33.144  28.906   3.454  0.00  0.00    +0.031 C 
BRANCH  12  16
ATOM     14  O   UNL     1     -31.702  27.318   6.427  0.00  0.00    -0.274 OA
ATOM     15  N   UNL     1     -32.261  29.471   5.852  0.00  0.00    -0.327 N 
ATOM     16  C   UNL     1     -32.228  28.107   5.647  0.00  0.00    +0.237 C 
ATOM     17  H   UNL     1     -31.874  29.854   6.672  0.00  0.00    +0.145 HD
ATOM     18  H   UNL     1     -32.671  30.061   5.180  0.00  0.00    +0.145 HD
ENDBRANCH  12  16
ENDBRANCH   9  12
ENDBRANCH   3  10
BRANCH   7  19
ATOM     19  C   UNL     1     -37.519  24.727   1.686  0.00  0.00    +0.149 C 
ATOM     20  C   UNL     1     -36.795  24.862   0.366  0.00  0.00    +0.031 C 
BRANCH  19  22
ATOM     21  O   UNL     1     -39.686  24.375   3.584  0.00  0.00    -0.275 OA
ATOM     22  N   UNL     1     -38.799  25.367   1.671  0.00  0.00    -0.298 N 
ATOM     23  C   UNL     1     -39.786  25.138   2.627  0.00  0.00    +0.223 C 
ATOM     24  C   UNL     1     -41.026  25.958   2.390  0.00  0.00    +0.095 C 
ATOM     25  H   UNL     1     -38.994  26.004   0.946  0.00  0.00    +0.150 HD
ENDBRANCH  19  22
ENDBRANCH   7  19
TORSDOF 5
ENDMDL
MODEL 2
REMARK VINA RESULT:      -5.4      3.915      7.128
REMARK  Name = 5488375
REMARK  5 active torsions:
REMARK  status: ('A' for Active; 'I' for Inactive)
REMARK    1  A    between atoms: C_3  and  C_10
REMARK    2  A    between atoms: C_7  and  C_19
REMARK    3  A    between atoms: N_9  and  C_12
REMARK    4  A    between atoms: C_12  and  C_16
REMARK    5  A    between atoms: C_19  and  N_22
REMARK                            x       y       z     vdW  Elec       q    Type
REMARK                         _______ _______ _______ _____ _____    ______ ____
ROOT
ATOM      1  O   UNL     1     -35.988  20.406   3.010  0.00  0.00    -0.273 OA
ATOM      2  N   UNL     1     -35.165  22.364   2.089  0.00  0.00    -0.272 N 
ATOM      3  C   UNL     1     -35.213  23.155   3.311  0.00  0.00    +0.152 C 
ATOM      4  C   UNL     1     -34.362  24.383   3.012  0.00  0.00    +0.031 C 
ATOM      5  C   UNL     1     -34.510  24.558   1.503  0.00  0.00    +0.024 C 
ATOM      6  C   UNL     1     -34.579  23.127   0.991  0.00  0.00    +0.094 C 
ATOM      7  C   UNL     1     -35.494  21.017   2.060  0.00  0.00    +0.244 C 
ENDROOT
BRANCH   3  10
ATOM      8  O   UNL     1     -37.016  24.065   4.584  0.00  0.00    -0.273 OA
ATOM      9  N   UNL     1     -37.465  23.142   2.494  0.00  0.00    -0.297 N 
ATOM     10  C   UNL     1     -36.648  23.517   3.548  0.00  0.00    +0.241 C 
ATOM     11  H   UNL     1     -37.051  22.707   1.713  0.00  0.00    +0.150 HD
BRANCH   9  12
ATOM     12  C   UNL     1     -38.893  23.358   2.485  0.00  0.00    +0.148 C 
ATOM     13  C   UNL     1     -39.250  24.629   1.732  0.00  0.00    +0.031 C 
BRANCH  12  16
ATOM     14  O   UNL     1     -40.473  22.213   1.039  0.00  0.00    -0.274 OA
ATOM     15  N   UNL     1     -38.979  20.953   2.246  0.00  0.00    -0.327 N 
ATOM     16  C   UNL     1     -39.553  22.144   1.849  0.00  0.00    +0.237 C 
ATOM     17  H   UNL     1     -39.325  20.101   1.897  0.00  0.00    +0.145 HD
ATOM     18  H   UNL     1     -38.224  20.957   2.877  0.00  0.00    +0.145 HD
ENDBRANCH  12  16
ENDBRANCH   9  12
ENDBRANCH   3  10
BRANCH   7  19
ATOM     19  C   UNL     1     -35.221  20.310   0.757  0.00  0.00    +0.149 C 
ATOM     20  C   UNL     1     -36.507  19.820   0.133  0.00  0.00    +0.031 C 
BRANCH  19  22
ATOM     21  O   UNL     1     -32.334  20.220   0.470  0.00  0.00    -0.275 OA
ATOM     22  N   UNL     1     -34.345  19.235   1.113  0.00  0.00    -0.298 N 
ATOM     23  C   UNL     1     -32.964  19.277   0.939  0.00  0.00    +0.223 C 
ATOM     24  C   UNL     1     -32.281  18.024   1.419  0.00  0.00    +0.095 C 
ATOM     25  H   UNL     1     -34.740  18.421   1.501  0.00  0.00    +0.150 HD
ENDBRANCH  19  22
ENDBRANCH   7  19
TORSDOF 5
ENDMDL
MODEL 3
REMARK VINA RESULT:      -5.4      2.636      6.678
REMARK  Name = 5488375
REMARK  5 active torsions:
REMARK  status: ('A' for Active; 'I' for Inactive)
REMARK    1  A    between atoms: C_3  and  C_10
REMARK    2  A    between atoms: C_7  and  C_19
REMARK    3  A    between atoms: N_9  and  C_12
REMARK    4  A    between atoms: C_12  and  C_16
REMARK    5  A    between atoms: C_19  and  N_22
REMARK                            x       y       z     vdW  Elec       q    Type
REMARK                         _______ _______ _______ _____ _____    ______ ____
ROOT
ATOM      1  O   UNL     1     -32.416  25.885   3.004  0.00  0.00    -0.273 OA
ATOM      2  N   UNL     1     -34.333  25.736   4.293  0.00  0.00    -0.272 N 
ATOM      3  C   UNL     1     -34.393  24.281   4.334  0.00  0.00    +0.152 C 
ATOM      4  C   UNL     1     -35.382  23.965   5.450  0.00  0.00    +0.031 C 
ATOM      5  C   UNL     1     -36.318  25.171   5.446  0.00  0.00    +0.024 C 
ATOM      6  C   UNL     1     -35.393  26.330   5.103  0.00  0.00    +0.094 C 
ATOM      7  C   UNL     1     -33.294  26.422   3.682  0.00  0.00    +0.244 C 
ENDROOT
BRANCH   3  10
ATOM      8  O   UNL     1     -35.124  24.610   2.086  0.00  0.00    -0.273 OA
ATOM      9  N   UNL     1     -35.077  22.449   2.950  0.00  0.00    -0.297 N 
ATOM     10  C   UNL     1     -34.895  23.821   2.999  0.00  0.00    +0.241 C 
ATOM     11  H   UNL     1     -34.857  21.919   3.751  0.00  0.00    +0.150 HD
BRANCH   9  12
ATOM     12  C   UNL     1     -35.575  21.759   1.783  0.00  0.00    +0.148 C 
ATOM     13  C   UNL     1     -34.614  20.665   1.343  0.00  0.00    +0.031 C 
BRANCH  12  16
ATOM     14  O   UNL     1     -37.958  21.860   2.240  0.00  0.00    -0.274 OA
ATOM     15  N   UNL     1     -36.929  19.807   2.230  0.00  0.00    -0.327 N 
ATOM     16  C   UNL     1     -36.942  21.182   2.119  0.00  0.00    +0.237 C 
ATOM     17  H   UNL     1     -37.759  19.323   2.444  0.00  0.00    +0.145 HD
ATOM     18  H   UNL     1     -36.091  19.309   2.094  0.00  0.00    +0.145 HD
ENDBRANCH  12  16
ENDBRANCH   9  12
ENDBRANCH   3  10
BRANCH   7  19
ATOM     19  C   UNL     1     -33.296  27.916   3.885  0.00  0.00    +0.149 C 
ATOM     20  C   UNL     1     -33.517  28.633   2.573  0.00  0.00    +0.031 C 
BRANCH  19  22
ATOM     21  O   UNL     1     -32.587  27.997   6.699  0.00  0.00    -0.275 OA
ATOM     22  N   UNL     1     -32.011  28.199   4.450  0.00  0.00    -0.298 N 
ATOM     23  C   UNL     1     -31.759  28.217   5.819  0.00  0.00    +0.223 C 
ATOM     24  C   UNL     1     -30.319  28.519   6.140  0.00  0.00    +0.095 C 
ATOM     25  H   UNL     1     -31.265  28.393   3.837  0.00  0.00    +0.150 HD
ENDBRANCH  19  22
ENDBRANCH   7  19
TORSDOF 5
ENDMDL
MODEL 4
REMARK VINA RESULT:      -5.4      2.887      4.699
REMARK  Name = 5488375
REMARK  5 active torsions:
REMARK  status: ('A' for Active; 'I' for Inactive)
REMARK    1  A    between atoms: C_3  and  C_10
REMARK    2  A    between atoms: C_7  and  C_19
REMARK    3  A    between atoms: N_9  and  C_12
REMARK    4  A    between atoms: C_12  and  C_16
REMARK    5  A    between atoms: C_19  and  N_22
REMARK                            x       y       z     vdW  Elec       q    Type
REMARK                         _______ _______ _______ _____ _____    ______ ____
ROOT
ATOM      1  O   UNL     1     -33.090  25.959   5.623  0.00  0.00    -0.273 OA
ATOM      2  N   UNL     1     -33.716  26.876   3.592  0.00  0.00    -0.272 N 
ATOM      3  C   UNL     1     -32.442  27.520   3.300  0.00  0.00    +0.152 C 
ATOM      4  C   UNL     1     -32.518  27.878   1.821  0.00  0.00    +0.031 C 
ATOM      5  C   UNL     1     -34.012  28.086   1.583  0.00  0.00    +0.024 C 
ATOM      6  C   UNL     1     -34.658  27.048   2.489  0.00  0.00    +0.094 C 
ATOM      7  C   UNL     1     -33.910  26.080   4.710  0.00  0.00    +0.244 C 
ENDROOT
BRANCH   3  10
ATOM      8  O   UNL     1     -33.146  29.674   4.049  0.00  0.00    -0.273 OA
ATOM      9  N   UNL     1     -31.296  28.681   5.054  0.00  0.00    -0.297 N 
ATOM     10  C   UNL     1     -32.356  28.741   4.165  0.00  0.00    +0.241 C 
ATOM     11  H   UNL     1     -30.729  27.876   5.052  0.00  0.00    +0.150 HD
BRANCH   9  12
ATOM     12  C   UNL     1     -30.981  29.743   5.982  0.00  0.00    +0.148 C 
ATOM     13  C   UNL     1     -31.791  29.608   7.262  0.00  0.00    +0.031 C 
BRANCH  12  16
ATOM     14  O   UNL     1     -28.677  30.488   5.806  0.00  0.00    -0.274 OA
ATOM     15  N   UNL     1     -29.148  28.687   7.152  0.00  0.00    -0.327 N 
ATOM     16  C   UNL     1     -29.489  29.694   6.272  0.00  0.00    +0.237 C 
ATOM     17  H   UNL     1     -28.208  28.561   7.413  0.00  0.00    +0.145 HD
ATOM     18  H   UNL     1     -29.845  28.096   7.517  0.00  0.00    +0.145 HD
ENDBRANCH  12  16
ENDBRANCH   9  12
ENDBRANCH   3  10
BRANCH   7  19
ATOM     19  C   UNL     1     -35.227  25.349   4.767  0.00  0.00    +0.149 C 
ATOM     20  C   UNL     1     -36.238  26.131   5.573  0.00  0.00    +0.031 C 
BRANCH  19  22
ATOM     21  O   UNL     1     -36.625  22.829   4.418  0.00  0.00    -0.275 OA
ATOM     22  N   UNL     1     -34.910  24.089   5.367  0.00  0.00    -0.298 N 
ATOM     23  C   UNL     1     -35.639  22.924   5.143  0.00  0.00    +0.223 C 
ATOM     24  C   UNL     1     -35.075  21.737   5.878  0.00  0.00    +0.095 C 
ATOM     25  H   UNL     1     -34.134  24.043   5.972  0.00  0.00    +0.150 HD
ENDBRANCH  19  22
ENDBRANCH   7  19
TORSDOF 5
ENDMDL
MODEL 5
REMARK VINA RESULT:      -5.4      1.883      5.974
REMARK  Name = 5488375
REMARK  5 active torsions:
REMARK  status: ('A' for Active; 'I' for Inactive)
REMARK    1  A    between atoms: C_3  and  C_10
REMARK    2  A    between atoms: C_7  and  C_19
REMARK    3  A    between atoms: N_9  and  C_12
REMARK    4  A    between atoms: C_12  and  C_16
REMARK    5  A    between atoms: C_19  and  N_22
REMARK                            x       y       z     vdW  Elec       q    Type
REMARK                         _______ _______ _______ _____ _____    ______ ____
ROOT
ATOM      1  O   UNL     1     -35.523  26.655   5.065  0.00  0.00    -0.273 OA
ATOM      2  N   UNL     1     -36.012  26.466   2.810  0.00  0.00    -0.272 N 
ATOM      3  C   UNL     1     -37.441  26.229   2.969  0.00  0.00    +0.152 C 
ATOM      4  C   UNL     1     -38.027  26.444   1.579  0.00  0.00    +0.031 C 
ATOM      5  C   UNL     1     -36.878  26.064   0.648  0.00  0.00    +0.024 C 
ATOM      6  C   UNL     1     -35.645  26.545   1.399  0.00  0.00    +0.094 C 
ATOM      7  C   UNL     1     -35.178  26.733   3.885  0.00  0.00    +0.244 C 
ENDROOT
BRANCH   3  10
ATOM      8  O   UNL     1     -38.711  24.340   3.687  0.00  0.00    -0.273 OA
ATOM      9  N   UNL     1     -36.394  24.152   3.543  0.00  0.00    -0.297 N 
ATOM     10  C   UNL     1     -37.606  24.813   3.430  0.00  0.00    +0.241 C 
ATOM     11  H   UNL     1     -35.572  24.640   3.307  0.00  0.00    +0.150 HD
BRANCH   9  12
ATOM     12  C   UNL     1     -36.279  22.784   3.990  0.00  0.00    +0.148 C 
ATOM     13  C   UNL     1     -35.616  21.916   2.932  0.00  0.00    +0.031 C 
BRANCH  12  16
ATOM     14  O   UNL     1     -34.505  23.493   5.490  0.00  0.00    -0.274 OA
ATOM     15  N   UNL     1     -35.988  21.898   6.221  0.00  0.00    -0.327 N 
ATOM     16  C   UNL     1     -35.478  22.773   5.284  0.00  0.00    +0.237 C 
ATOM     17  H   UNL     1     -35.550  21.807   7.098  0.00  0.00    +0.145 HD
ATOM     18  H   UNL     1     -36.788  21.364   6.012  0.00  0.00    +0.145 HD
ENDBRANCH  12  16
ENDBRANCH   9  12
ENDBRANCH   3  10
BRANCH   7  19
ATOM     19  C   UNL     1     -33.767  27.127   3.528  0.00  0.00    +0.149 C 
ATOM     20  C   UNL     1     -32.972  25.924   3.076  0.00  0.00    +0.031 C 
BRANCH  19  22
ATOM     21  O   UNL     1     -31.623  29.070   3.762  0.00  0.00    -0.275 OA
ATOM     22  N   UNL     1     -33.244  27.704   4.729  0.00  0.00    -0.298 N 
ATOM     23  C   UNL     1     -32.208  28.634   4.749  0.00  0.00    +0.223 C 
ATOM     24  C   UNL     1     -31.871  29.097   6.142  0.00  0.00    +0.095 C 
ATOM     25  H   UNL     1     -33.638  27.429   5.588  0.00  0.00    +0.150 HD
ENDBRANCH  19  22
ENDBRANCH   7  19
TORSDOF 5
ENDMDL
MODEL 6
REMARK VINA RESULT:      -5.2      6.020      8.519
REMARK  Name = 5488375
REMARK  5 active torsions:
REMARK  status: ('A' for Active; 'I' for Inactive)
REMARK    1  A    between atoms: C_3  and  C_10
REMARK    2  A    between atoms: C_7  and  C_19
REMARK    3  A    between atoms: N_9  and  C_12
REMARK    4  A    between atoms: C_12  and  C_16
REMARK    5  A    between atoms: C_19  and  N_22
REMARK                            x       y       z     vdW  Elec       q    Type
REMARK                         _______ _______ _______ _____ _____    ______ ____
ROOT
ATOM      1  O   UNL     1     -34.840  19.759   2.748  0.00  0.00    -0.273 OA
ATOM      2  N   UNL     1     -36.399  20.215   1.100  0.00  0.00    -0.272 N 
ATOM      3  C   UNL     1     -36.450  18.870   0.542  0.00  0.00    +0.152 C 
ATOM      4  C   UNL     1     -37.701  18.858  -0.329  0.00  0.00    +0.031 C 
ATOM      5  C   UNL     1     -37.835  20.312  -0.776  0.00  0.00    +0.024 C 
ATOM      6  C   UNL     1     -37.358  21.096   0.438  0.00  0.00    +0.094 C 
ATOM      7  C   UNL     1     -35.640  20.531   2.216  0.00  0.00    +0.244 C 
ENDROOT
BRANCH   3  10
ATOM      8  O   UNL     1     -35.082  19.166  -1.391  0.00  0.00    -0.273 OA
ATOM      9  N   UNL     1     -34.267  17.898   0.383  0.00  0.00    -0.297 N 
ATOM     10  C   UNL     1     -35.205  18.680  -0.270  0.00  0.00    +0.241 C 
ATOM     11  H   UNL     1     -34.482  17.564   1.285  0.00  0.00    +0.150 HD
BRANCH   9  12
ATOM     12  C   UNL     1     -32.990  17.547  -0.195  0.00  0.00    +0.148 C 
ATOM     13  C   UNL     1     -31.861  18.330   0.456  0.00  0.00    +0.031 C 
BRANCH  12  16
ATOM     14  O   UNL     1     -31.729  15.543   0.347  0.00  0.00    -0.274 OA
ATOM     15  N   UNL     1     -33.928  15.320  -0.282  0.00  0.00    -0.327 N 
ATOM     16  C   UNL     1     -32.786  16.049  -0.022  0.00  0.00    +0.237 C 
ATOM     17  H   UNL     1     -33.913  14.339  -0.201  0.00  0.00    +0.145 HD
ATOM     18  H   UNL     1     -34.756  15.780  -0.547  0.00  0.00    +0.145 HD
ENDBRANCH  12  16
ENDBRANCH   9  12
ENDBRANCH   3  10
BRANCH   7  19
ATOM     19  C   UNL     1     -35.839  21.921   2.764  0.00  0.00    +0.149 C 
ATOM     20  C   UNL     1     -34.937  22.908   2.060  0.00  0.00    +0.031 C 
BRANCH  19  22
ATOM     21  O   UNL     1     -36.448  23.821   4.872  0.00  0.00    -0.275 OA
ATOM     22  N   UNL     1     -35.532  21.801   4.157  0.00  0.00    -0.298 N 
ATOM     23  C   UNL     1     -35.863  22.767   5.104  0.00  0.00    +0.223 C 
ATOM     24  C   UNL     1     -35.446  22.379   6.498  0.00  0.00    +0.095 C 
ATOM     25  H   UNL     1     -35.061  20.993   4.463  0.00  0.00    +0.150 HD
ENDBRANCH  19  22
ENDBRANCH   7  19
TORSDOF 5
ENDMDL
MODEL 7
REMARK VINA RESULT:      -5.2      2.314      6.663
REMARK  Name = 5488375
REMARK  5 active torsions:
REMARK  status: ('A' for Active; 'I' for Inactive)
REMARK    1  A    between atoms: C_3  and  C_10
REMARK    2  A    between atoms: C_7  and  C_19
REMARK    3  A    between atoms: N_9  and  C_12
REMARK    4  A    between atoms: C_12  and  C_16
REMARK    5  A    between atoms: C_19  and  N_22
REMARK                            x       y       z     vdW  Elec       q    Type
REMARK                         _______ _______ _______ _____ _____    ______ ____
ROOT
ATOM      1  O   UNL     1     -35.526  26.041   1.551  0.00  0.00    -0.273 OA
ATOM      2  N   UNL     1     -35.168  25.274   3.705  0.00  0.00    -0.272 N 
ATOM      3  C   UNL     1     -35.663  23.922   3.485  0.00  0.00    +0.152 C 
ATOM      4  C   UNL     1     -35.173  23.128   4.690  0.00  0.00    +0.031 C 
ATOM      5  C   UNL     1     -35.096  24.177   5.798  0.00  0.00    +0.024 C 
ATOM      6  C   UNL     1     -34.648  25.431   5.061  0.00  0.00    +0.094 C 
ATOM      7  C   UNL     1     -35.074  26.209   2.685  0.00  0.00    +0.244 C 
ENDROOT
BRANCH   3  10
ATOM      8  O   UNL     1     -37.788  24.781   4.153  0.00  0.00    -0.273 OA
ATOM      9  N   UNL     1     -37.708  23.097   2.547  0.00  0.00    -0.297 N 
ATOM     10  C   UNL     1     -37.159  24.001   3.442  0.00  0.00    +0.241 C 
ATOM     11  H   UNL     1     -37.097  22.521   2.031  0.00  0.00    +0.150 HD
BRANCH   9  12
ATOM     12  C   UNL     1     -39.130  22.958   2.335  0.00  0.00    +0.148 C 
ATOM     13  C   UNL     1     -39.625  23.938   1.283  0.00  0.00    +0.031 C 
BRANCH  12  16
ATOM     14  O   UNL     1     -40.511  21.121   1.551  0.00  0.00    -0.274 OA
ATOM     15  N   UNL     1     -38.284  20.726   1.952  0.00  0.00    -0.327 N 
ATOM     16  C   UNL     1     -39.410  21.523   1.918  0.00  0.00    +0.237 C 
ATOM     17  H   UNL     1     -38.346  19.776   1.701  0.00  0.00    +0.145 HD
ATOM     18  H   UNL     1     -37.419  21.107   2.227  0.00  0.00    +0.145 HD
ENDBRANCH  12  16
ENDBRANCH   9  12
ENDBRANCH   3  10
BRANCH   7  19
ATOM     19  C   UNL     1     -34.377  27.496   3.046  0.00  0.00    +0.149 C 
ATOM     20  C   UNL     1     -35.165  28.687   2.552  0.00  0.00    +0.031 C 
BRANCH  19  22
ATOM     21  O   UNL     1     -31.780  27.447   4.341  0.00  0.00    -0.275 OA
ATOM     22  N   UNL     1     -33.095  27.394   2.418  0.00  0.00    -0.298 N 
ATOM     23  C   UNL     1     -31.893  27.378   3.121  0.00  0.00    +0.223 C 
ATOM     24  C   UNL     1     -30.695  27.237   2.219  0.00  0.00    +0.095 C 
ATOM     25  H   UNL     1     -33.060  27.332   1.436  0.00  0.00    +0.150 HD
ENDBRANCH  19  22
ENDBRANCH   7  19
TORSDOF 5
ENDMDL
MODEL 8
REMARK VINA RESULT:      -5.2      1.769      1.918
REMARK  Name = 5488375
REMARK  5 active torsions:
REMARK  status: ('A' for Active; 'I' for Inactive)
REMARK    1  A    between atoms: C_3  and  C_10
REMARK    2  A    between atoms: C_7  and  C_19
REMARK    3  A    between atoms: N_9  and  C_12
REMARK    4  A    between atoms: C_12  and  C_16
REMARK    5  A    between atoms: C_19  and  N_22
REMARK                            x       y       z     vdW  Elec       q    Type
REMARK                         _______ _______ _______ _____ _____    ______ ____
ROOT
ATOM      1  O   UNL     1     -37.535  25.900   3.547  0.00  0.00    -0.273 OA
ATOM      2  N   UNL     1     -36.457  23.910   4.031  0.00  0.00    -0.272 N 
ATOM      3  C   UNL     1     -35.958  24.305   5.342  0.00  0.00    +0.152 C 
ATOM      4  C   UNL     1     -35.526  23.001   6.002  0.00  0.00    +0.031 C 
ATOM      5  C   UNL     1     -35.129  22.120   4.819  0.00  0.00    +0.024 C 
ATOM      6  C   UNL     1     -36.122  22.519   3.738  0.00  0.00    +0.094 C 
ATOM      7  C   UNL     1     -37.274  24.729   3.267  0.00  0.00    +0.244 C 
ENDROOT
BRANCH   3  10
ATOM      8  O   UNL     1     -34.101  25.632   6.041  0.00  0.00    -0.273 OA
ATOM      9  N   UNL     1     -34.644  25.556   3.778  0.00  0.00    -0.297 N 
ATOM     10  C   UNL     1     -34.798  25.225   5.114  0.00  0.00    +0.241 C 
ATOM     11  H   UNL     1     -35.268  25.165   3.124  0.00  0.00    +0.150 HD
BRANCH   9  12
ATOM     12  C   UNL     1     -33.613  26.446   3.297  0.00  0.00    +0.148 C 
ATOM     13  C   UNL     1     -33.334  26.215   1.820  0.00  0.00    +0.031 C 
BRANCH  12  16
ATOM     14  O   UNL     1     -33.331  28.756   3.995  0.00  0.00    -0.274 OA
ATOM     15  N   UNL     1     -35.377  28.096   3.184  0.00  0.00    -0.327 N 
ATOM     16  C   UNL     1     -34.065  27.877   3.550  0.00  0.00    +0.237 C 
ATOM     17  H   UNL     1     -35.777  28.987   3.302  0.00  0.00    +0.145 HD
ATOM     18  H   UNL     1     -35.911  27.361   2.805  0.00  0.00    +0.145 HD
ENDBRANCH  12  16
ENDBRANCH   9  12
ENDBRANCH   3  10
BRANCH   7  19
ATOM     19  C   UNL     1     -37.842  24.098   2.021  0.00  0.00    +0.149 C 
ATOM     20  C   UNL     1     -36.914  24.302   0.846  0.00  0.00    +0.031 C 
BRANCH  19  22
ATOM     21  O   UNL     1     -40.438  22.844   1.675  0.00  0.00    -0.275 OA
ATOM     22  N   UNL     1     -39.104  24.748   1.837  0.00  0.00    -0.298 N 
ATOM     23  C   UNL     1     -40.307  24.065   1.677  0.00  0.00    +0.223 C 
ATOM     24  C   UNL     1     -41.485  24.991   1.527  0.00  0.00    +0.095 C 
ATOM     25  H   UNL     1     -39.123  25.733   1.821  0.00  0.00    +0.150 HD
ENDBRANCH  19  22
ENDBRANCH   7  19
TORSDOF 5
ENDMDL
MODEL 9
REMARK VINA RESULT:      -5.2      1.962      2.098
REMARK  Name = 5488375
REMARK  5 active torsions:
REMARK  status: ('A' for Active; 'I' for Inactive)
REMARK    1  A    between atoms: C_3  and  C_10
REMARK    2  A    between atoms: C_7  and  C_19
REMARK    3  A    between atoms: N_9  and  C_12
REMARK    4  A    between atoms: C_12  and  C_16
REMARK    5  A    between atoms: C_19  and  N_22
REMARK                            x       y       z     vdW  Elec       q    Type
REMARK                         _______ _______ _______ _____ _____    ______ ____
ROOT
ATOM      1  O   UNL     1     -35.229  25.368   1.357  0.00  0.00    -0.273 OA
ATOM      2  N   UNL     1     -35.274  24.379   3.449  0.00  0.00    -0.272 N 
ATOM      3  C   UNL     1     -35.227  25.615   4.219  0.00  0.00    +0.152 C 
ATOM      4  C   UNL     1     -35.622  25.207   5.633  0.00  0.00    +0.031 C 
ATOM      5  C   UNL     1     -35.154  23.756   5.726  0.00  0.00    +0.024 C 
ATOM      6  C   UNL     1     -35.405  23.218   4.325  0.00  0.00    +0.094 C 
ATOM      7  C   UNL     1     -35.344  24.365   2.064  0.00  0.00    +0.244 C 
ENDROOT
BRANCH   3  10
ATOM      8  O   UNL     1     -32.930  25.498   3.580  0.00  0.00    -0.273 OA
ATOM      9  N   UNL     1     -33.660  27.319   4.834  0.00  0.00    -0.297 N 
ATOM     10  C   UNL     1     -33.818  26.120   4.158  0.00  0.00    +0.241 C 
ATOM     11  H   UNL     1     -34.450  27.723   5.260  0.00  0.00    +0.150 HD
BRANCH   9  12
ATOM     12  C   UNL     1     -32.393  28.004   4.944  0.00  0.00    +0.148 C 
ATOM     13  C   UNL     1     -32.401  29.302   4.152  0.00  0.00    +0.031 C 
BRANCH  12  16
ATOM     14  O   UNL     1     -31.661  29.320   6.849  0.00  0.00    -0.274 OA
ATOM     15  N   UNL     1     -32.485  27.208   7.225  0.00  0.00    -0.327 N 
ATOM     16  C   UNL     1     -32.120  28.266   6.417  0.00  0.00    +0.237 C 
ATOM     17  H   UNL     1     -32.355  27.266   8.199  0.00  0.00    +0.145 HD
ATOM     18  H   UNL     1     -32.876  26.397   6.828  0.00  0.00    +0.145 HD
ENDBRANCH  12  16
ENDBRANCH   9  12
ENDBRANCH   3  10
BRANCH   7  19
ATOM     19  C   UNL     1     -35.564  23.012   1.439  0.00  0.00    +0.149 C 
ATOM     20  C   UNL     1     -34.420  22.655   0.517  0.00  0.00    +0.031 C 
BRANCH  19  22
ATOM     21  O   UNL     1     -38.218  22.371   2.426  0.00  0.00    -0.275 OA
ATOM     22  N   UNL     1     -36.806  23.141   0.739  0.00  0.00    -0.298 N 
ATOM     23  C   UNL     1     -38.040  22.808   1.292  0.00  0.00    +0.223 C 
ATOM     24  C   UNL     1     -39.186  23.064   0.350  0.00  0.00    +0.095 C 
ATOM     25  H   UNL     1     -36.788  23.483  -0.184  0.00  0.00    +0.150 HD
ENDBRANCH  19  22
ENDBRANCH   7  19
TORSDOF 5
ENDMDL
