MODEL 1
REMARK VINA RESULT:      -7.1      0.000      0.000
REMARK  Name = 214348
REMARK  7 active torsions:
REMARK  status: ('A' for Active; 'I' for Inactive)
REMARK    1  A    between atoms: N_1  and  C_6
REMARK    2  A    between atoms: C_4  and  C_16
REMARK    3  A    between atoms: C_5  and  C_24
REMARK    4  A    between atoms: C_11  and  C_13
REMARK    5  A    between atoms: C_13  and  O_14
REMARK    6  A    between atoms: C_17  and  O_22
REMARK    7  A    between atoms: C_25  and  O_30
REMARK                            x       y       z     vdW  Elec       q    Type
REMARK                         _______ _______ _______ _____ _____    ______ ____
ROOT
ATOM      1  N   UNL     1     -34.531  25.614   3.310  0.00  0.00    -0.153 N 
ATOM      2  N   UNL     1     -33.418  25.982   3.963  0.00  0.00    -0.105 NA
ATOM      3  N   UNL     1     -34.743  27.783   3.477  0.00  0.00    -0.332 NA
ATOM      4  C   UNL     1     -35.312  26.691   3.024  0.00  0.00    +0.221 C 
ATOM      5  C   UNL     1     -33.597  27.301   4.039  0.00  0.00    +0.108 C 
ENDROOT
BRANCH   1   6
ATOM      6  C   UNL     1     -34.769  24.277   3.005  0.00  0.00    +0.077 C 
ATOM      7  C   UNL     1     -35.221  23.414   3.997  0.00  0.00    +0.017 C 
ATOM      8  C   UNL     1     -34.554  23.819   1.710  0.00  0.00    +0.017 C 
ATOM      9  C   UNL     1     -35.460  22.075   3.690  0.00  0.00    +0.008 C 
ATOM     10  C   UNL     1     -34.793  22.479   1.404  0.00  0.00    +0.008 C 
ATOM     11  C   UNL     1     -35.245  21.607   2.394  0.00  0.00    +0.076 C 
BRANCH  11  13
ATOM     12  O   UNL     1     -34.742  19.475   1.431  0.00  0.00    -0.245 OA
ATOM     13  C   UNL     1     -35.497  20.211   2.074  0.00  0.00    +0.338 C 
BRANCH  13  14
ATOM     14  O   UNL     1     -36.687  19.771   2.569  0.00  0.00    -0.477 OA
ATOM     15  H   UNL     1     -37.206  20.331   3.111  0.00  0.00    +0.295 HD
ENDBRANCH  13  14
ENDBRANCH  11  13
ENDBRANCH   1   6
BRANCH   4  16
ATOM     16  C   UNL     1     -36.576  26.623   2.327  0.00  0.00    +0.080 C 
ATOM     17  C   UNL     1     -37.732  26.200   2.982  0.00  0.00    +0.137 C 
ATOM     18  C   UNL     1     -36.630  26.986   0.981  0.00  0.00    +0.007 C 
ATOM     19  C   UNL     1     -38.943  26.141   2.291  0.00  0.00    +0.037 C 
ATOM     20  C   UNL     1     -37.840  26.927   0.290  0.00  0.00    +0.000 C 
ATOM     21  C   UNL     1     -38.997  26.504   0.946  0.00  0.00    +0.003 C 
BRANCH  17  22
ATOM     22  O   UNL     1     -37.708  25.839   4.297  0.00  0.00    -0.505 OA
ATOM     23  H   UNL     1     -37.376  26.434   4.940  0.00  0.00    +0.292 HD
ENDBRANCH  17  22
ENDBRANCH   4  16
BRANCH   5  24
ATOM     24  C   UNL     1     -32.645  28.174   4.673  0.00  0.00    +0.109 C 
ATOM     25  C   UNL     1     -32.227  27.946   5.984  0.00  0.00    +0.144 C 
ATOM     26  C   UNL     1     -32.140  29.260   3.960  0.00  0.00    +0.014 C 
ATOM     27  C   UNL     1     -31.303  28.803   6.582  0.00  0.00    +0.037 C 
ATOM     28  C   UNL     1     -31.216  30.119   4.557  0.00  0.00    +0.001 C 
ATOM     29  C   UNL     1     -30.799  29.890   5.869  0.00  0.00    +0.003 C 
BRANCH  25  30
ATOM     30  O   UNL     1     -32.705  26.891   6.706  0.00  0.00    -0.505 OA
ATOM     31  H   UNL     1     -33.625  26.716   6.726  0.00  0.00    +0.292 HD
ENDBRANCH  25  30
ENDBRANCH   5  24
TORSDOF 7
ENDMDL
MODEL 2
REMARK VINA RESULT:      -6.8      3.004      3.741
REMARK  Name = 214348
REMARK  7 active torsions:
REMARK  status: ('A' for Active; 'I' for Inactive)
REMARK    1  A    between atoms: N_1  and  C_6
REMARK    2  A    between atoms: C_4  and  C_16
REMARK    3  A    between atoms: C_5  and  C_24
REMARK    4  A    between atoms: C_11  and  C_13
REMARK    5  A    between atoms: C_13  and  O_14
REMARK    6  A    between atoms: C_17  and  O_22
REMARK    7  A    between atoms: C_25  and  O_30
REMARK                            x       y       z     vdW  Elec       q    Type
REMARK                         _______ _______ _______ _____ _____    ______ ____
ROOT
ATOM      1  N   UNL     1     -36.208  26.649   2.553  0.00  0.00    -0.153 N 
ATOM      2  N   UNL     1     -35.338  27.670   2.583  0.00  0.00    -0.105 NA
ATOM      3  N   UNL     1     -37.114  28.117   1.211  0.00  0.00    -0.332 NA
ATOM      4  C   UNL     1     -37.260  26.923   1.735  0.00  0.00    +0.221 C 
ATOM      5  C   UNL     1     -35.933  28.530   1.755  0.00  0.00    +0.108 C 
ENDROOT
BRANCH   1   6
ATOM      6  C   UNL     1     -35.978  25.496   3.298  0.00  0.00    +0.077 C 
ATOM      7  C   UNL     1     -36.103  25.533   4.682  0.00  0.00    +0.017 C 
ATOM      8  C   UNL     1     -35.626  24.318   2.650  0.00  0.00    +0.017 C 
ATOM      9  C   UNL     1     -35.874  24.377   5.428  0.00  0.00    +0.008 C 
ATOM     10  C   UNL     1     -35.396  23.162   3.395  0.00  0.00    +0.008 C 
ATOM     11  C   UNL     1     -35.520  23.191   4.784  0.00  0.00    +0.076 C 
BRANCH  11  13
ATOM     12  O   UNL     1     -35.106  21.943   6.783  0.00  0.00    -0.245 OA
ATOM     13  C   UNL     1     -35.282  21.985   5.561  0.00  0.00    +0.338 C 
BRANCH  13  14
ATOM     14  O   UNL     1     -35.274  20.863   4.791  0.00  0.00    -0.477 OA
ATOM     15  H   UNL     1     -36.082  20.472   4.522  0.00  0.00    +0.295 HD
ENDBRANCH  13  14
ENDBRANCH  11  13
ENDBRANCH   1   6
BRANCH   4  16
ATOM     16  C   UNL     1     -38.364  26.022   1.494  0.00  0.00    +0.080 C 
ATOM     17  C   UNL     1     -39.391  25.884   2.427  0.00  0.00    +0.137 C 
ATOM     18  C   UNL     1     -38.393  25.286   0.309  0.00  0.00    +0.007 C 
ATOM     19  C   UNL     1     -40.448  25.009   2.175  0.00  0.00    +0.037 C 
ATOM     20  C   UNL     1     -39.450  24.411   0.057  0.00  0.00    +0.000 C 
ATOM     21  C   UNL     1     -40.477  24.273   0.990  0.00  0.00    +0.003 C 
BRANCH  17  22
ATOM     22  O   UNL     1     -39.388  26.590   3.593  0.00  0.00    -0.505 OA
ATOM     23  H   UNL     1     -39.756  27.451   3.620  0.00  0.00    +0.292 HD
ENDBRANCH  17  22
ENDBRANCH   4  16
BRANCH   5  24
ATOM     24  C   UNL     1     -35.374  29.820   1.448  0.00  0.00    +0.109 C 
ATOM     25  C   UNL     1     -35.145  30.759   2.454  0.00  0.00    +0.144 C 
ATOM     26  C   UNL     1     -35.059  30.126   0.125  0.00  0.00    +0.014 C 
ATOM     27  C   UNL     1     -34.602  32.003   2.137  0.00  0.00    +0.037 C 
ATOM     28  C   UNL     1     -34.516  31.370  -0.194  0.00  0.00    +0.001 C 
ATOM     29  C   UNL     1     -34.288  32.310   0.813  0.00  0.00    +0.003 C 
BRANCH  25  30
ATOM     30  O   UNL     1     -35.444  30.487   3.757  0.00  0.00    -0.505 OA
ATOM     31  H   UNL     1     -36.296  30.171   3.987  0.00  0.00    +0.292 HD
ENDBRANCH  25  30
ENDBRANCH   5  24
TORSDOF 7
ENDMDL
MODEL 3
REMARK VINA RESULT:      -6.7      1.825      4.357
REMARK  Name = 214348
REMARK  7 active torsions:
REMARK  status: ('A' for Active; 'I' for Inactive)
REMARK    1  A    between atoms: N_1  and  C_6
REMARK    2  A    between atoms: C_4  and  C_16
REMARK    3  A    between atoms: C_5  and  C_24
REMARK    4  A    between atoms: C_11  and  C_13
REMARK    5  A    between atoms: C_13  and  O_14
REMARK    6  A    between atoms: C_17  and  O_22
REMARK    7  A    between atoms: C_25  and  O_30
REMARK                            x       y       z     vdW  Elec       q    Type
REMARK                         _______ _______ _______ _____ _____    ______ ____
ROOT
ATOM      1  N   UNL     1     -35.283  26.327   3.537  0.00  0.00    -0.153 N 
ATOM      2  N   UNL     1     -34.703  27.491   3.869  0.00  0.00    -0.105 NA
ATOM      3  N   UNL     1     -33.374  25.706   4.402  0.00  0.00    -0.332 NA
ATOM      4  C   UNL     1     -34.486  25.272   3.857  0.00  0.00    +0.221 C 
ATOM      5  C   UNL     1     -33.554  27.059   4.387  0.00  0.00    +0.108 C 
ENDROOT
BRANCH   1   6
ATOM      6  C   UNL     1     -36.542  26.302   2.944  0.00  0.00    +0.077 C 
ATOM      7  C   UNL     1     -37.596  25.666   3.590  0.00  0.00    +0.017 C 
ATOM      8  C   UNL     1     -36.733  26.914   1.710  0.00  0.00    +0.017 C 
ATOM      9  C   UNL     1     -38.857  25.642   2.995  0.00  0.00    +0.008 C 
ATOM     10  C   UNL     1     -37.994  26.890   1.115  0.00  0.00    +0.008 C 
ATOM     11  C   UNL     1     -39.056  26.254   1.758  0.00  0.00    +0.076 C 
BRANCH  11  13
ATOM     12  O   UNL     1     -40.835  25.298   0.474  0.00  0.00    -0.245 OA
ATOM     13  C   UNL     1     -40.372  26.230   1.139  0.00  0.00    +0.338 C 
BRANCH  13  14
ATOM     14  O   UNL     1     -41.076  27.373   1.370  0.00  0.00    -0.477 OA
ATOM     15  H   UNL     1     -40.944  28.123   0.825  0.00  0.00    +0.295 HD
ENDBRANCH  13  14
ENDBRANCH  11  13
ENDBRANCH   1   6
BRANCH   4  16
ATOM     16  C   UNL     1     -34.830  23.888   3.624  0.00  0.00    +0.080 C 
ATOM     17  C   UNL     1     -35.130  23.036   4.687  0.00  0.00    +0.137 C 
ATOM     18  C   UNL     1     -34.857  23.406   2.315  0.00  0.00    +0.007 C 
ATOM     19  C   UNL     1     -35.459  21.703   4.441  0.00  0.00    +0.037 C 
ATOM     20  C   UNL     1     -35.186  22.073   2.069  0.00  0.00    +0.000 C 
ATOM     21  C   UNL     1     -35.487  21.221   3.131  0.00  0.00    +0.003 C 
BRANCH  17  22
ATOM     22  O   UNL     1     -35.110  23.480   5.976  0.00  0.00    -0.505 OA
ATOM     23  H   UNL     1     -34.753  24.323   6.175  0.00  0.00    +0.292 HD
ENDBRANCH  17  22
ENDBRANCH   4  16
BRANCH   5  24
ATOM     24  C   UNL     1     -32.553  27.955   4.902  0.00  0.00    +0.109 C 
ATOM     25  C   UNL     1     -32.193  27.930   6.249  0.00  0.00    +0.144 C 
ATOM     26  C   UNL     1     -31.939  28.857   4.033  0.00  0.00    +0.014 C 
ATOM     27  C   UNL     1     -31.221  28.807   6.729  0.00  0.00    +0.037 C 
ATOM     28  C   UNL     1     -30.966  29.735   4.512  0.00  0.00    +0.001 C 
ATOM     29  C   UNL     1     -30.608  29.710   5.860  0.00  0.00    +0.003 C 
BRANCH  25  30
ATOM     30  O   UNL     1     -32.777  27.058   7.121  0.00  0.00    -0.505 OA
ATOM     31  H   UNL     1     -32.877  26.156   6.886  0.00  0.00    +0.292 HD
ENDBRANCH  25  30
ENDBRANCH   5  24
TORSDOF 7
ENDMDL
MODEL 4
REMARK VINA RESULT:      -6.7      3.460      7.772
REMARK  Name = 214348
REMARK  7 active torsions:
REMARK  status: ('A' for Active; 'I' for Inactive)
REMARK    1  A    between atoms: N_1  and  C_6
REMARK    2  A    between atoms: C_4  and  C_16
REMARK    3  A    between atoms: C_5  and  C_24
REMARK    4  A    between atoms: C_11  and  C_13
REMARK    5  A    between atoms: C_13  and  O_14
REMARK    6  A    between atoms: C_17  and  O_22
REMARK    7  A    between atoms: C_25  and  O_30
REMARK                            x       y       z     vdW  Elec       q    Type
REMARK                         _______ _______ _______ _____ _____    ______ ____
ROOT
ATOM      1  N   UNL     1     -35.337  21.529   1.919  0.00  0.00    -0.153 N 
ATOM      2  N   UNL     1     -34.358  20.613   1.976  0.00  0.00    -0.105 NA
ATOM      3  N   UNL     1     -35.896  20.101   0.362  0.00  0.00    -0.332 NA
ATOM      4  C   UNL     1     -36.247  21.216   0.957  0.00  0.00    +0.221 C 
ATOM      5  C   UNL     1     -34.744  19.774   1.015  0.00  0.00    +0.108 C 
ENDROOT
BRANCH   1   6
ATOM      6  C   UNL     1     -35.337  22.626   2.776  0.00  0.00    +0.077 C 
ATOM      7  C   UNL     1     -35.813  22.486   4.075  0.00  0.00    +0.017 C 
ATOM      8  C   UNL     1     -34.861  23.851   2.324  0.00  0.00    +0.017 C 
ATOM      9  C   UNL     1     -35.812  23.585   4.933  0.00  0.00    +0.008 C 
ATOM     10  C   UNL     1     -34.860  24.951   3.182  0.00  0.00    +0.008 C 
ATOM     11  C   UNL     1     -35.336  24.818   4.487  0.00  0.00    +0.076 C 
BRANCH  11  13
ATOM     12  O   UNL     1     -34.365  26.357   6.040  0.00  0.00    -0.245 OA
ATOM     13  C   UNL     1     -35.334  25.963   5.383  0.00  0.00    +0.338 C 
BRANCH  13  14
ATOM     14  O   UNL     1     -36.543  26.587   5.432  0.00  0.00    -0.477 OA
ATOM     15  H   UNL     1     -37.105  26.464   6.171  0.00  0.00    +0.295 HD
ENDBRANCH  13  14
ENDBRANCH  11  13
ENDBRANCH   1   6
BRANCH   4  16
ATOM     16  C   UNL     1     -37.417  22.007   0.651  0.00  0.00    +0.080 C 
ATOM     17  C   UNL     1     -38.610  21.820   1.349  0.00  0.00    +0.137 C 
ATOM     18  C   UNL     1     -37.343  22.968  -0.358  0.00  0.00    +0.007 C 
ATOM     19  C   UNL     1     -39.728  22.593   1.038  0.00  0.00    +0.037 C 
ATOM     20  C   UNL     1     -38.461  23.741  -0.669  0.00  0.00    +0.000 C 
ATOM     21  C   UNL     1     -39.654  23.554   0.029  0.00  0.00    +0.003 C 
BRANCH  17  22
ATOM     22  O   UNL     1     -38.711  20.888   2.339  0.00  0.00    -0.505 OA
ATOM     23  H   UNL     1     -39.511  20.799   2.818  0.00  0.00    +0.292 HD
ENDBRANCH  17  22
ENDBRANCH   4  16
BRANCH   5  24
ATOM     24  C   UNL     1     -33.998  18.591   0.676  0.00  0.00    +0.109 C 
ATOM     25  C   UNL     1     -34.641  17.454   0.187  0.00  0.00    +0.144 C 
ATOM     26  C   UNL     1     -32.614  18.591   0.842  0.00  0.00    +0.014 C 
ATOM     27  C   UNL     1     -33.901  16.317  -0.136  0.00  0.00    +0.037 C 
ATOM     28  C   UNL     1     -31.872  17.455   0.520  0.00  0.00    +0.001 C 
ATOM     29  C   UNL     1     -32.516  16.317   0.031  0.00  0.00    +0.003 C 
BRANCH  25  30
ATOM     30  O   UNL     1     -35.995  17.426   0.015  0.00  0.00    -0.505 OA
ATOM     31  H   UNL     1     -36.356  17.179  -0.814  0.00  0.00    +0.292 HD
ENDBRANCH  25  30
ENDBRANCH   5  24
TORSDOF 7
ENDMDL
MODEL 5
REMARK VINA RESULT:      -6.6      4.276      8.136
REMARK  Name = 214348
REMARK  7 active torsions:
REMARK  status: ('A' for Active; 'I' for Inactive)
REMARK    1  A    between atoms: N_1  and  C_6
REMARK    2  A    between atoms: C_4  and  C_16
REMARK    3  A    between atoms: C_5  and  C_24
REMARK    4  A    between atoms: C_11  and  C_13
REMARK    5  A    between atoms: C_13  and  O_14
REMARK    6  A    between atoms: C_17  and  O_22
REMARK    7  A    between atoms: C_25  and  O_30
REMARK                            x       y       z     vdW  Elec       q    Type
REMARK                         _______ _______ _______ _____ _____    ______ ____
ROOT
ATOM      1  N   UNL     1     -36.299  21.159   1.585  0.00  0.00    -0.153 N 
ATOM      2  N   UNL     1     -35.972  20.140   0.776  0.00  0.00    -0.105 NA
ATOM      3  N   UNL     1     -34.442  20.406   2.456  0.00  0.00    -0.332 NA
ATOM      4  C   UNL     1     -35.384  21.311   2.580  0.00  0.00    +0.221 C 
ATOM      5  C   UNL     1     -34.843  19.720   1.347  0.00  0.00    +0.108 C 
ENDROOT
BRANCH   1   6
ATOM      6  C   UNL     1     -37.449  21.910   1.355  0.00  0.00    +0.077 C 
ATOM      7  C   UNL     1     -37.461  22.858   0.338  0.00  0.00    +0.017 C 
ATOM      8  C   UNL     1     -38.574  21.704   2.146  0.00  0.00    +0.017 C 
ATOM      9  C   UNL     1     -38.613  23.609   0.109  0.00  0.00    +0.008 C 
ATOM     10  C   UNL     1     -39.726  22.455   1.916  0.00  0.00    +0.008 C 
ATOM     11  C   UNL     1     -39.746  23.408   0.898  0.00  0.00    +0.076 C 
BRANCH  11  13
ATOM     12  O   UNL     1     -42.093  23.736   0.565  0.00  0.00    -0.245 OA
ATOM     13  C   UNL     1     -40.948  24.191   0.656  0.00  0.00    +0.338 C 
BRANCH  13  14
ATOM     14  O   UNL     1     -40.687  25.521   0.537  0.00  0.00    -0.477 OA
ATOM     15  H   UNL     1     -40.679  25.924  -0.309  0.00  0.00    +0.295 HD
ENDBRANCH  13  14
ENDBRANCH  11  13
ENDBRANCH   1   6
BRANCH   4  16
ATOM     16  C   UNL     1     -35.457  22.321   3.611  0.00  0.00    +0.080 C 
ATOM     17  C   UNL     1     -35.417  21.971   4.960  0.00  0.00    +0.137 C 
ATOM     18  C   UNL     1     -35.568  23.662   3.241  0.00  0.00    +0.007 C 
ATOM     19  C   UNL     1     -35.489  22.961   5.940  0.00  0.00    +0.037 C 
ATOM     20  C   UNL     1     -35.640  24.652   4.221  0.00  0.00    +0.000 C 
ATOM     21  C   UNL     1     -35.600  24.301   5.570  0.00  0.00    +0.003 C 
BRANCH  17  22
ATOM     22  O   UNL     1     -35.309  20.668   5.350  0.00  0.00    -0.505 OA
ATOM     23  H   UNL     1     -34.666  20.113   4.955  0.00  0.00    +0.292 HD
ENDBRANCH  17  22
ENDBRANCH   4  16
BRANCH   5  24
ATOM     24  C   UNL     1     -34.084  18.610   0.835  0.00  0.00    +0.109 C 
ATOM     25  C   UNL     1     -34.717  17.549   0.186  0.00  0.00    +0.144 C 
ATOM     26  C   UNL     1     -32.699  18.603   0.994  0.00  0.00    +0.014 C 
ATOM     27  C   UNL     1     -33.964  16.482  -0.304  0.00  0.00    +0.037 C 
ATOM     28  C   UNL     1     -31.946  17.536   0.504  0.00  0.00    +0.001 C 
ATOM     29  C   UNL     1     -32.579  16.475  -0.144  0.00  0.00    +0.003 C 
BRANCH  25  30
ATOM     30  O   UNL     1     -36.071  17.529   0.018  0.00  0.00    -0.505 OA
ATOM     31  H   UNL     1     -36.546  16.730   0.135  0.00  0.00    +0.292 HD
ENDBRANCH  25  30
ENDBRANCH   5  24
TORSDOF 7
ENDMDL
MODEL 6
REMARK VINA RESULT:      -6.6      2.143      4.668
REMARK  Name = 214348
REMARK  7 active torsions:
REMARK  status: ('A' for Active; 'I' for Inactive)
REMARK    1  A    between atoms: N_1  and  C_6
REMARK    2  A    between atoms: C_4  and  C_16
REMARK    3  A    between atoms: C_5  and  C_24
REMARK    4  A    between atoms: C_11  and  C_13
REMARK    5  A    between atoms: C_13  and  O_14
REMARK    6  A    between atoms: C_17  and  O_22
REMARK    7  A    between atoms: C_25  and  O_30
REMARK                            x       y       z     vdW  Elec       q    Type
REMARK                         _______ _______ _______ _____ _____    ______ ____
ROOT
ATOM      1  N   UNL     1     -36.037  25.252   3.285  0.00  0.00    -0.153 N 
ATOM      2  N   UNL     1     -35.631  26.361   3.921  0.00  0.00    -0.105 NA
ATOM      3  N   UNL     1     -33.996  24.762   3.894  0.00  0.00    -0.332 NA
ATOM      4  C   UNL     1     -35.059  24.306   3.274  0.00  0.00    +0.221 C 
ATOM      5  C   UNL     1     -34.393  26.012   4.269  0.00  0.00    +0.108 C 
ENDROOT
BRANCH   1   6
ATOM      6  C   UNL     1     -37.315  25.171   2.737  0.00  0.00    +0.077 C 
ATOM      7  C   UNL     1     -37.522  25.543   1.414  0.00  0.00    +0.017 C 
ATOM      8  C   UNL     1     -38.370  24.719   3.521  0.00  0.00    +0.017 C 
ATOM      9  C   UNL     1     -38.803  25.461   0.867  0.00  0.00    +0.008 C 
ATOM     10  C   UNL     1     -39.650  24.637   2.974  0.00  0.00    +0.008 C 
ATOM     11  C   UNL     1     -39.867  25.008   1.647  0.00  0.00    +0.076 C 
BRANCH  11  13
ATOM     12  O   UNL     1     -41.945  25.879   0.842  0.00  0.00    -0.245 OA
ATOM     13  C   UNL     1     -41.201  24.921   1.075  0.00  0.00    +0.338 C 
BRANCH  13  14
ATOM     14  O   UNL     1     -41.569  23.638   0.808  0.00  0.00    -0.477 OA
ATOM     15  H   UNL     1     -40.988  23.071   0.339  0.00  0.00    +0.295 HD
ENDBRANCH  13  14
ENDBRANCH  11  13
ENDBRANCH   1   6
BRANCH   4  16
ATOM     16  C   UNL     1     -35.189  23.002   2.665  0.00  0.00    +0.080 C 
ATOM     17  C   UNL     1     -35.771  21.942   3.360  0.00  0.00    +0.137 C 
ATOM     18  C   UNL     1     -34.724  22.811   1.363  0.00  0.00    +0.007 C 
ATOM     19  C   UNL     1     -35.887  20.691   2.754  0.00  0.00    +0.037 C 
ATOM     20  C   UNL     1     -34.840  21.560   0.757  0.00  0.00    +0.000 C 
ATOM     21  C   UNL     1     -35.422  20.500   1.453  0.00  0.00    +0.003 C 
BRANCH  17  22
ATOM     22  O   UNL     1     -36.233  22.100   4.633  0.00  0.00    -0.505 OA
ATOM     23  H   UNL     1     -35.671  21.919   5.361  0.00  0.00    +0.292 HD
ENDBRANCH  17  22
ENDBRANCH   4  16
BRANCH   5  24
ATOM     24  C   UNL     1     -33.516  26.893   4.994  0.00  0.00    +0.109 C 
ATOM     25  C   UNL     1     -32.889  27.963   4.357  0.00  0.00    +0.144 C 
ATOM     26  C   UNL     1     -33.298  26.665   6.353  0.00  0.00    +0.014 C 
ATOM     27  C   UNL     1     -32.043  28.806   5.078  0.00  0.00    +0.037 C 
ATOM     28  C   UNL     1     -32.452  27.508   7.074  0.00  0.00    +0.001 C 
ATOM     29  C   UNL     1     -31.824  28.578   6.436  0.00  0.00    +0.003 C 
BRANCH  25  30
ATOM     30  O   UNL     1     -33.084  28.209   3.029  0.00  0.00    -0.505 OA
ATOM     31  H   UNL     1     -32.688  28.957   2.628  0.00  0.00    +0.292 HD
ENDBRANCH  25  30
ENDBRANCH   5  24
TORSDOF 7
ENDMDL
MODEL 7
REMARK VINA RESULT:      -6.6      2.978      7.728
REMARK  Name = 214348
REMARK  7 active torsions:
REMARK  status: ('A' for Active; 'I' for Inactive)
REMARK    1  A    between atoms: N_1  and  C_6
REMARK    2  A    between atoms: C_4  and  C_16
REMARK    3  A    between atoms: C_5  and  C_24
REMARK    4  A    between atoms: C_11  and  C_13
REMARK    5  A    between atoms: C_13  and  O_14
REMARK    6  A    between atoms: C_17  and  O_22
REMARK    7  A    between atoms: C_25  and  O_30
REMARK                            x       y       z     vdW  Elec       q    Type
REMARK                         _______ _______ _______ _____ _____    ______ ____
ROOT
ATOM      1  N   UNL     1     -32.665  27.887   4.557  0.00  0.00    -0.153 N 
ATOM      2  N   UNL     1     -33.144  26.650   4.762  0.00  0.00    -0.105 NA
ATOM      3  N   UNL     1     -34.282  27.728   3.095  0.00  0.00    -0.332 NA
ATOM      4  C   UNL     1     -33.348  28.521   3.565  0.00  0.00    +0.221 C 
ATOM      5  C   UNL     1     -34.118  26.606   3.853  0.00  0.00    +0.108 C 
ENDROOT
BRANCH   1   6
ATOM      6  C   UNL     1     -31.602  28.374   5.313  0.00  0.00    +0.077 C 
ATOM      7  C   UNL     1     -30.296  28.139   4.898  0.00  0.00    +0.017 C 
ATOM      8  C   UNL     1     -31.858  29.091   6.476  0.00  0.00    +0.017 C 
ATOM      9  C   UNL     1     -29.232  28.628   5.656  0.00  0.00    +0.008 C 
ATOM     10  C   UNL     1     -30.794  29.579   7.234  0.00  0.00    +0.008 C 
ATOM     11  C   UNL     1     -29.481  29.347   6.824  0.00  0.00    +0.076 C 
BRANCH  11  13
ATOM     12  O   UNL     1     -27.468  30.587   7.190  0.00  0.00    -0.245 OA
ATOM     13  C   UNL     1     -28.372  29.859   7.613  0.00  0.00    +0.338 C 
BRANCH  13  14
ATOM     14  O   UNL     1     -28.422  29.447   8.909  0.00  0.00    -0.477 OA
ATOM     15  H   UNL     1     -28.955  28.715   9.149  0.00  0.00    +0.295 HD
ENDBRANCH  13  14
ENDBRANCH  11  13
ENDBRANCH   1   6
BRANCH   4  16
ATOM     16  C   UNL     1     -33.070  29.864   3.110  0.00  0.00    +0.080 C 
ATOM     17  C   UNL     1     -34.031  30.869   3.219  0.00  0.00    +0.137 C 
ATOM     18  C   UNL     1     -31.821  30.149   2.556  0.00  0.00    +0.007 C 
ATOM     19  C   UNL     1     -33.743  32.159   2.774  0.00  0.00    +0.037 C 
ATOM     20  C   UNL     1     -31.534  31.439   2.111  0.00  0.00    +0.000 C 
ATOM     21  C   UNL     1     -32.495  32.444   2.220  0.00  0.00    +0.003 C 
BRANCH  17  22
ATOM     22  O   UNL     1     -35.259  30.618   3.755  0.00  0.00    -0.505 OA
ATOM     23  H   UNL     1     -35.827  31.330   3.976  0.00  0.00    +0.292 HD
ENDBRANCH  17  22
ENDBRANCH   4  16
BRANCH   5  24
ATOM     24  C   UNL     1     -34.953  25.448   3.672  0.00  0.00    +0.109 C 
ATOM     25  C   UNL     1     -36.223  25.384   4.246  0.00  0.00    +0.144 C 
ATOM     26  C   UNL     1     -34.478  24.381   2.910  0.00  0.00    +0.014 C 
ATOM     27  C   UNL     1     -37.017  24.253   4.058  0.00  0.00    +0.037 C 
ATOM     28  C   UNL     1     -35.272  23.250   2.722  0.00  0.00    +0.001 C 
ATOM     29  C   UNL     1     -36.542  23.185   3.297  0.00  0.00    +0.003 C 
BRANCH  25  30
ATOM     30  O   UNL     1     -36.713  26.412   4.996  0.00  0.00    -0.505 OA
ATOM     31  H   UNL     1     -36.320  26.619   5.822  0.00  0.00    +0.292 HD
ENDBRANCH  25  30
ENDBRANCH   5  24
TORSDOF 7
ENDMDL
MODEL 8
REMARK VINA RESULT:      -6.6      2.551      3.451
REMARK  Name = 214348
REMARK  7 active torsions:
REMARK  status: ('A' for Active; 'I' for Inactive)
REMARK    1  A    between atoms: N_1  and  C_6
REMARK    2  A    between atoms: C_4  and  C_16
REMARK    3  A    between atoms: C_5  and  C_24
REMARK    4  A    between atoms: C_11  and  C_13
REMARK    5  A    between atoms: C_13  and  O_14
REMARK    6  A    between atoms: C_17  and  O_22
REMARK    7  A    between atoms: C_25  and  O_30
REMARK                            x       y       z     vdW  Elec       q    Type
REMARK                         _______ _______ _______ _____ _____    ______ ____
ROOT
ATOM      1  N   UNL     1     -33.049  27.570   4.215  0.00  0.00    -0.153 N 
ATOM      2  N   UNL     1     -32.008  27.640   5.060  0.00  0.00    -0.105 NA
ATOM      3  N   UNL     1     -32.127  29.487   3.715  0.00  0.00    -0.332 NA
ATOM      4  C   UNL     1     -33.111  28.672   3.419  0.00  0.00    +0.221 C 
ATOM      5  C   UNL     1     -31.485  28.818   4.715  0.00  0.00    +0.108 C 
ENDROOT
BRANCH   1   6
ATOM      6  C   UNL     1     -33.901  26.469   4.225  0.00  0.00    +0.077 C 
ATOM      7  C   UNL     1     -33.664  25.406   3.362  0.00  0.00    +0.017 C 
ATOM      8  C   UNL     1     -34.982  26.446   5.100  0.00  0.00    +0.017 C 
ATOM      9  C   UNL     1     -34.518  24.304   3.374  0.00  0.00    +0.008 C 
ATOM     10  C   UNL     1     -35.837  25.343   5.111  0.00  0.00    +0.008 C 
ATOM     11  C   UNL     1     -35.605  24.273   4.248  0.00  0.00    +0.076 C 
BRANCH  11  13
ATOM     12  O   UNL     1     -37.397  22.904   3.446  0.00  0.00    -0.245 OA
ATOM     13  C   UNL     1     -36.494  23.122   4.261  0.00  0.00    +0.338 C 
BRANCH  13  14
ATOM     14  O   UNL     1     -36.231  22.273   5.292  0.00  0.00    -0.477 OA
ATOM     15  H   UNL     1     -36.580  21.404   5.285  0.00  0.00    +0.295 HD
ENDBRANCH  13  14
ENDBRANCH  11  13
ENDBRANCH   1   6
BRANCH   4  16
ATOM     16  C   UNL     1     -34.119  28.893   2.407  0.00  0.00    +0.080 C 
ATOM     17  C   UNL     1     -35.156  29.801   2.617  0.00  0.00    +0.137 C 
ATOM     18  C   UNL     1     -34.044  28.184   1.208  0.00  0.00    +0.007 C 
ATOM     19  C   UNL     1     -36.119  30.000   1.628  0.00  0.00    +0.037 C 
ATOM     20  C   UNL     1     -35.007  28.383   0.219  0.00  0.00    +0.000 C 
ATOM     21  C   UNL     1     -36.045  29.291   0.429  0.00  0.00    +0.003 C 
BRANCH  17  22
ATOM     22  O   UNL     1     -35.254  30.506   3.780  0.00  0.00    -0.505 OA
ATOM     23  H   UNL     1     -34.825  30.196   4.553  0.00  0.00    +0.292 HD
ENDBRANCH  17  22
ENDBRANCH   4  16
BRANCH   5  24
ATOM     24  C   UNL     1     -30.316  29.361   5.354  0.00  0.00    +0.109 C 
ATOM     25  C   UNL     1     -29.669  28.663   6.375  0.00  0.00    +0.144 C 
ATOM     26  C   UNL     1     -29.831  30.601   4.941  0.00  0.00    +0.014 C 
ATOM     27  C   UNL     1     -28.537  29.206   6.982  0.00  0.00    +0.037 C 
ATOM     28  C   UNL     1     -28.699  31.145   5.548  0.00  0.00    +0.001 C 
ATOM     29  C   UNL     1     -28.052  30.447   6.569  0.00  0.00    +0.003 C 
BRANCH  25  30
ATOM     30  O   UNL     1     -30.122  27.448   6.799  0.00  0.00    -0.505 OA
ATOM     31  H   UNL     1     -30.236  26.750   6.184  0.00  0.00    +0.292 HD
ENDBRANCH  25  30
ENDBRANCH   5  24
TORSDOF 7
ENDMDL
MODEL 9
REMARK VINA RESULT:      -6.6      1.620      2.269
REMARK  Name = 214348
REMARK  7 active torsions:
REMARK  status: ('A' for Active; 'I' for Inactive)
REMARK    1  A    between atoms: N_1  and  C_6
REMARK    2  A    between atoms: C_4  and  C_16
REMARK    3  A    between atoms: C_5  and  C_24
REMARK    4  A    between atoms: C_11  and  C_13
REMARK    5  A    between atoms: C_13  and  O_14
REMARK    6  A    between atoms: C_17  and  O_22
REMARK    7  A    between atoms: C_25  and  O_30
REMARK                            x       y       z     vdW  Elec       q    Type
REMARK                         _______ _______ _______ _____ _____    ______ ____
ROOT
ATOM      1  N   UNL     1     -35.305  24.368   3.251  0.00  0.00    -0.153 N 
ATOM      2  N   UNL     1     -34.161  24.751   3.838  0.00  0.00    -0.105 NA
ATOM      3  N   UNL     1     -35.788  26.345   4.047  0.00  0.00    -0.332 NA
ATOM      4  C   UNL     1     -36.267  25.322   3.379  0.00  0.00    +0.221 C 
ATOM      5  C   UNL     1     -34.507  25.952   4.303  0.00  0.00    +0.108 C 
ENDROOT
BRANCH   1   6
ATOM      6  C   UNL     1     -35.401  23.133   2.616  0.00  0.00    +0.077 C 
ATOM      7  C   UNL     1     -35.554  21.978   3.374  0.00  0.00    +0.017 C 
ATOM      8  C   UNL     1     -35.343  23.068   1.228  0.00  0.00    +0.017 C 
ATOM      9  C   UNL     1     -35.651  20.741   2.736  0.00  0.00    +0.008 C 
ATOM     10  C   UNL     1     -35.440  21.832   0.590  0.00  0.00    +0.008 C 
ATOM     11  C   UNL     1     -35.594  20.668   1.344  0.00  0.00    +0.076 C 
BRANCH  11  13
ATOM     12  O   UNL     1     -34.838  18.880  -0.055  0.00  0.00    -0.245 OA
ATOM     13  C   UNL     1     -35.697  19.379   0.679  0.00  0.00    +0.338 C 
BRANCH  13  14
ATOM     14  O   UNL     1     -36.872  18.747   0.951  0.00  0.00    -0.477 OA
ATOM     15  H   UNL     1     -37.103  17.966   0.487  0.00  0.00    +0.295 HD
ENDBRANCH  13  14
ENDBRANCH  11  13
ENDBRANCH   1   6
BRANCH   4  16
ATOM     16  C   UNL     1     -37.608  25.206   2.855  0.00  0.00    +0.080 C 
ATOM     17  C   UNL     1     -38.179  26.242   2.115  0.00  0.00    +0.137 C 
ATOM     18  C   UNL     1     -38.334  24.039   3.096  0.00  0.00    +0.007 C 
ATOM     19  C   UNL     1     -39.475  26.111   1.618  0.00  0.00    +0.037 C 
ATOM     20  C   UNL     1     -39.630  23.909   2.598  0.00  0.00    +0.000 C 
ATOM     21  C   UNL     1     -40.201  24.945   1.859  0.00  0.00    +0.003 C 
BRANCH  17  22
ATOM     22  O   UNL     1     -37.493  27.394   1.865  0.00  0.00    -0.505 OA
ATOM     23  H   UNL     1     -37.731  27.931   1.135  0.00  0.00    +0.292 HD
ENDBRANCH  17  22
ENDBRANCH   4  16
BRANCH   5  24
ATOM     24  C   UNL     1     -33.594  26.790   5.033  0.00  0.00    +0.109 C 
ATOM     25  C   UNL     1     -32.907  27.824   4.397  0.00  0.00    +0.144 C 
ATOM     26  C   UNL     1     -33.402  26.559   6.395  0.00  0.00    +0.014 C 
ATOM     27  C   UNL     1     -32.027  28.627   5.123  0.00  0.00    +0.037 C 
ATOM     28  C   UNL     1     -32.522  27.361   7.121  0.00  0.00    +0.001 C 
ATOM     29  C   UNL     1     -31.833  28.395   6.484  0.00  0.00    +0.003 C 
BRANCH  25  30
ATOM     30  O   UNL     1     -33.076  28.073   3.066  0.00  0.00    -0.505 OA
ATOM     31  H   UNL     1     -33.188  27.361   2.467  0.00  0.00    +0.292 HD
ENDBRANCH  25  30
ENDBRANCH   5  24
TORSDOF 7
ENDMDL
