MODEL 1
REMARK VINA RESULT:      -6.7      0.000      0.000
REMARK  Name = 21120146
REMARK  9 active torsions:
REMARK  status: ('A' for Active; 'I' for Inactive)
REMARK    1  A    between atoms: N_2  and  C_23
REMARK    2  A    between atoms: C_3  and  C_5
REMARK    3  A    between atoms: C_5  and  N_7
REMARK    4  A    between atoms: C_8  and  C_12
REMARK    5  A    between atoms: C_16  and  C_17
REMARK    6  A    between atoms: C_17  and  N_19
REMARK    7  A    between atoms: C_23  and  C_26
REMARK    8  A    between atoms: C_23  and  C_29
REMARK    9  A    between atoms: C_29  and  C_31
REMARK                            x       y       z     vdW  Elec       q    Type
REMARK                         _______ _______ _______ _____ _____    ______ ____
ROOT
ATOM      1  O   UNL     1     -35.192  20.288   2.942  0.00  0.00    -0.273 OA
ATOM      2  N   UNL     1     -35.262  21.178   0.796  0.00  0.00    -0.297 N 
ATOM      3  C   UNL     1     -35.820  20.638   1.945  0.00  0.00    +0.243 C 
ATOM      4  H   UNL     1     -35.863  21.424   0.055  0.00  0.00    +0.150 HD
ENDROOT
BRANCH   3   5
ATOM      5  C   UNL     1     -37.330  20.582   1.855  0.00  0.00    +0.176 C 
BRANCH   5   7
ATOM      6  O   UNL     1     -37.805  23.222   0.730  0.00  0.00    -0.273 OA
ATOM      7  N   UNL     1     -37.898  21.734   2.519  0.00  0.00    -0.295 N 
ATOM      8  C   UNL     1     -38.084  22.951   1.893  0.00  0.00    +0.241 C 
ATOM      9  H   UNL     1     -38.166  21.647   3.461  0.00  0.00    +0.150 HD
BRANCH   8  12
ATOM     10  O   UNL     1     -36.636  23.519   4.718  0.00  0.00    -0.277 OA
ATOM     11  N   UNL     1     -37.619  24.913   3.155  0.00  0.00    -0.275 N 
ATOM     12  C   UNL     1     -38.691  24.004   2.772  0.00  0.00    +0.152 C 
ATOM     13  C   UNL     1     -39.684  24.874   2.010  0.00  0.00    +0.031 C 
ATOM     14  C   UNL     1     -38.805  25.965   1.402  0.00  0.00    +0.024 C 
ATOM     15  C   UNL     1     -37.746  26.196   2.469  0.00  0.00    +0.094 C 
ATOM     16  C   UNL     1     -36.713  24.615   4.161  0.00  0.00    +0.205 C 
BRANCH  16  17
ATOM     17  C   UNL     1     -35.782  25.736   4.550  0.00  0.00    +0.013 C 
ATOM     18  C   UNL     1     -34.456  25.169   5.014  0.00  0.00    -0.015 C 
BRANCH  17  19
ATOM     19  N   UNL     1     -36.436  26.474   5.617  0.00  0.00    +0.387 N 
ATOM     20  H   UNL     1     -36.138  26.104   6.520  0.00  0.00    -0.089 HD
ATOM     21  H   UNL     1     -37.447  26.376   5.527  0.00  0.00    -0.089 HD
ATOM     22  H   UNL     1     -36.183  27.460   5.553  0.00  0.00    -0.089 HD
ENDBRANCH  17  19
ENDBRANCH  16  17
ENDBRANCH   8  12
ENDBRANCH   5   7
ENDBRANCH   3   5
BRANCH   2  23
ATOM     23  C   UNL     1     -33.843  21.395   0.630  0.00  0.00    +0.153 C 
BRANCH  23  26
ATOM     24  O   UNL     1     -32.588  23.288  -0.234  0.00  0.00    -0.274 OA
ATOM     25  N   UNL     1     -34.849  23.527   0.094  0.00  0.00    -0.327 N 
ATOM     26  C   UNL     1     -33.664  22.823   0.134  0.00  0.00    +0.238 C 
ATOM     27  H   UNL     1     -34.856  24.463  -0.210  0.00  0.00    +0.145 HD
ATOM     28  H   UNL     1     -35.689  23.093   0.369  0.00  0.00    +0.145 HD
ENDBRANCH  23  26
BRANCH  23  29
ATOM     29  C   UNL     1     -33.214  20.402  -0.356  0.00  0.00    +0.057 C 
BRANCH  29  31
ATOM     30  N   UNL     1     -31.839  17.614   1.561  0.00  0.00    -0.312 N 
ATOM     31  C   UNL     1     -32.395  19.339   0.320  0.00  0.00    -0.004 C 
ATOM     32  C   UNL     1     -31.004  19.168   0.195  0.00  0.00    +0.011 C 
ATOM     33  C   UNL     1     -30.672  18.068   0.991  0.00  0.00    +0.048 C 
ATOM     34  C   UNL     1     -32.895  18.386   1.155  0.00  0.00    +0.058 C 
ATOM     35  C   UNL     1     -29.978  19.829  -0.509  0.00  0.00    +0.001 C 
ATOM     36  C   UNL     1     -29.361  17.596   1.117  0.00  0.00    +0.015 C 
ATOM     37  C   UNL     1     -28.662  19.366  -0.393  0.00  0.00    +0.000 C 
ATOM     38  C   UNL     1     -28.360  18.268   0.408  0.00  0.00    +0.001 C 
ATOM     39  H   UNL     1     -31.906  16.846   2.172  0.00  0.00    +0.152 HD
ENDBRANCH  29  31
ENDBRANCH  23  29
ENDBRANCH   2  23
TORSDOF 9
ENDMDL
MODEL 2
REMARK VINA RESULT:      -6.5      3.958      6.289
REMARK  Name = 21120146
REMARK  9 active torsions:
REMARK  status: ('A' for Active; 'I' for Inactive)
REMARK    1  A    between atoms: N_2  and  C_23
REMARK    2  A    between atoms: C_3  and  C_5
REMARK    3  A    between atoms: C_5  and  N_7
REMARK    4  A    between atoms: C_8  and  C_12
REMARK    5  A    between atoms: C_16  and  C_17
REMARK    6  A    between atoms: C_17  and  N_19
REMARK    7  A    between atoms: C_23  and  C_26
REMARK    8  A    between atoms: C_23  and  C_29
REMARK    9  A    between atoms: C_29  and  C_31
REMARK                            x       y       z     vdW  Elec       q    Type
REMARK                         _______ _______ _______ _____ _____    ______ ____
ROOT
ATOM      1  O   UNL     1     -34.645  21.673   1.722  0.00  0.00    -0.273 OA
ATOM      2  N   UNL     1     -36.062  21.811   3.559  0.00  0.00    -0.297 N 
ATOM      3  C   UNL     1     -35.664  21.333   2.319  0.00  0.00    +0.243 C 
ATOM      4  H   UNL     1     -36.900  21.467   3.946  0.00  0.00    +0.150 HD
ENDROOT
BRANCH   3   5
ATOM      5  C   UNL     1     -36.617  20.280   1.798  0.00  0.00    +0.176 C 
BRANCH   5   7
ATOM      6  O   UNL     1     -38.056  21.606  -0.355  0.00  0.00    -0.273 OA
ATOM      7  N   UNL     1     -37.968  20.794   1.826  0.00  0.00    -0.295 N 
ATOM      8  C   UNL     1     -38.564  21.411   0.743  0.00  0.00    +0.241 C 
ATOM      9  H   UNL     1     -38.488  20.699   2.655  0.00  0.00    +0.150 HD
BRANCH   8  12
ATOM     10  O   UNL     1     -39.046  23.371   3.259  0.00  0.00    -0.277 OA
ATOM     11  N   UNL     1     -39.939  23.315   1.125  0.00  0.00    -0.275 N 
ATOM     12  C   UNL     1     -39.972  21.864   0.997  0.00  0.00    +0.152 C 
ATOM     13  C   UNL     1     -40.875  21.600  -0.202  0.00  0.00    +0.031 C 
ATOM     14  C   UNL     1     -40.688  22.845  -1.067  0.00  0.00    +0.024 C 
ATOM     15  C   UNL     1     -40.528  23.960  -0.045  0.00  0.00    +0.094 C 
ATOM     16  C   UNL     1     -39.539  23.951   2.290  0.00  0.00    +0.205 C 
BRANCH  16  17
ATOM     17  C   UNL     1     -39.735  25.446   2.314  0.00  0.00    +0.013 C 
ATOM     18  C   UNL     1     -38.395  26.144   2.192  0.00  0.00    -0.015 C 
BRANCH  17  19
ATOM     19  N   UNL     1     -40.378  25.766   3.576  0.00  0.00    +0.387 N 
ATOM     20  H   UNL     1     -40.199  25.019   4.249  0.00  0.00    -0.089 HD
ATOM     21  H   UNL     1     -41.383  25.858   3.431  0.00  0.00    -0.089 HD
ATOM     22  H   UNL     1     -40.004  26.644   3.935  0.00  0.00    -0.089 HD
ENDBRANCH  17  19
ENDBRANCH  16  17
ENDBRANCH   8  12
ENDBRANCH   5   7
ENDBRANCH   3   5
BRANCH   2  23
ATOM     23  C   UNL     1     -35.309  22.788   4.312  0.00  0.00    +0.153 C 
BRANCH  23  26
ATOM     24  O   UNL     1     -35.270  23.037   6.729  0.00  0.00    -0.274 OA
ATOM     25  N   UNL     1     -35.215  20.918   5.842  0.00  0.00    -0.327 N 
ATOM     26  C   UNL     1     -35.248  22.294   5.750  0.00  0.00    +0.238 C 
ATOM     27  H   UNL     1     -35.174  20.484   6.724  0.00  0.00    +0.145 HD
ATOM     28  H   UNL     1     -35.233  20.370   5.024  0.00  0.00    +0.145 HD
ENDBRANCH  23  26
BRANCH  23  29
ATOM     29  C   UNL     1     -35.942  24.184   4.250  0.00  0.00    +0.057 C 
BRANCH  29  31
ATOM     30  N   UNL     1     -33.825  26.606   2.523  0.00  0.00    -0.312 N 
ATOM     31  C   UNL     1     -34.980  25.248   3.806  0.00  0.00    -0.004 C 
ATOM     32  C   UNL     1     -34.162  26.023   4.650  0.00  0.00    +0.011 C 
ATOM     33  C   UNL     1     -33.438  26.878   3.815  0.00  0.00    +0.048 C 
ATOM     34  C   UNL     1     -34.766  25.612   2.511  0.00  0.00    +0.058 C 
ATOM     35  C   UNL     1     -33.953  26.096   6.041  0.00  0.00    +0.001 C 
ATOM     36  C   UNL     1     -32.511  27.804   4.306  0.00  0.00    +0.015 C 
ATOM     37  C   UNL     1     -33.029  27.019   6.545  0.00  0.00    +0.000 C 
ATOM     38  C   UNL     1     -32.320  27.859   5.689  0.00  0.00    +0.001 C 
ATOM     39  H   UNL     1     -33.475  27.060   1.722  0.00  0.00    +0.152 HD
ENDBRANCH  29  31
ENDBRANCH  23  29
ENDBRANCH   2  23
TORSDOF 9
ENDMDL
MODEL 3
REMARK VINA RESULT:      -6.5      4.907      8.210
REMARK  Name = 21120146
REMARK  9 active torsions:
REMARK  status: ('A' for Active; 'I' for Inactive)
REMARK    1  A    between atoms: N_2  and  C_23
REMARK    2  A    between atoms: C_3  and  C_5
REMARK    3  A    between atoms: C_5  and  N_7
REMARK    4  A    between atoms: C_8  and  C_12
REMARK    5  A    between atoms: C_16  and  C_17
REMARK    6  A    between atoms: C_17  and  N_19
REMARK    7  A    between atoms: C_23  and  C_26
REMARK    8  A    between atoms: C_23  and  C_29
REMARK    9  A    between atoms: C_29  and  C_31
REMARK                            x       y       z     vdW  Elec       q    Type
REMARK                         _______ _______ _______ _____ _____    ______ ____
ROOT
ATOM      1  O   UNL     1     -32.973  25.680   4.212  0.00  0.00    -0.273 OA
ATOM      2  N   UNL     1     -34.633  27.305   4.290  0.00  0.00    -0.297 N 
ATOM      3  C   UNL     1     -33.520  26.630   4.769  0.00  0.00    +0.243 C 
ATOM      4  H   UNL     1     -34.990  28.055   4.821  0.00  0.00    +0.150 HD
ENDROOT
BRANCH   3   5
ATOM      5  C   UNL     1     -33.007  27.245   6.053  0.00  0.00    +0.176 C 
BRANCH   5   7
ATOM      6  O   UNL     1     -32.911  29.898   4.862  0.00  0.00    -0.273 OA
ATOM      7  N   UNL     1     -31.835  28.044   5.773  0.00  0.00    -0.295 N 
ATOM      8  C   UNL     1     -31.896  29.301   5.202  0.00  0.00    +0.241 C 
ATOM      9  H   UNL     1     -30.952  27.675   6.000  0.00  0.00    +0.150 HD
BRANCH   8  12
ATOM     10  O   UNL     1     -29.480  27.404   4.216  0.00  0.00    -0.277 OA
ATOM     11  N   UNL     1     -30.090  29.570   3.676  0.00  0.00    -0.275 N 
ATOM     12  C   UNL     1     -30.557  29.947   5.004  0.00  0.00    +0.152 C 
ATOM     13  C   UNL     1     -30.664  31.467   4.962  0.00  0.00    +0.031 C 
ATOM     14  C   UNL     1     -30.961  31.760   3.492  0.00  0.00    +0.024 C 
ATOM     15  C   UNL     1     -30.156  30.701   2.754  0.00  0.00    +0.094 C 
ATOM     16  C   UNL     1     -29.518  28.336   3.410  0.00  0.00    +0.205 C 
BRANCH  16  17
ATOM     17  C   UNL     1     -28.929  28.176   2.032  0.00  0.00    +0.013 C 
ATOM     18  C   UNL     1     -29.706  27.132   1.256  0.00  0.00    -0.015 C 
BRANCH  17  19
ATOM     19  N   UNL     1     -27.544  27.774   2.209  0.00  0.00    +0.387 N 
ATOM     20  H   UNL     1     -26.929  28.547   1.951  0.00  0.00    -0.089 HD
ATOM     21  H   UNL     1     -27.346  26.969   1.614  0.00  0.00    -0.089 HD
ATOM     22  H   UNL     1     -27.385  27.523   3.184  0.00  0.00    -0.089 HD
ENDBRANCH  17  19
ENDBRANCH  16  17
ENDBRANCH   8  12
ENDBRANCH   5   7
ENDBRANCH   3   5
BRANCH   2  23
ATOM     23  C   UNL     1     -35.299  26.962   3.054  0.00  0.00    +0.153 C 
BRANCH  23  26
ATOM     24  O   UNL     1     -36.399  28.331   1.375  0.00  0.00    -0.274 OA
ATOM     25  N   UNL     1     -35.267  29.379   3.077  0.00  0.00    -0.327 N 
ATOM     26  C   UNL     1     -35.710  28.268   2.390  0.00  0.00    +0.238 C 
ATOM     27  H   UNL     1     -35.473  30.281   2.741  0.00  0.00    +0.145 HD
ATOM     28  H   UNL     1     -34.746  29.270   3.905  0.00  0.00    +0.145 HD
ENDBRANCH  23  26
BRANCH  23  29
ATOM     29  C   UNL     1     -36.524  26.067   3.281  0.00  0.00    +0.057 C 
BRANCH  29  31
ATOM     30  N   UNL     1     -35.939  22.645   2.147  0.00  0.00    -0.312 N 
ATOM     31  C   UNL     1     -36.228  24.606   3.093  0.00  0.00    -0.004 C 
ATOM     32  C   UNL     1     -35.870  23.701   4.111  0.00  0.00    +0.011 C 
ATOM     33  C   UNL     1     -35.691  22.463   3.489  0.00  0.00    +0.048 C 
ATOM     34  C   UNL     1     -36.267  23.951   1.900  0.00  0.00    +0.058 C 
ATOM     35  C   UNL     1     -35.676  23.794   5.503  0.00  0.00    +0.001 C 
ATOM     36  C   UNL     1     -35.327  21.310   4.193  0.00  0.00    +0.015 C 
ATOM     37  C   UNL     1     -35.311  22.648   6.220  0.00  0.00    +0.000 C 
ATOM     38  C   UNL     1     -35.140  21.427   5.573  0.00  0.00    +0.001 C 
ATOM     39  H   UNL     1     -35.888  21.939   1.464  0.00  0.00    +0.152 HD
ENDBRANCH  29  31
ENDBRANCH  23  29
ENDBRANCH   2  23
TORSDOF 9
ENDMDL
MODEL 4
REMARK VINA RESULT:      -6.4      3.622      5.170
REMARK  Name = 21120146
REMARK  9 active torsions:
REMARK  status: ('A' for Active; 'I' for Inactive)
REMARK    1  A    between atoms: N_2  and  C_23
REMARK    2  A    between atoms: C_3  and  C_5
REMARK    3  A    between atoms: C_5  and  N_7
REMARK    4  A    between atoms: C_8  and  C_12
REMARK    5  A    between atoms: C_16  and  C_17
REMARK    6  A    between atoms: C_17  and  N_19
REMARK    7  A    between atoms: C_23  and  C_26
REMARK    8  A    between atoms: C_23  and  C_29
REMARK    9  A    between atoms: C_29  and  C_31
REMARK                            x       y       z     vdW  Elec       q    Type
REMARK                         _______ _______ _______ _____ _____    ______ ____
ROOT
ATOM      1  O   UNL     1     -38.004  22.122  -0.325  0.00  0.00    -0.273 OA
ATOM      2  N   UNL     1     -37.630  20.322   1.096  0.00  0.00    -0.297 N 
ATOM      3  C   UNL     1     -38.388  21.344   0.545  0.00  0.00    +0.243 C 
ATOM      4  H   UNL     1     -38.041  19.757   1.791  0.00  0.00    +0.150 HD
ENDROOT
BRANCH   3   5
ATOM      5  C   UNL     1     -39.794  21.358   1.107  0.00  0.00    +0.176 C 
BRANCH   5   7
ATOM      6  O   UNL     1     -41.040  23.680  -0.124  0.00  0.00    -0.273 OA
ATOM      7  N   UNL     1     -40.059  22.642   1.715  0.00  0.00    -0.295 N 
ATOM      8  C   UNL     1     -40.660  23.688   1.041  0.00  0.00    +0.241 C 
ATOM      9  H   UNL     1     -39.800  22.778   2.654  0.00  0.00    +0.150 HD
BRANCH   8  12
ATOM     10  O   UNL     1     -38.097  24.728   2.701  0.00  0.00    -0.277 OA
ATOM     11  N   UNL     1     -39.754  25.834   1.522  0.00  0.00    -0.275 N 
ATOM     12  C   UNL     1     -40.839  24.925   1.869  0.00  0.00    +0.152 C 
ATOM     13  C   UNL     1     -42.111  25.678   1.493  0.00  0.00    +0.031 C 
ATOM     14  C   UNL     1     -41.663  26.577   0.343  0.00  0.00    +0.024 C 
ATOM     15  C   UNL     1     -40.242  26.959   0.730  0.00  0.00    +0.094 C 
ATOM     16  C   UNL     1     -38.473  25.694   2.034  0.00  0.00    +0.205 C 
BRANCH  16  17
ATOM     17  C   UNL     1     -37.520  26.818   1.716  0.00  0.00    +0.013 C 
ATOM     18  C   UNL     1     -36.702  26.470   0.489  0.00  0.00    -0.015 C 
BRANCH  17  19
ATOM     19  N   UNL     1     -36.668  26.990   2.880  0.00  0.00    +0.387 N 
ATOM     20  H   UNL     1     -37.203  26.787   3.726  0.00  0.00    -0.089 HD
ATOM     21  H   UNL     1     -36.331  27.952   2.915  0.00  0.00    -0.089 HD
ATOM     22  H   UNL     1     -35.875  26.353   2.819  0.00  0.00    -0.089 HD
ENDBRANCH  17  19
ENDBRANCH  16  17
ENDBRANCH   8  12
ENDBRANCH   5   7
ENDBRANCH   3   5
BRANCH   2  23
ATOM     23  C   UNL     1     -36.266  20.046   0.705  0.00  0.00    +0.153 C 
BRANCH  23  26
ATOM     24  O   UNL     1     -35.241  18.099  -0.325  0.00  0.00    -0.274 OA
ATOM     25  N   UNL     1     -37.410  17.937   0.411  0.00  0.00    -0.327 N 
ATOM     26  C   UNL     1     -36.229  18.614   0.191  0.00  0.00    +0.238 C 
ATOM     27  H   UNL     1     -37.504  17.002   0.120  0.00  0.00    +0.145 HD
ATOM     28  H   UNL     1     -38.161  18.390   0.860  0.00  0.00    +0.145 HD
ENDBRANCH  23  26
BRANCH  23  29
ATOM     29  C   UNL     1     -35.280  20.225   1.867  0.00  0.00    +0.057 C 
BRANCH  29  31
ATOM     30  N   UNL     1     -35.063  23.831   2.401  0.00  0.00    -0.312 N 
ATOM     31  C   UNL     1     -35.209  21.640   2.367  0.00  0.00    -0.004 C 
ATOM     32  C   UNL     1     -35.249  22.038   3.716  0.00  0.00    +0.011 C 
ATOM     33  C   UNL     1     -35.155  23.432   3.715  0.00  0.00    +0.048 C 
ATOM     34  C   UNL     1     -35.095  22.740   1.573  0.00  0.00    +0.058 C 
ATOM     35  C   UNL     1     -35.355  21.367   4.950  0.00  0.00    +0.001 C 
ATOM     36  C   UNL     1     -35.161  24.190   4.891  0.00  0.00    +0.015 C 
ATOM     37  C   UNL     1     -35.364  22.114   6.135  0.00  0.00    +0.000 C 
ATOM     38  C   UNL     1     -35.268  23.502   6.104  0.00  0.00    +0.001 C 
ATOM     39  H   UNL     1     -34.985  24.764   2.099  0.00  0.00    +0.152 HD
ENDBRANCH  29  31
ENDBRANCH  23  29
ENDBRANCH   2  23
TORSDOF 9
ENDMDL
MODEL 5
REMARK VINA RESULT:      -6.3      6.385      8.928
REMARK  Name = 21120146
REMARK  9 active torsions:
REMARK  status: ('A' for Active; 'I' for Inactive)
REMARK    1  A    between atoms: N_2  and  C_23
REMARK    2  A    between atoms: C_3  and  C_5
REMARK    3  A    between atoms: C_5  and  N_7
REMARK    4  A    between atoms: C_8  and  C_12
REMARK    5  A    between atoms: C_16  and  C_17
REMARK    6  A    between atoms: C_17  and  N_19
REMARK    7  A    between atoms: C_23  and  C_26
REMARK    8  A    between atoms: C_23  and  C_29
REMARK    9  A    between atoms: C_29  and  C_31
REMARK                            x       y       z     vdW  Elec       q    Type
REMARK                         _______ _______ _______ _____ _____    ______ ____
ROOT
ATOM      1  O   UNL     1     -40.626  27.205  -0.048  0.00  0.00    -0.273 OA
ATOM      2  N   UNL     1     -41.043  25.993   1.890  0.00  0.00    -0.297 N 
ATOM      3  C   UNL     1     -41.291  26.995   0.963  0.00  0.00    +0.243 C 
ATOM      4  H   UNL     1     -41.644  25.915   2.667  0.00  0.00    +0.150 HD
ENDROOT
BRANCH   3   5
ATOM      5  C   UNL     1     -42.536  27.781   1.315  0.00  0.00    +0.176 C 
BRANCH   5   7
ATOM      6  O   UNL     1     -45.180  27.983   2.511  0.00  0.00    -0.273 OA
ATOM      7  N   UNL     1     -42.906  27.512   2.687  0.00  0.00    -0.295 N 
ATOM      8  C   UNL     1     -44.199  27.638   3.159  0.00  0.00    +0.241 C 
ATOM      9  H   UNL     1     -42.205  27.224   3.313  0.00  0.00    +0.150 HD
BRANCH   8  12
ATOM     10  O   UNL     1     -42.586  29.473   5.265  0.00  0.00    -0.277 OA
ATOM     11  N   UNL     1     -44.704  28.540   5.302  0.00  0.00    -0.275 N 
ATOM     12  C   UNL     1     -44.353  27.304   4.613  0.00  0.00    +0.152 C 
ATOM     13  C   UNL     1     -45.535  26.374   4.858  0.00  0.00    +0.031 C 
ATOM     14  C   UNL     1     -46.714  27.333   5.008  0.00  0.00    +0.024 C 
ATOM     15  C   UNL     1     -46.103  28.531   5.718  0.00  0.00    +0.094 C 
ATOM     16  C   UNL     1     -43.761  29.500   5.636  0.00  0.00    +0.205 C 
BRANCH  16  17
ATOM     17  C   UNL     1     -44.263  30.629   6.500  0.00  0.00    +0.013 C 
ATOM     18  C   UNL     1     -44.097  31.949   5.773  0.00  0.00    -0.015 C 
BRANCH  17  19
ATOM     19  N   UNL     1     -43.479  30.604   7.723  0.00  0.00    +0.387 N 
ATOM     20  H   UNL     1     -42.976  31.487   7.823  0.00  0.00    -0.089 HD
ATOM     21  H   UNL     1     -42.809  29.836   7.681  0.00  0.00    -0.089 HD
ATOM     22  H   UNL     1     -44.098  30.473   8.522  0.00  0.00    -0.089 HD
ENDBRANCH  17  19
ENDBRANCH  16  17
ENDBRANCH   8  12
ENDBRANCH   5   7
ENDBRANCH   3   5
BRANCH   2  23
ATOM     23  C   UNL     1     -39.947  25.058   1.774  0.00  0.00    +0.153 C 
BRANCH  23  26
ATOM     24  O   UNL     1     -41.428  23.517   0.618  0.00  0.00    -0.274 OA
ATOM     25  N   UNL     1     -39.975  22.676   2.187  0.00  0.00    -0.327 N 
ATOM     26  C   UNL     1     -40.551  23.697   1.460  0.00  0.00    +0.238 C 
ATOM     27  H   UNL     1     -40.286  21.750   2.067  0.00  0.00    +0.145 HD
ATOM     28  H   UNL     1     -39.252  22.874   2.825  0.00  0.00    +0.145 HD
ENDBRANCH  23  26
BRANCH  23  29
ATOM     29  C   UNL     1     -39.104  24.989   3.054  0.00  0.00    +0.057 C 
BRANCH  29  31
ATOM     30  N   UNL     1     -36.304  27.197   2.269  0.00  0.00    -0.312 N 
ATOM     31  C   UNL     1     -37.828  25.775   2.962  0.00  0.00    -0.004 C 
ATOM     32  C   UNL     1     -36.728  25.665   3.834  0.00  0.00    +0.011 C 
ATOM     33  C   UNL     1     -35.773  26.576   3.376  0.00  0.00    +0.048 C 
ATOM     34  C   UNL     1     -37.558  26.712   2.011  0.00  0.00    +0.058 C 
ATOM     35  C   UNL     1     -36.433  24.888   4.971  0.00  0.00    +0.001 C 
ATOM     36  C   UNL     1     -34.533  26.747   4.001  0.00  0.00    +0.015 C 
ATOM     37  C   UNL     1     -35.196  25.050   5.607  0.00  0.00    +0.000 C 
ATOM     38  C   UNL     1     -34.263  25.965   5.128  0.00  0.00    +0.001 C 
ATOM     39  H   UNL     1     -35.848  27.889   1.738  0.00  0.00    +0.152 HD
ENDBRANCH  29  31
ENDBRANCH  23  29
ENDBRANCH   2  23
TORSDOF 9
ENDMDL
MODEL 6
REMARK VINA RESULT:      -6.3      2.625      8.902
REMARK  Name = 21120146
REMARK  9 active torsions:
REMARK  status: ('A' for Active; 'I' for Inactive)
REMARK    1  A    between atoms: N_2  and  C_23
REMARK    2  A    between atoms: C_3  and  C_5
REMARK    3  A    between atoms: C_5  and  N_7
REMARK    4  A    between atoms: C_8  and  C_12
REMARK    5  A    between atoms: C_16  and  C_17
REMARK    6  A    between atoms: C_17  and  N_19
REMARK    7  A    between atoms: C_23  and  C_26
REMARK    8  A    between atoms: C_23  and  C_29
REMARK    9  A    between atoms: C_29  and  C_31
REMARK                            x       y       z     vdW  Elec       q    Type
REMARK                         _______ _______ _______ _____ _____    ______ ____
ROOT
ATOM      1  O   UNL     1     -36.227  20.150   2.494  0.00  0.00    -0.273 OA
ATOM      2  N   UNL     1     -37.665  21.144   0.962  0.00  0.00    -0.297 N 
ATOM      3  C   UNL     1     -36.708  20.225   1.365  0.00  0.00    +0.243 C 
ATOM      4  H   UNL     1     -37.980  21.113   0.029  0.00  0.00    +0.150 HD
ENDROOT
BRANCH   3   5
ATOM      5  C   UNL     1     -36.356  19.265   0.249  0.00  0.00    +0.176 C 
BRANCH   5   7
ATOM      6  O   UNL     1     -33.554  19.405  -0.520  0.00  0.00    -0.273 OA
ATOM      7  N   UNL     1     -35.279  18.399   0.677  0.00  0.00    -0.295 N 
ATOM      8  C   UNL     1     -33.974  18.550   0.252  0.00  0.00    +0.241 C 
ATOM      9  H   UNL     1     -35.487  17.668   1.302  0.00  0.00    +0.150 HD
BRANCH   8  12
ATOM     10  O   UNL     1     -34.679  15.438  -0.215  0.00  0.00    -0.277 OA
ATOM     11  N   UNL     1     -32.686  16.613  -0.245  0.00  0.00    -0.275 N 
ATOM     12  C   UNL     1     -33.024  17.541   0.826  0.00  0.00    +0.152 C 
ATOM     13  C   UNL     1     -31.696  18.176   1.222  0.00  0.00    +0.031 C 
ATOM     14  C   UNL     1     -30.881  18.129  -0.069  0.00  0.00    +0.024 C 
ATOM     15  C   UNL     1     -31.317  16.820  -0.710  0.00  0.00    +0.094 C 
ATOM     16  C   UNL     1     -33.528  15.581  -0.630  0.00  0.00    +0.205 C 
BRANCH  16  17
ATOM     17  C   UNL     1     -32.950  14.609  -1.627  0.00  0.00    +0.013 C 
ATOM     18  C   UNL     1     -33.949  14.352  -2.738  0.00  0.00    -0.015 C 
BRANCH  17  19
ATOM     19  N   UNL     1     -32.652  13.387  -0.900  0.00  0.00    +0.387 N 
ATOM     20  H   UNL     1     -33.296  12.650  -1.194  0.00  0.00    -0.089 HD
ATOM     21  H   UNL     1     -32.761  13.552   0.100  0.00  0.00    -0.089 HD
ATOM     22  H   UNL     1     -31.694  13.099  -1.096  0.00  0.00    -0.089 HD
ENDBRANCH  17  19
ENDBRANCH  16  17
ENDBRANCH   8  12
ENDBRANCH   5   7
ENDBRANCH   3   5
BRANCH   2  23
ATOM     23  C   UNL     1     -38.221  22.148   1.841  0.00  0.00    +0.153 C 
BRANCH  23  26
ATOM     24  O   UNL     1     -40.314  21.007   2.312  0.00  0.00    -0.274 OA
ATOM     25  N   UNL     1     -40.387  23.035   1.235  0.00  0.00    -0.327 N 
ATOM     26  C   UNL     1     -39.733  21.971   1.821  0.00  0.00    +0.238 C 
ATOM     27  H   UNL     1     -41.369  23.031   1.166  0.00  0.00    +0.145 HD
ATOM     28  H   UNL     1     -39.872  23.798   0.888  0.00  0.00    +0.145 HD
ENDBRANCH  23  26
BRANCH  23  29
ATOM     29  C   UNL     1     -37.841  23.571   1.414  0.00  0.00    +0.057 C 
BRANCH  29  31
ATOM     30  N   UNL     1     -37.816  26.143   4.006  0.00  0.00    -0.312 N 
ATOM     31  C   UNL     1     -37.597  24.490   2.577  0.00  0.00    -0.004 C 
ATOM     32  C   UNL     1     -36.554  24.370   3.515  0.00  0.00    +0.011 C 
ATOM     33  C   UNL     1     -36.712  25.430   4.412  0.00  0.00    +0.048 C 
ATOM     34  C   UNL     1     -38.360  25.574   2.886  0.00  0.00    +0.058 C 
ATOM     35  C   UNL     1     -35.484  23.475   3.705  0.00  0.00    +0.001 C 
ATOM     36  C   UNL     1     -35.848  25.638   5.493  0.00  0.00    +0.015 C 
ATOM     37  C   UNL     1     -34.612  23.671   4.784  0.00  0.00    +0.000 C 
ATOM     38  C   UNL     1     -34.794  24.736   5.662  0.00  0.00    +0.001 C 
ATOM     39  H   UNL     1     -38.164  26.947   4.454  0.00  0.00    +0.152 HD
ENDBRANCH  29  31
ENDBRANCH  23  29
ENDBRANCH   2  23
TORSDOF 9
ENDMDL
MODEL 7
REMARK VINA RESULT:      -6.2      2.113      2.802
REMARK  Name = 21120146
REMARK  9 active torsions:
REMARK  status: ('A' for Active; 'I' for Inactive)
REMARK    1  A    between atoms: N_2  and  C_23
REMARK    2  A    between atoms: C_3  and  C_5
REMARK    3  A    between atoms: C_5  and  N_7
REMARK    4  A    between atoms: C_8  and  C_12
REMARK    5  A    between atoms: C_16  and  C_17
REMARK    6  A    between atoms: C_17  and  N_19
REMARK    7  A    between atoms: C_23  and  C_26
REMARK    8  A    between atoms: C_23  and  C_29
REMARK    9  A    between atoms: C_29  and  C_31
REMARK                            x       y       z     vdW  Elec       q    Type
REMARK                         _______ _______ _______ _____ _____    ______ ____
ROOT
ATOM      1  O   UNL     1     -36.333  20.834  -2.670  0.00  0.00    -0.273 OA
ATOM      2  N   UNL     1     -36.075  21.096  -0.375  0.00  0.00    -0.297 N 
ATOM      3  C   UNL     1     -36.589  21.422  -1.621  0.00  0.00    +0.243 C 
ATOM      4  H   UNL     1     -36.349  21.638   0.401  0.00  0.00    +0.150 HD
ENDROOT
BRANCH   3   5
ATOM      5  C   UNL     1     -37.568  22.573  -1.534  0.00  0.00    +0.176 C 
BRANCH   5   7
ATOM      6  O   UNL     1     -38.368  24.911   0.002  0.00  0.00    -0.273 OA
ATOM      7  N   UNL     1     -38.165  22.601  -0.218  0.00  0.00    -0.295 N 
ATOM      8  C   UNL     1     -38.512  23.771   0.430  0.00  0.00    +0.241 C 
ATOM      9  H   UNL     1     -38.334  21.746   0.238  0.00  0.00    +0.150 HD
BRANCH   8  12
ATOM     10  O   UNL     1     -36.918  21.852   2.474  0.00  0.00    -0.277 OA
ATOM     11  N   UNL     1     -38.079  23.832   2.769  0.00  0.00    -0.275 N 
ATOM     12  C   UNL     1     -39.120  23.562   1.785  0.00  0.00    +0.152 C 
ATOM     13  C   UNL     1     -40.208  24.587   2.081  0.00  0.00    +0.031 C 
ATOM     14  C   UNL     1     -39.435  25.765   2.669  0.00  0.00    +0.024 C 
ATOM     15  C   UNL     1     -38.323  25.094   3.462  0.00  0.00    +0.094 C 
ATOM     16  C   UNL     1     -37.093  22.909   3.083  0.00  0.00    +0.205 C 
BRANCH  16  17
ATOM     17  C   UNL     1     -36.206  23.276   4.245  0.00  0.00    +0.013 C 
ATOM     18  C   UNL     1     -34.866  23.770   3.735  0.00  0.00    -0.015 C 
BRANCH  17  19
ATOM     19  N   UNL     1     -36.048  22.078   5.051  0.00  0.00    +0.387 N 
ATOM     20  H   UNL     1     -35.084  21.750   4.988  0.00  0.00    -0.089 HD
ATOM     21  H   UNL     1     -36.677  21.352   4.706  0.00  0.00    -0.089 HD
ATOM     22  H   UNL     1     -36.273  22.289   6.022  0.00  0.00    -0.089 HD
ENDBRANCH  17  19
ENDBRANCH  16  17
ENDBRANCH   8  12
ENDBRANCH   5   7
ENDBRANCH   3   5
BRANCH   2  23
ATOM     23  C   UNL     1     -35.155  20.002  -0.157  0.00  0.00    +0.153 C 
BRANCH  23  26
ATOM     24  O   UNL     1     -35.851  17.694  -0.462  0.00  0.00    -0.274 OA
ATOM     25  N   UNL     1     -36.896  18.952   1.151  0.00  0.00    -0.327 N 
ATOM     26  C   UNL     1     -35.993  18.763   0.126  0.00  0.00    +0.238 C 
ATOM     27  H   UNL     1     -37.492  18.218   1.423  0.00  0.00    +0.145 HD
ATOM     28  H   UNL     1     -36.943  19.821   1.612  0.00  0.00    +0.145 HD
ENDBRANCH  23  26
BRANCH  23  29
ATOM     29  C   UNL     1     -34.191  20.276   1.004  0.00  0.00    +0.057 C 
BRANCH  29  31
ATOM     30  N   UNL     1     -31.549  17.766   1.248  0.00  0.00    -0.312 N 
ATOM     31  C   UNL     1     -32.949  19.432   0.949  0.00  0.00    -0.004 C 
ATOM     32  C   UNL     1     -31.746  19.779   0.306  0.00  0.00    +0.011 C 
ATOM     33  C   UNL     1     -30.871  18.708   0.508  0.00  0.00    +0.048 C 
ATOM     34  C   UNL     1     -32.818  18.203   1.520  0.00  0.00    +0.058 C 
ATOM     35  C   UNL     1     -31.296  20.892  -0.432  0.00  0.00    +0.001 C 
ATOM     36  C   UNL     1     -29.565  18.696   0.008  0.00  0.00    +0.015 C 
ATOM     37  C   UNL     1     -29.991  20.892  -0.939  0.00  0.00    +0.000 C 
ATOM     38  C   UNL     1     -29.141  19.811  -0.721  0.00  0.00    +0.001 C 
ATOM     39  H   UNL     1     -31.176  16.904   1.540  0.00  0.00    +0.152 HD
ENDBRANCH  29  31
ENDBRANCH  23  29
ENDBRANCH   2  23
TORSDOF 9
ENDMDL
MODEL 8
REMARK VINA RESULT:      -6.2      2.860      5.067
REMARK  Name = 21120146
REMARK  9 active torsions:
REMARK  status: ('A' for Active; 'I' for Inactive)
REMARK    1  A    between atoms: N_2  and  C_23
REMARK    2  A    between atoms: C_3  and  C_5
REMARK    3  A    between atoms: C_5  and  N_7
REMARK    4  A    between atoms: C_8  and  C_12
REMARK    5  A    between atoms: C_16  and  C_17
REMARK    6  A    between atoms: C_17  and  N_19
REMARK    7  A    between atoms: C_23  and  C_26
REMARK    8  A    between atoms: C_23  and  C_29
REMARK    9  A    between atoms: C_29  and  C_31
REMARK                            x       y       z     vdW  Elec       q    Type
REMARK                         _______ _______ _______ _____ _____    ______ ____
ROOT
ATOM      1  O   UNL     1     -38.838  23.470   2.994  0.00  0.00    -0.273 OA
ATOM      2  N   UNL     1     -36.662  24.040   3.580  0.00  0.00    -0.297 N 
ATOM      3  C   UNL     1     -37.956  24.310   3.158  0.00  0.00    +0.243 C 
ATOM      4  H   UNL     1     -36.035  24.793   3.677  0.00  0.00    +0.150 HD
ENDROOT
BRANCH   3   5
ATOM      5  C   UNL     1     -38.181  25.795   2.973  0.00  0.00    +0.176 C 
BRANCH   5   7
ATOM      6  O   UNL     1     -37.119  27.904   1.274  0.00  0.00    -0.273 OA
ATOM      7  N   UNL     1     -36.925  26.496   3.119  0.00  0.00    -0.295 N 
ATOM      8  C   UNL     1     -36.509  27.489   2.253  0.00  0.00    +0.241 C 
ATOM      9  H   UNL     1     -36.339  26.255   3.871  0.00  0.00    +0.150 HD
BRANCH   8  12
ATOM     10  O   UNL     1     -34.071  25.432   2.730  0.00  0.00    -0.277 OA
ATOM     11  N   UNL     1     -34.198  27.495   1.688  0.00  0.00    -0.275 N 
ATOM     12  C   UNL     1     -35.175  28.080   2.598  0.00  0.00    +0.152 C 
ATOM     13  C   UNL     1     -35.127  29.576   2.308  0.00  0.00    +0.031 C 
ATOM     14  C   UNL     1     -34.715  29.639   0.838  0.00  0.00    +0.024 C 
ATOM     15  C   UNL     1     -33.755  28.468   0.693  0.00  0.00    +0.094 C 
ATOM     16  C   UNL     1     -33.670  26.227   1.878  0.00  0.00    +0.205 C 
BRANCH  16  17
ATOM     17  C   UNL     1     -32.545  25.847   0.949  0.00  0.00    +0.013 C 
ATOM     18  C   UNL     1     -32.792  24.466   0.375  0.00  0.00    -0.015 C 
BRANCH  17  19
ATOM     19  N   UNL     1     -31.323  25.874   1.735  0.00  0.00    +0.387 N 
ATOM     20  H   UNL     1     -30.519  25.748   1.119  0.00  0.00    -0.089 HD
ATOM     21  H   UNL     1     -31.345  25.122   2.423  0.00  0.00    -0.089 HD
ATOM     22  H   UNL     1     -31.247  26.771   2.214  0.00  0.00    -0.089 HD
ENDBRANCH  17  19
ENDBRANCH  16  17
ENDBRANCH   8  12
ENDBRANCH   5   7
ENDBRANCH   3   5
BRANCH   2  23
ATOM     23  C   UNL     1     -36.187  22.708   3.882  0.00  0.00    +0.153 C 
BRANCH  23  26
ATOM     24  O   UNL     1     -34.777  23.660   5.616  0.00  0.00    -0.274 OA
ATOM     25  N   UNL     1     -35.938  21.733   6.080  0.00  0.00    -0.327 N 
ATOM     26  C   UNL     1     -35.539  22.766   5.258  0.00  0.00    +0.238 C 
ATOM     27  H   UNL     1     -35.583  21.668   6.996  0.00  0.00    +0.145 HD
ATOM     28  H   UNL     1     -36.578  21.062   5.751  0.00  0.00    +0.145 HD
ENDBRANCH  23  26
BRANCH  23  29
ATOM     29  C   UNL     1     -35.187  22.197   2.838  0.00  0.00    +0.057 C 
BRANCH  29  31
ATOM     30  N   UNL     1     -37.085  19.606   1.100  0.00  0.00    -0.312 N 
ATOM     31  C   UNL     1     -35.707  21.032   2.045  0.00  0.00    -0.004 C 
ATOM     32  C   UNL     1     -34.921  20.088   1.358  0.00  0.00    +0.011 C 
ATOM     33  C   UNL     1     -35.815  19.192   0.765  0.00  0.00    +0.048 C 
ATOM     34  C   UNL     1     -37.025  20.729   1.881  0.00  0.00    +0.058 C 
ATOM     35  C   UNL     1     -33.540  19.889   1.170  0.00  0.00    +0.001 C 
ATOM     36  C   UNL     1     -35.393  18.104  -0.007  0.00  0.00    +0.015 C 
ATOM     37  C   UNL     1     -33.103  18.805   0.398  0.00  0.00    +0.000 C 
ATOM     38  C   UNL     1     -34.017  17.928  -0.180  0.00  0.00    +0.001 C 
ATOM     39  H   UNL     1     -37.915  19.160   0.819  0.00  0.00    +0.152 HD
ENDBRANCH  29  31
ENDBRANCH  23  29
ENDBRANCH   2  23
TORSDOF 9
ENDMDL
MODEL 9
REMARK VINA RESULT:      -6.2      4.860      6.827
REMARK  Name = 21120146
REMARK  9 active torsions:
REMARK  status: ('A' for Active; 'I' for Inactive)
REMARK    1  A    between atoms: N_2  and  C_23
REMARK    2  A    between atoms: C_3  and  C_5
REMARK    3  A    between atoms: C_5  and  N_7
REMARK    4  A    between atoms: C_8  and  C_12
REMARK    5  A    between atoms: C_16  and  C_17
REMARK    6  A    between atoms: C_17  and  N_19
REMARK    7  A    between atoms: C_23  and  C_26
REMARK    8  A    between atoms: C_23  and  C_29
REMARK    9  A    between atoms: C_29  and  C_31
REMARK                            x       y       z     vdW  Elec       q    Type
REMARK                         _______ _______ _______ _____ _____    ______ ____
ROOT
ATOM      1  O   UNL     1     -36.613  22.479   1.613  0.00  0.00    -0.273 OA
ATOM      2  N   UNL     1     -37.092  23.049   3.814  0.00  0.00    -0.297 N 
ATOM      3  C   UNL     1     -37.419  22.758   2.498  0.00  0.00    +0.243 C 
ATOM      4  H   UNL     1     -37.822  23.260   4.442  0.00  0.00    +0.150 HD
ENDROOT
BRANCH   3   5
ATOM      5  C   UNL     1     -38.917  22.768   2.282  0.00  0.00    +0.176 C 
BRANCH   5   7
ATOM      6  O   UNL     1     -41.379  23.850   1.174  0.00  0.00    -0.273 OA
ATOM      7  N   UNL     1     -39.412  24.123   2.389  0.00  0.00    -0.295 N 
ATOM      8  C   UNL     1     -40.601  24.539   1.824  0.00  0.00    +0.241 C 
ATOM      9  H   UNL     1     -38.876  24.779   2.889  0.00  0.00    +0.150 HD
BRANCH   8  12
ATOM     10  O   UNL     1     -38.355  26.694   0.976  0.00  0.00    -0.277 OA
ATOM     11  N   UNL     1     -40.664  26.693   0.814  0.00  0.00    -0.275 N 
ATOM     12  C   UNL     1     -40.918  25.986   2.063  0.00  0.00    +0.152 C 
ATOM     13  C   UNL     1     -42.402  26.202   2.337  0.00  0.00    +0.031 C 
ATOM     14  C   UNL     1     -43.000  26.358   0.940  0.00  0.00    +0.024 C 
ATOM     15  C   UNL     1     -41.913  27.095   0.174  0.00  0.00    +0.094 C 
ATOM     16  C   UNL     1     -39.388  27.054   0.409  0.00  0.00    +0.205 C 
BRANCH  16  17
ATOM     17  C   UNL     1     -39.320  27.933  -0.814  0.00  0.00    +0.013 C 
ATOM     18  C   UNL     1     -38.818  27.133  -1.999  0.00  0.00    -0.015 C 
BRANCH  17  19
ATOM     19  N   UNL     1     -38.414  29.024  -0.498  0.00  0.00    +0.387 N 
ATOM     20  H   UNL     1     -37.553  28.918  -1.036  0.00  0.00    -0.089 HD
ATOM     21  H   UNL     1     -38.196  29.006   0.498  0.00  0.00    -0.089 HD
ATOM     22  H   UNL     1     -38.856  29.912  -0.734  0.00  0.00    -0.089 HD
ENDBRANCH  17  19
ENDBRANCH  16  17
ENDBRANCH   8  12
ENDBRANCH   5   7
ENDBRANCH   3   5
BRANCH   2  23
ATOM     23  C   UNL     1     -35.735  23.059   4.312  0.00  0.00    +0.153 C 
BRANCH  23  26
ATOM     24  O   UNL     1     -35.045  20.746   4.593  0.00  0.00    -0.274 OA
ATOM     25  N   UNL     1     -35.906  21.863   6.406  0.00  0.00    -0.327 N 
ATOM     26  C   UNL     1     -35.532  21.762   5.082  0.00  0.00    +0.238 C 
ATOM     27  H   UNL     1     -35.819  21.086   7.003  0.00  0.00    +0.145 HD
ATOM     28  H   UNL     1     -36.259  22.714   6.754  0.00  0.00    +0.145 HD
ENDBRANCH  23  26
BRANCH  23  29
ATOM     29  C   UNL     1     -35.454  24.268   5.212  0.00  0.00    +0.057 C 
BRANCH  29  31
ATOM     30  N   UNL     1     -33.836  26.635   2.951  0.00  0.00    -0.312 N 
ATOM     31  C   UNL     1     -34.666  25.346   4.523  0.00  0.00    -0.004 C 
ATOM     32  C   UNL     1     -33.809  26.268   5.152  0.00  0.00    +0.011 C 
ATOM     33  C   UNL     1     -33.292  27.077   4.136  0.00  0.00    +0.048 C 
ATOM     34  C   UNL     1     -34.676  25.578   3.181  0.00  0.00    +0.058 C 
ATOM     35  C   UNL     1     -33.408  26.510   6.480  0.00  0.00    +0.001 C 
ATOM     36  C   UNL     1     -32.391  28.118   4.385  0.00  0.00    +0.015 C 
ATOM     37  C   UNL     1     -32.508  27.549   6.744  0.00  0.00    +0.000 C 
ATOM     38  C   UNL     1     -32.009  28.339   5.711  0.00  0.00    +0.001 C 
ATOM     39  H   UNL     1     -33.648  27.022   2.066  0.00  0.00    +0.152 HD
ENDBRANCH  29  31
ENDBRANCH  23  29
ENDBRANCH   2  23
TORSDOF 9
ENDMDL
