MODEL 1
REMARK VINA RESULT:      -6.6      0.000      0.000
REMARK  Name = 54677971
REMARK  2 active torsions:
REMARK  status: ('A' for Active; 'I' for Inactive)
REMARK    1  A    between atoms: C_7  and  C_15
REMARK    2  A    between atoms: C_9  and  O_23
REMARK                            x       y       z     vdW  Elec       q    Type
REMARK                         _______ _______ _______ _____ _____    ______ ____
ROOT
ATOM      1  S   UNL     1     -37.537  22.404   1.717  0.00  0.00    +0.077 S 
ATOM      2  S   UNL     1     -40.525  25.291   2.017  0.00  0.00    -0.082 S 
ATOM      3  O   UNL     1     -38.066  21.061   1.841  0.00  0.00    -0.150 OA
ATOM      4  O   UNL     1     -36.720  22.808   0.591  0.00  0.00    -0.150 OA
ATOM      5  N   UNL     1     -36.793  22.874   3.184  0.00  0.00    -0.181 N 
ATOM      6  C   UNL     1     -38.931  23.375   1.568  0.00  0.00    +0.135 C 
ATOM      7  C   UNL     1     -37.007  24.221   3.687  0.00  0.00    +0.156 C 
ATOM      8  C   UNL     1     -39.036  24.491   2.361  0.00  0.00    +0.083 C 
ATOM      9  C   UNL     1     -38.083  24.955   3.319  0.00  0.00    +0.160 C 
ATOM     10  C   UNL     1     -40.013  23.155   0.685  0.00  0.00    +0.028 C 
ATOM     11  C   UNL     1     -35.601  22.090   3.589  0.00  0.00    +0.139 C 
ATOM     12  C   UNL     1     -40.964  24.137   0.831  0.00  0.00    +0.037 C 
ENDROOT
BRANCH   7  15
ATOM     13  O   UNL     1     -36.009  24.278   5.798  0.00  0.00    -0.268 OA
ATOM     14  N   UNL     1     -35.261  25.762   4.129  0.00  0.00    -0.265 N 
ATOM     15  C   UNL     1     -36.040  24.749   4.665  0.00  0.00    +0.269 C 
ATOM     16  H   UNL     1     -35.440  25.999   3.190  0.00  0.00    +0.157 HD
ATOM     17  N   UNL     1     -33.586  27.451   4.080  0.00  0.00    -0.229 NA
ATOM     18  C   UNL     1     -34.237  26.493   4.778  0.00  0.00    +0.134 C 
ATOM     19  C   UNL     1     -33.966  26.178   6.100  0.00  0.00    +0.034 C 
ATOM     20  C   UNL     1     -32.963  26.892   6.747  0.00  0.00    +0.004 C 
ATOM     21  C   UNL     1     -32.618  28.122   4.742  0.00  0.00    +0.100 C 
ATOM     22  C   UNL     1     -32.271  27.884   6.061  0.00  0.00    +0.021 C 
ENDBRANCH   7  15
BRANCH   9  23
ATOM     23  O   UNL     1     -38.379  26.211   3.817  0.00  0.00    -0.504 OA
ATOM     24  H   UNL     1     -39.160  26.344   4.317  0.00  0.00    +0.292 HD
ENDBRANCH   9  23
TORSDOF 2
ENDMDL
MODEL 2
REMARK VINA RESULT:      -6.2      2.398      3.546
REMARK  Name = 54677971
REMARK  2 active torsions:
REMARK  status: ('A' for Active; 'I' for Inactive)
REMARK    1  A    between atoms: C_7  and  C_15
REMARK    2  A    between atoms: C_9  and  O_23
REMARK                            x       y       z     vdW  Elec       q    Type
REMARK                         _______ _______ _______ _____ _____    ______ ____
ROOT
ATOM      1  S   UNL     1     -39.362  21.868   1.297  0.00  0.00    +0.077 S 
ATOM      2  S   UNL     1     -36.224  19.359   0.198  0.00  0.00    -0.082 S 
ATOM      3  O   UNL     1     -39.968  22.513   0.149  0.00  0.00    -0.150 OA
ATOM      4  O   UNL     1     -40.142  21.115   2.257  0.00  0.00    -0.150 OA
ATOM      5  N   UNL     1     -38.332  22.969   2.106  0.00  0.00    -0.181 N 
ATOM      6  C   UNL     1     -38.337  20.694   0.604  0.00  0.00    +0.135 C 
ATOM      7  C   UNL     1     -37.042  22.509   2.589  0.00  0.00    +0.156 C 
ATOM      8  C   UNL     1     -37.039  20.617   1.049  0.00  0.00    +0.083 C 
ATOM      9  C   UNL     1     -36.430  21.424   2.059  0.00  0.00    +0.160 C 
ATOM     10  C   UNL     1     -38.691  19.759  -0.394  0.00  0.00    +0.028 C 
ATOM     11  C   UNL     1     -38.993  24.154   2.709  0.00  0.00    +0.139 C 
ATOM     12  C   UNL     1     -37.618  18.962  -0.714  0.00  0.00    +0.037 C 
ENDROOT
BRANCH   7  15
ATOM     13  O   UNL     1     -36.618  23.051   4.821  0.00  0.00    -0.268 OA
ATOM     14  N   UNL     1     -35.539  24.265   3.115  0.00  0.00    -0.265 N 
ATOM     15  C   UNL     1     -36.381  23.300   3.643  0.00  0.00    +0.269 C 
ATOM     16  H   UNL     1     -35.484  24.307   2.133  0.00  0.00    +0.157 HD
ATOM     17  N   UNL     1     -33.988  26.069   3.127  0.00  0.00    -0.229 NA
ATOM     18  C   UNL     1     -34.750  25.199   3.828  0.00  0.00    +0.134 C 
ATOM     19  C   UNL     1     -34.809  25.161   5.212  0.00  0.00    +0.034 C 
ATOM     20  C   UNL     1     -34.038  26.075   5.922  0.00  0.00    +0.004 C 
ATOM     21  C   UNL     1     -33.251  26.940   3.851  0.00  0.00    +0.100 C 
ATOM     22  C   UNL     1     -33.241  26.985   5.235  0.00  0.00    +0.021 C 
ENDBRANCH   7  15
BRANCH   9  23
ATOM     23  O   UNL     1     -35.173  20.979   2.425  0.00  0.00    -0.504 OA
ATOM     24  H   UNL     1     -34.444  21.568   2.406  0.00  0.00    +0.292 HD
ENDBRANCH   9  23
TORSDOF 2
ENDMDL
MODEL 3
REMARK VINA RESULT:      -6.1      3.039      4.379
REMARK  Name = 54677971
REMARK  2 active torsions:
REMARK  status: ('A' for Active; 'I' for Inactive)
REMARK    1  A    between atoms: C_7  and  C_15
REMARK    2  A    between atoms: C_9  and  O_23
REMARK                            x       y       z     vdW  Elec       q    Type
REMARK                         _______ _______ _______ _____ _____    ______ ____
ROOT
ATOM      1  S   UNL     1     -42.010  24.834   0.558  0.00  0.00    +0.077 S 
ATOM      2  S   UNL     1     -43.823  26.819   3.741  0.00  0.00    -0.082 S 
ATOM      3  O   UNL     1     -42.530  23.492   0.389  0.00  0.00    -0.150 OA
ATOM      4  O   UNL     1     -41.981  25.791  -0.529  0.00  0.00    -0.150 OA
ATOM      5  N   UNL     1     -40.485  24.773   1.332  0.00  0.00    -0.181 N 
ATOM      6  C   UNL     1     -43.077  25.541   1.685  0.00  0.00    +0.135 C 
ATOM      7  C   UNL     1     -40.179  25.741   2.372  0.00  0.00    +0.156 C 
ATOM      8  C   UNL     1     -42.543  26.201   2.765  0.00  0.00    +0.083 C 
ATOM      9  C   UNL     1     -41.155  26.377   3.061  0.00  0.00    +0.160 C 
ATOM     10  C   UNL     1     -44.489  25.532   1.619  0.00  0.00    +0.028 C 
ATOM     11  C   UNL     1     -39.401  24.096   0.579  0.00  0.00    +0.139 C 
ATOM     12  C   UNL     1     -45.028  26.200   2.694  0.00  0.00    +0.037 C 
ENDROOT
BRANCH   7  15
ATOM     13  O   UNL     1     -38.173  26.926   2.206  0.00  0.00    -0.268 OA
ATOM     14  N   UNL     1     -38.271  25.011   3.574  0.00  0.00    -0.265 N 
ATOM     15  C   UNL     1     -38.761  25.969   2.701  0.00  0.00    +0.269 C 
ATOM     16  H   UNL     1     -38.908  24.316   3.861  0.00  0.00    +0.157 HD
ATOM     17  N   UNL     1     -36.674  23.902   4.945  0.00  0.00    -0.229 NA
ATOM     18  C   UNL     1     -36.961  24.918   4.101  0.00  0.00    +0.134 C 
ATOM     19  C   UNL     1     -36.047  25.885   3.713  0.00  0.00    +0.034 C 
ATOM     20  C   UNL     1     -34.755  25.802   4.223  0.00  0.00    +0.004 C 
ATOM     21  C   UNL     1     -35.411  23.856   5.421  0.00  0.00    +0.100 C 
ATOM     22  C   UNL     1     -34.424  24.771   5.094  0.00  0.00    +0.021 C 
ENDBRANCH   7  15
BRANCH   9  23
ATOM     23  O   UNL     1     -40.930  27.252   4.108  0.00  0.00    -0.504 OA
ATOM     24  H   UNL     1     -40.605  26.930   4.926  0.00  0.00    +0.292 HD
ENDBRANCH   9  23
TORSDOF 2
ENDMDL
MODEL 4
REMARK VINA RESULT:      -6.1      3.961      6.093
REMARK  Name = 54677971
REMARK  2 active torsions:
REMARK  status: ('A' for Active; 'I' for Inactive)
REMARK    1  A    between atoms: C_7  and  C_15
REMARK    2  A    between atoms: C_9  and  O_23
REMARK                            x       y       z     vdW  Elec       q    Type
REMARK                         _______ _______ _______ _____ _____    ______ ____
ROOT
ATOM      1  S   UNL     1     -33.646  29.770   2.662  0.00  0.00    +0.077 S 
ATOM      2  S   UNL     1     -37.058  29.110   0.365  0.00  0.00    -0.082 S 
ATOM      3  O   UNL     1     -32.466  29.948   1.842  0.00  0.00    -0.150 OA
ATOM      4  O   UNL     1     -34.038  30.736   3.668  0.00  0.00    -0.150 OA
ATOM      5  N   UNL     1     -33.662  28.192   3.323  0.00  0.00    -0.181 N 
ATOM      6  C   UNL     1     -34.929  29.819   1.540  0.00  0.00    +0.135 C 
ATOM      7  C   UNL     1     -34.911  27.449   3.355  0.00  0.00    +0.156 C 
ATOM      8  C   UNL     1     -35.882  28.831   1.594  0.00  0.00    +0.083 C 
ATOM      9  C   UNL     1     -35.932  27.737   2.513  0.00  0.00    +0.160 C 
ATOM     10  C   UNL     1     -35.130  30.799   0.542  0.00  0.00    +0.028 C 
ATOM     11  C   UNL     1     -32.560  27.869   4.262  0.00  0.00    +0.139 C 
ATOM     12  C   UNL     1     -36.267  30.527  -0.182  0.00  0.00    +0.037 C 
ENDROOT
BRANCH   7  15
ATOM     13  O   UNL     1     -35.042  26.547   5.505  0.00  0.00    -0.268 OA
ATOM     14  N   UNL     1     -35.072  25.103   3.645  0.00  0.00    -0.265 N 
ATOM     15  C   UNL     1     -35.015  26.322   4.299  0.00  0.00    +0.269 C 
ATOM     16  H   UNL     1     -35.037  25.132   2.661  0.00  0.00    +0.157 HD
ATOM     17  N   UNL     1     -35.215  22.739   3.417  0.00  0.00    -0.229 NA
ATOM     18  C   UNL     1     -35.174  23.818   4.231  0.00  0.00    +0.134 C 
ATOM     19  C   UNL     1     -35.225  23.748   5.614  0.00  0.00    +0.034 C 
ATOM     20  C   UNL     1     -35.324  22.491   6.199  0.00  0.00    +0.004 C 
ATOM     21  C   UNL     1     -35.313  21.534   4.022  0.00  0.00    +0.100 C 
ATOM     22  C   UNL     1     -35.370  21.358   5.395  0.00  0.00    +0.021 C 
ENDBRANCH   7  15
BRANCH   9  23
ATOM     23  O   UNL     1     -37.114  27.024   2.446  0.00  0.00    -0.504 OA
ATOM     24  H   UNL     1     -37.928  27.476   2.341  0.00  0.00    +0.292 HD
ENDBRANCH   9  23
TORSDOF 2
ENDMDL
MODEL 5
REMARK VINA RESULT:      -5.9      4.703      6.406
REMARK  Name = 54677971
REMARK  2 active torsions:
REMARK  status: ('A' for Active; 'I' for Inactive)
REMARK    1  A    between atoms: C_7  and  C_15
REMARK    2  A    between atoms: C_9  and  O_23
REMARK                            x       y       z     vdW  Elec       q    Type
REMARK                         _______ _______ _______ _____ _____    ______ ____
ROOT
ATOM      1  S   UNL     1     -34.471  17.611  -0.610  0.00  0.00    +0.077 S 
ATOM      2  S   UNL     1     -38.599  17.227  -1.015  0.00  0.00    -0.082 S 
ATOM      3  O   UNL     1     -33.858  16.392  -0.121  0.00  0.00    -0.150 OA
ATOM      4  O   UNL     1     -34.022  18.265  -1.822  0.00  0.00    -0.150 OA
ATOM      5  N   UNL     1     -34.599  18.748   0.662  0.00  0.00    -0.181 N 
ATOM      6  C   UNL     1     -36.068  17.140  -0.977  0.00  0.00    +0.135 C 
ATOM      7  C   UNL     1     -35.817  19.529   0.794  0.00  0.00    +0.156 C 
ATOM      8  C   UNL     1     -37.101  17.914  -0.507  0.00  0.00    +0.083 C 
ATOM      9  C   UNL     1     -36.992  19.108   0.271  0.00  0.00    +0.160 C 
ATOM     10  C   UNL     1     -36.453  16.017  -1.743  0.00  0.00    +0.028 C 
ATOM     11  C   UNL     1     -33.317  19.233   1.232  0.00  0.00    +0.139 C 
ATOM     12  C   UNL     1     -37.823  15.944  -1.841  0.00  0.00    +0.037 C 
ENDROOT
BRANCH   7  15
ATOM     13  O   UNL     1     -35.860  21.855   0.998  0.00  0.00    -0.268 OA
ATOM     14  N   UNL     1     -35.563  20.535   2.925  0.00  0.00    -0.265 N 
ATOM     15  C   UNL     1     -35.751  20.778   1.574  0.00  0.00    +0.269 C 
ATOM     16  H   UNL     1     -35.500  19.590   3.194  0.00  0.00    +0.157 HD
ATOM     17  N   UNL     1     -35.271  21.054   5.229  0.00  0.00    -0.229 NA
ATOM     18  C   UNL     1     -35.453  21.492   3.963  0.00  0.00    +0.134 C 
ATOM     19  C   UNL     1     -35.540  22.829   3.610  0.00  0.00    +0.034 C 
ATOM     20  C   UNL     1     -35.432  23.778   4.622  0.00  0.00    +0.004 C 
ATOM     21  C   UNL     1     -35.172  22.004   6.184  0.00  0.00    +0.100 C 
ATOM     22  C   UNL     1     -35.245  23.365   5.936  0.00  0.00    +0.021 C 
ENDBRANCH   7  15
BRANCH   9  23
ATOM     23  O   UNL     1     -38.197  19.769   0.424  0.00  0.00    -0.504 OA
ATOM     24  H   UNL     1     -38.521  19.960   1.283  0.00  0.00    +0.292 HD
ENDBRANCH   9  23
TORSDOF 2
ENDMDL
MODEL 6
REMARK VINA RESULT:      -5.9      3.071      4.330
REMARK  Name = 54677971
REMARK  2 active torsions:
REMARK  status: ('A' for Active; 'I' for Inactive)
REMARK    1  A    between atoms: C_7  and  C_15
REMARK    2  A    between atoms: C_9  and  O_23
REMARK                            x       y       z     vdW  Elec       q    Type
REMARK                         _______ _______ _______ _____ _____    ______ ____
ROOT
ATOM      1  S   UNL     1     -40.454  27.331   0.201  0.00  0.00    +0.077 S 
ATOM      2  S   UNL     1     -43.492  27.299   3.051  0.00  0.00    -0.082 S 
ATOM      3  O   UNL     1     -40.912  26.844  -1.085  0.00  0.00    -0.150 OA
ATOM      4  O   UNL     1     -39.798  28.615   0.349  0.00  0.00    -0.150 OA
ATOM      5  N   UNL     1     -39.554  26.114   0.997  0.00  0.00    -0.181 N 
ATOM      6  C   UNL     1     -41.893  27.512   1.099  0.00  0.00    +0.135 C 
ATOM      7  C   UNL     1     -39.756  25.900   2.420  0.00  0.00    +0.156 C 
ATOM      8  C   UNL     1     -41.943  26.980   2.365  0.00  0.00    +0.083 C 
ATOM      9  C   UNL     1     -40.897  26.280   3.042  0.00  0.00    +0.160 C 
ATOM     10  C   UNL     1     -43.065  28.176   0.675  0.00  0.00    +0.028 C 
ATOM     11  C   UNL     1     -38.291  25.701   0.337  0.00  0.00    +0.139 C 
ATOM     12  C   UNL     1     -44.029  28.132   1.655  0.00  0.00    +0.037 C 
ENDROOT
BRANCH   7  15
ATOM     13  O   UNL     1     -38.810  23.994   3.384  0.00  0.00    -0.268 OA
ATOM     14  N   UNL     1     -37.668  26.048   3.532  0.00  0.00    -0.265 N 
ATOM     15  C   UNL     1     -38.697  25.196   3.166  0.00  0.00    +0.269 C 
ATOM     16  H   UNL     1     -37.763  26.990   3.260  0.00  0.00    +0.157 HD
ATOM     17  N   UNL     1     -35.602  26.698   4.516  0.00  0.00    -0.229 NA
ATOM     18  C   UNL     1     -36.496  25.718   4.253  0.00  0.00    +0.134 C 
ATOM     19  C   UNL     1     -36.338  24.399   4.648  0.00  0.00    +0.034 C 
ATOM     20  C   UNL     1     -35.190  24.064   5.358  0.00  0.00    +0.004 C 
ATOM     21  C   UNL     1     -34.499  26.335   5.207  0.00  0.00    +0.100 C 
ATOM     22  C   UNL     1     -34.248  25.046   5.647  0.00  0.00    +0.021 C 
ENDBRANCH   7  15
BRANCH   9  23
ATOM     23  O   UNL     1     -41.178  26.041   4.375  0.00  0.00    -0.504 OA
ATOM     24  H   UNL     1     -41.456  26.744   4.928  0.00  0.00    +0.292 HD
ENDBRANCH   9  23
TORSDOF 2
ENDMDL
MODEL 7
REMARK VINA RESULT:      -5.9      3.186      6.825
REMARK  Name = 54677971
REMARK  2 active torsions:
REMARK  status: ('A' for Active; 'I' for Inactive)
REMARK    1  A    between atoms: C_7  and  C_15
REMARK    2  A    between atoms: C_9  and  O_23
REMARK                            x       y       z     vdW  Elec       q    Type
REMARK                         _______ _______ _______ _____ _____    ______ ____
ROOT
ATOM      1  S   UNL     1     -34.563  25.564   4.662  0.00  0.00    +0.077 S 
ATOM      2  S   UNL     1     -33.918  29.182   2.702  0.00  0.00    -0.082 S 
ATOM      3  O   UNL     1     -33.432  24.668   4.534  0.00  0.00    -0.150 OA
ATOM      4  O   UNL     1     -35.124  25.916   5.950  0.00  0.00    -0.150 OA
ATOM      5  N   UNL     1     -35.807  25.087   3.588  0.00  0.00    -0.181 N 
ATOM      6  C   UNL     1     -33.973  27.047   4.063  0.00  0.00    +0.135 C 
ATOM      7  C   UNL     1     -36.529  26.104   2.843  0.00  0.00    +0.156 C 
ATOM      8  C   UNL     1     -34.730  27.726   3.139  0.00  0.00    +0.083 C 
ATOM      9  C   UNL     1     -35.996  27.327   2.609  0.00  0.00    +0.160 C 
ATOM     10  C   UNL     1     -32.764  27.677   4.434  0.00  0.00    +0.028 C 
ATOM     11  C   UNL     1     -36.413  23.756   3.844  0.00  0.00    +0.139 C 
ATOM     12  C   UNL     1     -32.607  28.862   3.756  0.00  0.00    +0.037 C 
ENDROOT
BRANCH   7  15
ATOM     13  O   UNL     1     -37.910  25.006   1.313  0.00  0.00    -0.268 OA
ATOM     14  N   UNL     1     -38.883  26.330   3.001  0.00  0.00    -0.265 N 
ATOM     15  C   UNL     1     -37.847  25.745   2.291  0.00  0.00    +0.269 C 
ATOM     16  H   UNL     1     -38.624  26.896   3.764  0.00  0.00    +0.157 HD
ATOM     17  N   UNL     1     -41.132  26.860   3.565  0.00  0.00    -0.229 NA
ATOM     18  C   UNL     1     -40.271  26.206   2.754  0.00  0.00    +0.134 C 
ATOM     19  C   UNL     1     -40.662  25.414   1.686  0.00  0.00    +0.034 C 
ATOM     20  C   UNL     1     -42.024  25.286   1.434  0.00  0.00    +0.004 C 
ATOM     21  C   UNL     1     -42.447  26.711   3.290  0.00  0.00    +0.100 C 
ATOM     22  C   UNL     1     -42.940  25.944   2.247  0.00  0.00    +0.021 C 
ENDBRANCH   7  15
BRANCH   9  23
ATOM     23  O   UNL     1     -36.602  28.310   1.849  0.00  0.00    -0.504 OA
ATOM     24  H   UNL     1     -36.083  28.986   1.457  0.00  0.00    +0.292 HD
ENDBRANCH   9  23
TORSDOF 2
ENDMDL
MODEL 8
REMARK VINA RESULT:      -5.8      3.123      4.224
REMARK  Name = 54677971
REMARK  2 active torsions:
REMARK  status: ('A' for Active; 'I' for Inactive)
REMARK    1  A    between atoms: C_7  and  C_15
REMARK    2  A    between atoms: C_9  and  O_23
REMARK                            x       y       z     vdW  Elec       q    Type
REMARK                         _______ _______ _______ _____ _____    ______ ____
ROOT
ATOM      1  S   UNL     1     -35.703  23.570   4.127  0.00  0.00    +0.077 S 
ATOM      2  S   UNL     1     -34.047  23.346   0.311  0.00  0.00    -0.082 S 
ATOM      3  O   UNL     1     -37.116  23.250   4.125  0.00  0.00    -0.150 OA
ATOM      4  O   UNL     1     -34.763  22.894   4.998  0.00  0.00    -0.150 OA
ATOM      5  N   UNL     1     -35.490  25.264   4.231  0.00  0.00    -0.181 N 
ATOM      6  C   UNL     1     -35.187  23.130   2.562  0.00  0.00    +0.135 C 
ATOM      7  C   UNL     1     -34.478  25.903   3.408  0.00  0.00    +0.156 C 
ATOM      8  C   UNL     1     -34.437  24.030   1.846  0.00  0.00    +0.083 C 
ATOM      9  C   UNL     1     -34.019  25.328   2.271  0.00  0.00    +0.160 C 
ATOM     10  C   UNL     1     -35.445  21.902   1.912  0.00  0.00    +0.028 C 
ATOM     11  C   UNL     1     -35.972  25.905   5.480  0.00  0.00    +0.139 C 
ATOM     12  C   UNL     1     -34.875  21.889   0.660  0.00  0.00    +0.037 C 
ENDROOT
BRANCH   7  15
ATOM     13  O   UNL     1     -34.683  28.225   3.559  0.00  0.00    -0.268 OA
ATOM     14  N   UNL     1     -32.782  27.174   4.470  0.00  0.00    -0.265 N 
ATOM     15  C   UNL     1     -34.002  27.237   3.816  0.00  0.00    +0.269 C 
ATOM     16  H   UNL     1     -32.392  26.276   4.580  0.00  0.00    +0.157 HD
ATOM     17  N   UNL     1     -30.855  27.986   5.605  0.00  0.00    -0.229 NA
ATOM     18  C   UNL     1     -32.034  28.253   4.997  0.00  0.00    +0.134 C 
ATOM     19  C   UNL     1     -32.561  29.527   4.855  0.00  0.00    +0.034 C 
ATOM     20  C   UNL     1     -31.833  30.595   5.368  0.00  0.00    +0.004 C 
ATOM     21  C   UNL     1     -30.177  29.049   6.092  0.00  0.00    +0.100 C 
ATOM     22  C   UNL     1     -30.617  30.359   6.000  0.00  0.00    +0.021 C 
ENDBRANCH   7  15
BRANCH   9  23
ATOM     23  O   UNL     1     -33.111  25.917   1.410  0.00  0.00    -0.504 OA
ATOM     24  H   UNL     1     -32.834  25.461   0.639  0.00  0.00    +0.292 HD
ENDBRANCH   9  23
TORSDOF 2
ENDMDL
MODEL 9
REMARK VINA RESULT:      -5.8      3.190      5.827
REMARK  Name = 54677971
REMARK  2 active torsions:
REMARK  status: ('A' for Active; 'I' for Inactive)
REMARK    1  A    between atoms: C_7  and  C_15
REMARK    2  A    between atoms: C_9  and  O_23
REMARK                            x       y       z     vdW  Elec       q    Type
REMARK                         _______ _______ _______ _____ _____    ______ ____
ROOT
ATOM      1  S   UNL     1     -37.003  24.935   3.381  0.00  0.00    +0.077 S 
ATOM      2  S   UNL     1     -40.314  23.255   1.493  0.00  0.00    -0.082 S 
ATOM      3  O   UNL     1     -36.638  26.212   2.801  0.00  0.00    -0.150 OA
ATOM      4  O   UNL     1     -37.244  24.776   4.801  0.00  0.00    -0.150 OA
ATOM      5  N   UNL     1     -35.938  23.717   2.824  0.00  0.00    -0.181 N 
ATOM      6  C   UNL     1     -38.517  24.591   2.677  0.00  0.00    +0.135 C 
ATOM      7  C   UNL     1     -36.479  22.422   2.448  0.00  0.00    +0.156 C 
ATOM      8  C   UNL     1     -38.715  23.345   2.132  0.00  0.00    +0.083 C 
ATOM      9  C   UNL     1     -37.776  22.268   2.091  0.00  0.00    +0.160 C 
ATOM     10  C   UNL     1     -39.623  25.467   2.602  0.00  0.00    +0.028 C 
ATOM     11  C   UNL     1     -34.517  23.863   3.224  0.00  0.00    +0.139 C 
ATOM     12  C   UNL     1     -40.681  24.857   1.970  0.00  0.00    +0.037 C 
ENDROOT
BRANCH   7  15
ATOM     13  O   UNL     1     -35.362  20.618   3.426  0.00  0.00    -0.268 OA
ATOM     14  N   UNL     1     -34.997  21.103   1.150  0.00  0.00    -0.265 N 
ATOM     15  C   UNL     1     -35.552  21.277   2.408  0.00  0.00    +0.269 C 
ATOM     16  H   UNL     1     -35.280  21.743   0.457  0.00  0.00    +0.157 HD
ATOM     17  N   UNL     1     -33.644  20.106  -0.534  0.00  0.00    -0.229 NA
ATOM     18  C   UNL     1     -34.072  20.110   0.749  0.00  0.00    +0.134 C 
ATOM     19  C   UNL     1     -33.659  19.197   1.706  0.00  0.00    +0.034 C 
ATOM     20  C   UNL     1     -32.749  18.218   1.323  0.00  0.00    +0.004 C 
ATOM     21  C   UNL     1     -32.762  19.139  -0.869  0.00  0.00    +0.100 C 
ATOM     22  C   UNL     1     -32.287  18.182   0.012  0.00  0.00    +0.021 C 
ENDBRANCH   7  15
BRANCH   9  23
ATOM     23  O   UNL     1     -38.331  21.079   1.656  0.00  0.00    -0.504 OA
ATOM     24  H   UNL     1     -38.986  20.651   2.172  0.00  0.00    +0.292 HD
ENDBRANCH   9  23
TORSDOF 2
ENDMDL
