MODEL 1
REMARK VINA RESULT:      -7.1      0.000      0.000
REMARK  Name = 21183
REMARK  3 active torsions:
REMARK  status: ('A' for Active; 'I' for Inactive)
REMARK    1  A    between atoms: C_3  and  C_14
REMARK    2  A    between atoms: C_3  and  O_25
REMARK    3  A    between atoms: C_14  and  O_23
REMARK                            x       y       z     vdW  Elec       q    Type
REMARK                         _______ _______ _______ _____ _____    ______ ____
ROOT
ATOM      1  O   UNL     1     -36.721  24.103   1.766  0.00  0.00    -0.288 OA
ATOM      2  O   UNL     1     -35.890  26.228   5.929  0.00  0.00    -0.288 OA
ATOM      3  C   UNL     1     -36.573  25.701   3.628  0.00  0.00    +0.234 C 
ATOM      4  C   UNL     1     -36.464  24.352   2.930  0.00  0.00    +0.207 C 
ATOM      5  C   UNL     1     -36.046  25.424   5.030  0.00  0.00    +0.207 C 
ATOM      6  C   UNL     1     -35.965  23.376   3.899  0.00  0.00    +0.040 C 
ATOM      7  C   UNL     1     -35.722  23.999   5.120  0.00  0.00    +0.040 C 
ATOM      8  C   UNL     1     -35.734  22.027   3.715  0.00  0.00    +0.003 C 
ATOM      9  C   UNL     1     -35.237  23.300   6.209  0.00  0.00    +0.003 C 
ATOM     10  C   UNL     1     -35.245  21.302   4.806  0.00  0.00    +0.000 C 
ATOM     11  C   UNL     1     -34.998  21.932   6.040  0.00  0.00    +0.000 C 
ENDROOT
BRANCH   3  14
ATOM     12  O   UNL     1     -33.559  25.583   3.156  0.00  0.00    -0.288 OA
ATOM     13  O   UNL     1     -37.476  27.695   1.501  0.00  0.00    -0.288 OA
ATOM     14  C   UNL     1     -35.715  26.741   2.927  0.00  0.00    +0.234 C 
ATOM     15  C   UNL     1     -34.397  26.132   2.465  0.00  0.00    +0.207 C 
ATOM     16  C   UNL     1     -36.372  27.198   1.631  0.00  0.00    +0.207 C 
ATOM     17  C   UNL     1     -34.304  26.294   1.014  0.00  0.00    +0.040 C 
ATOM     18  C   UNL     1     -35.452  26.913   0.528  0.00  0.00    +0.040 C 
ATOM     19  C   UNL     1     -33.275  25.913   0.174  0.00  0.00    +0.003 C 
ATOM     20  C   UNL     1     -35.621  27.179  -0.816  0.00  0.00    +0.003 C 
ATOM     21  C   UNL     1     -33.427  26.175  -1.190  0.00  0.00    +0.000 C 
ATOM     22  C   UNL     1     -34.589  26.801  -1.681  0.00  0.00    +0.000 C 
BRANCH  14  23
ATOM     23  O   UNL     1     -35.491  27.829   3.786  0.00  0.00    -0.371 OA
ATOM     24  H   UNL     1     -34.815  28.409   3.403  0.00  0.00    +0.211 HD
ENDBRANCH  14  23
ENDBRANCH   3  14
BRANCH   3  25
ATOM     25  O   UNL     1     -37.907  26.137   3.671  0.00  0.00    -0.371 OA
ATOM     26  H   UNL     1     -38.046  26.822   2.998  0.00  0.00    +0.211 HD
ENDBRANCH   3  25
TORSDOF 3
ENDMDL
MODEL 2
REMARK VINA RESULT:      -7.1      0.191      5.516
REMARK  Name = 21183
REMARK  3 active torsions:
REMARK  status: ('A' for Active; 'I' for Inactive)
REMARK    1  A    between atoms: C_3  and  C_14
REMARK    2  A    between atoms: C_3  and  O_25
REMARK    3  A    between atoms: C_14  and  O_23
REMARK                            x       y       z     vdW  Elec       q    Type
REMARK                         _______ _______ _______ _____ _____    ______ ____
ROOT
ATOM      1  O   UNL     1     -33.487  25.644   3.297  0.00  0.00    -0.288 OA
ATOM      2  O   UNL     1     -37.322  27.796   1.509  0.00  0.00    -0.288 OA
ATOM      3  C   UNL     1     -35.631  26.808   2.993  0.00  0.00    +0.234 C 
ATOM      4  C   UNL     1     -34.292  26.210   2.581  0.00  0.00    +0.207 C 
ATOM      5  C   UNL     1     -36.226  27.296   1.679  0.00  0.00    +0.207 C 
ATOM      6  C   UNL     1     -34.129  26.408   1.140  0.00  0.00    +0.040 C 
ATOM      7  C   UNL     1     -35.253  27.040   0.615  0.00  0.00    +0.040 C 
ATOM      8  C   UNL     1     -33.061  26.049   0.341  0.00  0.00    +0.003 C 
ATOM      9  C   UNL     1     -35.358  27.339  -0.729  0.00  0.00    +0.003 C 
ATOM     10  C   UNL     1     -33.147  26.345  -1.022  0.00  0.00    +0.000 C 
ATOM     11  C   UNL     1     -34.285  26.983  -1.552  0.00  0.00    +0.000 C 
ENDROOT
BRANCH   3  14
ATOM     12  O   UNL     1     -36.618  24.223   1.702  0.00  0.00    -0.288 OA
ATOM     13  O   UNL     1     -35.912  26.185   5.967  0.00  0.00    -0.288 OA
ATOM     14  C   UNL     1     -36.520  25.750   3.626  0.00  0.00    +0.234 C 
ATOM     15  C   UNL     1     -36.399  24.427   2.882  0.00  0.00    +0.207 C 
ATOM     16  C   UNL     1     -36.043  25.416   5.033  0.00  0.00    +0.207 C 
ATOM     17  C   UNL     1     -35.940  23.411   3.831  0.00  0.00    +0.040 C 
ATOM     18  C   UNL     1     -35.733  23.986   5.082  0.00  0.00    +0.040 C 
ATOM     19  C   UNL     1     -35.713  22.068   3.604  0.00  0.00    +0.003 C 
ATOM     20  C   UNL     1     -35.291  23.243   6.159  0.00  0.00    +0.003 C 
ATOM     21  C   UNL     1     -35.267  21.299   4.683  0.00  0.00    +0.000 C 
ATOM     22  C   UNL     1     -35.058  21.881   5.948  0.00  0.00    +0.000 C 
BRANCH  14  23
ATOM     23  O   UNL     1     -37.852  26.196   3.641  0.00  0.00    -0.371 OA
ATOM     24  H   UNL     1     -37.959  26.872   4.328  0.00  0.00    +0.211 HD
ENDBRANCH  14  23
ENDBRANCH   3  14
BRANCH   3  25
ATOM     25  O   UNL     1     -35.449  27.874   3.889  0.00  0.00    -0.371 OA
ATOM     26  H   UNL     1     -36.198  28.486   3.819  0.00  0.00    +0.211 HD
ENDBRANCH   3  25
TORSDOF 3
ENDMDL
MODEL 3
REMARK VINA RESULT:      -7.0      3.409      5.949
REMARK  Name = 21183
REMARK  3 active torsions:
REMARK  status: ('A' for Active; 'I' for Inactive)
REMARK    1  A    between atoms: C_3  and  C_14
REMARK    2  A    between atoms: C_3  and  O_25
REMARK    3  A    between atoms: C_14  and  O_23
REMARK                            x       y       z     vdW  Elec       q    Type
REMARK                         _______ _______ _______ _____ _____    ______ ____
ROOT
ATOM      1  O   UNL     1     -34.506  23.058   0.978  0.00  0.00    -0.288 OA
ATOM      2  O   UNL     1     -36.876  18.963   0.599  0.00  0.00    -0.288 OA
ATOM      3  C   UNL     1     -36.244  21.327   0.822  0.00  0.00    +0.234 C 
ATOM      4  C   UNL     1     -34.834  21.902   0.784  0.00  0.00    +0.207 C 
ATOM      5  C   UNL     1     -36.030  19.837   0.592  0.00  0.00    +0.207 C 
ATOM      6  C   UNL     1     -33.904  20.811   0.493  0.00  0.00    +0.040 C 
ATOM      7  C   UNL     1     -34.599  19.610   0.381  0.00  0.00    +0.040 C 
ATOM      8  C   UNL     1     -32.532  20.872   0.343  0.00  0.00    +0.003 C 
ATOM      9  C   UNL     1     -33.952  18.419   0.115  0.00  0.00    +0.003 C 
ATOM     10  C   UNL     1     -31.861  19.677   0.071  0.00  0.00    +0.000 C 
ATOM     11  C   UNL     1     -32.563  18.462  -0.042  0.00  0.00    +0.000 C 
ENDROOT
BRANCH   3  14
ATOM     12  O   UNL     1     -35.207  20.425   3.549  0.00  0.00    -0.288 OA
ATOM     13  O   UNL     1     -38.105  23.625   1.574  0.00  0.00    -0.288 OA
ATOM     14  C   UNL     1     -36.891  21.575   2.175  0.00  0.00    +0.234 C 
ATOM     15  C   UNL     1     -35.874  21.412   3.298  0.00  0.00    +0.207 C 
ATOM     16  C   UNL     1     -37.336  23.026   2.302  0.00  0.00    +0.207 C 
ATOM     17  C   UNL     1     -35.804  22.674   4.036  0.00  0.00    +0.040 C 
ATOM     18  C   UNL     1     -36.654  23.612   3.457  0.00  0.00    +0.040 C 
ATOM     19  C   UNL     1     -35.036  22.977   5.143  0.00  0.00    +0.003 C 
ATOM     20  C   UNL     1     -36.772  24.893   3.960  0.00  0.00    +0.003 C 
ATOM     21  C   UNL     1     -35.143  24.268   5.667  0.00  0.00    +0.000 C 
ATOM     22  C   UNL     1     -36.002  25.217   5.082  0.00  0.00    +0.000 C 
BRANCH  14  23
ATOM     23  O   UNL     1     -37.975  20.700   2.350  0.00  0.00    -0.371 OA
ATOM     24  H   UNL     1     -38.793  21.137   2.067  0.00  0.00    +0.211 HD
ENDBRANCH  14  23
ENDBRANCH   3  14
BRANCH   3  25
ATOM     25  O   UNL     1     -37.039  21.882  -0.193  0.00  0.00    -0.371 OA
ATOM     26  H   UNL     1     -37.201  21.215  -0.879  0.00  0.00    +0.211 HD
ENDBRANCH   3  25
TORSDOF 3
ENDMDL
MODEL 4
REMARK VINA RESULT:      -7.0      3.405      5.562
REMARK  Name = 21183
REMARK  3 active torsions:
REMARK  status: ('A' for Active; 'I' for Inactive)
REMARK    1  A    between atoms: C_3  and  C_14
REMARK    2  A    between atoms: C_3  and  O_25
REMARK    3  A    between atoms: C_14  and  O_23
REMARK                            x       y       z     vdW  Elec       q    Type
REMARK                         _______ _______ _______ _____ _____    ______ ____
ROOT
ATOM      1  O   UNL     1     -35.235  20.439   3.583  0.00  0.00    -0.288 OA
ATOM      2  O   UNL     1     -38.036  23.655   1.499  0.00  0.00    -0.288 OA
ATOM      3  C   UNL     1     -36.875  21.594   2.161  0.00  0.00    +0.234 C 
ATOM      4  C   UNL     1     -35.877  21.434   3.301  0.00  0.00    +0.207 C 
ATOM      5  C   UNL     1     -37.290  23.056   2.250  0.00  0.00    +0.207 C 
ATOM      6  C   UNL     1     -35.790  22.710   4.013  0.00  0.00    +0.040 C 
ATOM      7  C   UNL     1     -36.612  23.653   3.402  0.00  0.00    +0.040 C 
ATOM      8  C   UNL     1     -35.031  23.021   5.124  0.00  0.00    +0.003 C 
ATOM      9  C   UNL     1     -36.710  24.947   3.876  0.00  0.00    +0.003 C 
ATOM     10  C   UNL     1     -35.118  24.325   5.619  0.00  0.00    +0.000 C 
ATOM     11  C   UNL     1     -35.948  25.279   5.001  0.00  0.00    +0.000 C 
ENDROOT
BRANCH   3  14
ATOM     12  O   UNL     1     -34.442  23.000   0.967  0.00  0.00    -0.288 OA
ATOM     13  O   UNL     1     -36.895  18.948   0.641  0.00  0.00    -0.288 OA
ATOM     14  C   UNL     1     -36.215  21.302   0.823  0.00  0.00    +0.234 C 
ATOM     15  C   UNL     1     -34.792  21.847   0.793  0.00  0.00    +0.207 C 
ATOM     16  C   UNL     1     -36.029  19.803   0.629  0.00  0.00    +0.207 C 
ATOM     17  C   UNL     1     -33.882  20.729   0.539  0.00  0.00    +0.040 C 
ATOM     18  C   UNL     1     -34.601  19.541   0.443  0.00  0.00    +0.040 C 
ATOM     19  C   UNL     1     -32.507  20.758   0.407  0.00  0.00    +0.003 C 
ATOM     20  C   UNL     1     -33.977  18.331   0.211  0.00  0.00    +0.003 C 
ATOM     21  C   UNL     1     -31.858  19.543   0.170  0.00  0.00    +0.000 C 
ATOM     22  C   UNL     1     -32.585  18.341   0.073  0.00  0.00    +0.000 C 
BRANCH  14  23
ATOM     23  O   UNL     1     -36.984  21.852  -0.215  0.00  0.00    -0.371 OA
ATOM     24  H   UNL     1     -37.923  21.816   0.024  0.00  0.00    +0.211 HD
ENDBRANCH  14  23
ENDBRANCH   3  14
BRANCH   3  25
ATOM     25  O   UNL     1     -37.979  20.746   2.340  0.00  0.00    -0.371 OA
ATOM     26  H   UNL     1     -38.436  20.979   3.163  0.00  0.00    +0.211 HD
ENDBRANCH   3  25
TORSDOF 3
ENDMDL
MODEL 5
REMARK VINA RESULT:      -6.7      2.120      5.620
REMARK  Name = 21183
REMARK  3 active torsions:
REMARK  status: ('A' for Active; 'I' for Inactive)
REMARK    1  A    between atoms: C_3  and  C_14
REMARK    2  A    between atoms: C_3  and  O_25
REMARK    3  A    between atoms: C_14  and  O_23
REMARK                            x       y       z     vdW  Elec       q    Type
REMARK                         _______ _______ _______ _____ _____    ______ ____
ROOT
ATOM      1  O   UNL     1     -36.307  28.672   1.836  0.00  0.00    -0.288 OA
ATOM      2  O   UNL     1     -32.954  25.690   3.383  0.00  0.00    -0.288 OA
ATOM      3  C   UNL     1     -34.914  26.700   2.299  0.00  0.00    +0.234 C 
ATOM      4  C   UNL     1     -35.297  28.175   2.297  0.00  0.00    +0.207 C 
ATOM      5  C   UNL     1     -33.605  26.671   3.077  0.00  0.00    +0.207 C 
ATOM      6  C   UNL     1     -34.238  28.922   2.978  0.00  0.00    +0.040 C 
ATOM      7  C   UNL     1     -33.254  28.047   3.432  0.00  0.00    +0.040 C 
ATOM      8  C   UNL     1     -34.151  30.284   3.190  0.00  0.00    +0.003 C 
ATOM      9  C   UNL     1     -32.142  28.497   4.116  0.00  0.00    +0.003 C 
ATOM     10  C   UNL     1     -33.032  30.758   3.880  0.00  0.00    +0.000 C 
ATOM     11  C   UNL     1     -32.037  29.874   4.339  0.00  0.00    +0.000 C 
ENDROOT
BRANCH   3  14
ATOM     12  O   UNL     1     -36.063  24.027   1.375  0.00  0.00    -0.288 OA
ATOM     13  O   UNL     1     -35.549  26.672   5.284  0.00  0.00    -0.288 OA
ATOM     14  C   UNL     1     -35.975  25.869   3.000  0.00  0.00    +0.234 C 
ATOM     15  C   UNL     1     -35.936  24.425   2.518  0.00  0.00    +0.207 C 
ATOM     16  C   UNL     1     -35.677  25.759   4.490  0.00  0.00    +0.207 C 
ATOM     17  C   UNL     1     -35.690  23.564   3.676  0.00  0.00    +0.040 C 
ATOM     18  C   UNL     1     -35.540  24.340   4.823  0.00  0.00    +0.040 C 
ATOM     19  C   UNL     1     -35.599  22.187   3.715  0.00  0.00    +0.003 C 
ATOM     20  C   UNL     1     -35.292  23.771   6.057  0.00  0.00    +0.003 C 
ATOM     21  C   UNL     1     -35.350  21.593   4.956  0.00  0.00    +0.000 C 
ATOM     22  C   UNL     1     -35.198  22.377   6.115  0.00  0.00    +0.000 C 
BRANCH  14  23
ATOM     23  O   UNL     1     -37.242  26.436   2.783  0.00  0.00    -0.371 OA
ATOM     24  H   UNL     1     -37.927  25.773   2.960  0.00  0.00    +0.211 HD
ENDBRANCH  14  23
ENDBRANCH   3  14
BRANCH   3  25
ATOM     25  O   UNL     1     -34.730  26.229   0.989  0.00  0.00    -0.371 OA
ATOM     26  H   UNL     1     -33.783  26.118   0.815  0.00  0.00    +0.211 HD
ENDBRANCH   3  25
TORSDOF 3
ENDMDL
MODEL 6
REMARK VINA RESULT:      -6.7      3.247      5.339
REMARK  Name = 21183
REMARK  3 active torsions:
REMARK  status: ('A' for Active; 'I' for Inactive)
REMARK    1  A    between atoms: C_3  and  C_14
REMARK    2  A    between atoms: C_3  and  O_25
REMARK    3  A    between atoms: C_14  and  O_23
REMARK                            x       y       z     vdW  Elec       q    Type
REMARK                         _______ _______ _______ _____ _____    ______ ____
ROOT
ATOM      1  O   UNL     1     -37.159  21.146  -0.690  0.00  0.00    -0.288 OA
ATOM      2  O   UNL     1     -35.257  20.901   3.652  0.00  0.00    -0.288 OA
ATOM      3  C   UNL     1     -36.697  21.359   1.715  0.00  0.00    +0.234 C 
ATOM      4  C   UNL     1     -36.499  20.856   0.291  0.00  0.00    +0.207 C 
ATOM      5  C   UNL     1     -35.541  20.732   2.481  0.00  0.00    +0.207 C 
ATOM      6  C   UNL     1     -35.342  19.960   0.281  0.00  0.00    +0.040 C 
ATOM      7  C   UNL     1     -34.785  19.888   1.554  0.00  0.00    +0.040 C 
ATOM      8  C   UNL     1     -34.811  19.259  -0.784  0.00  0.00    +0.003 C 
ATOM      9  C   UNL     1     -33.673  19.112   1.817  0.00  0.00    +0.003 C 
ATOM     10  C   UNL     1     -33.687  18.467  -0.537  0.00  0.00    +0.000 C 
ATOM     11  C   UNL     1     -33.122  18.394   0.751  0.00  0.00    +0.000 C 
ENDROOT
BRANCH   3  14
ATOM     12  O   UNL     1     -38.418  23.235   3.402  0.00  0.00    -0.288 OA
ATOM     13  O   UNL     1     -34.255  23.091   1.123  0.00  0.00    -0.288 OA
ATOM     14  C   UNL     1     -36.617  22.876   1.766  0.00  0.00    +0.234 C 
ATOM     15  C   UNL     1     -37.270  23.409   3.036  0.00  0.00    +0.207 C 
ATOM     16  C   UNL     1     -35.171  23.336   1.886  0.00  0.00    +0.207 C 
ATOM     17  C   UNL     1     -36.264  24.166   3.782  0.00  0.00    +0.040 C 
ATOM     18  C   UNL     1     -35.043  24.124   3.114  0.00  0.00    +0.040 C 
ATOM     19  C   UNL     1     -36.414  24.842   4.977  0.00  0.00    +0.003 C 
ATOM     20  C   UNL     1     -33.921  24.756   3.611  0.00  0.00    +0.003 C 
ATOM     21  C   UNL     1     -35.289  25.490   5.495  0.00  0.00    +0.000 C 
ATOM     22  C   UNL     1     -34.054  25.447   4.820  0.00  0.00    +0.000 C 
BRANCH  14  23
ATOM     23  O   UNL     1     -37.225  23.422   0.624  0.00  0.00    -0.371 OA
ATOM     24  H   UNL     1     -37.384  22.720  -0.025  0.00  0.00    +0.211 HD
ENDBRANCH  14  23
ENDBRANCH   3  14
BRANCH   3  25
ATOM     25  O   UNL     1     -37.931  20.932   2.230  0.00  0.00    -0.371 OA
ATOM     26  H   UNL     1     -38.642  21.181   1.619  0.00  0.00    +0.211 HD
ENDBRANCH   3  25
TORSDOF 3
ENDMDL
MODEL 7
REMARK VINA RESULT:      -6.7      2.112      3.341
REMARK  Name = 21183
REMARK  3 active torsions:
REMARK  status: ('A' for Active; 'I' for Inactive)
REMARK    1  A    between atoms: C_3  and  C_14
REMARK    2  A    between atoms: C_3  and  O_25
REMARK    3  A    between atoms: C_14  and  O_23
REMARK                            x       y       z     vdW  Elec       q    Type
REMARK                         _______ _______ _______ _____ _____    ______ ____
ROOT
ATOM      1  O   UNL     1     -36.110  24.045   1.326  0.00  0.00    -0.288 OA
ATOM      2  O   UNL     1     -35.583  26.684   5.236  0.00  0.00    -0.288 OA
ATOM      3  C   UNL     1     -36.024  25.884   2.955  0.00  0.00    +0.234 C 
ATOM      4  C   UNL     1     -35.976  24.441   2.469  0.00  0.00    +0.207 C 
ATOM      5  C   UNL     1     -35.711  25.772   4.442  0.00  0.00    +0.207 C 
ATOM      6  C   UNL     1     -35.712  23.579   3.623  0.00  0.00    +0.040 C 
ATOM      7  C   UNL     1     -35.558  24.353   4.770  0.00  0.00    +0.040 C 
ATOM      8  C   UNL     1     -35.608  22.203   3.657  0.00  0.00    +0.003 C 
ATOM      9  C   UNL     1     -35.294  23.784   6.000  0.00  0.00    +0.003 C 
ATOM     10  C   UNL     1     -35.343  21.608   4.894  0.00  0.00    +0.000 C 
ATOM     11  C   UNL     1     -35.187  22.390   6.054  0.00  0.00    +0.000 C 
ENDROOT
BRANCH   3  14
ATOM     12  O   UNL     1     -36.392  28.686   1.801  0.00  0.00    -0.288 OA
ATOM     13  O   UNL     1     -32.997  25.730   3.310  0.00  0.00    -0.288 OA
ATOM     14  C   UNL     1     -34.976  26.726   2.247  0.00  0.00    +0.234 C 
ATOM     15  C   UNL     1     -35.372  28.197   2.252  0.00  0.00    +0.207 C 
ATOM     16  C   UNL     1     -33.660  26.706   3.012  0.00  0.00    +0.207 C 
ATOM     17  C   UNL     1     -34.314  28.952   2.925  0.00  0.00    +0.040 C 
ATOM     18  C   UNL     1     -33.319  28.085   3.367  0.00  0.00    +0.040 C 
ATOM     19  C   UNL     1     -34.238  30.314   3.140  0.00  0.00    +0.003 C 
ATOM     20  C   UNL     1     -32.205  28.543   4.043  0.00  0.00    +0.003 C 
ATOM     21  C   UNL     1     -33.117  30.796   3.820  0.00  0.00    +0.000 C 
ATOM     22  C   UNL     1     -32.110  29.920   4.268  0.00  0.00    +0.000 C 
BRANCH  14  23
ATOM     23  O   UNL     1     -34.800  26.259   0.934  0.00  0.00    -0.371 OA
ATOM     24  H   UNL     1     -34.942  25.300   0.910  0.00  0.00    +0.211 HD
ENDBRANCH  14  23
ENDBRANCH   3  14
BRANCH   3  25
ATOM     25  O   UNL     1     -37.297  26.439   2.751  0.00  0.00    -0.371 OA
ATOM     26  H   UNL     1     -37.968  25.870   3.159  0.00  0.00    +0.211 HD
ENDBRANCH   3  25
TORSDOF 3
ENDMDL
MODEL 8
REMARK VINA RESULT:      -6.6      2.421      5.260
REMARK  Name = 21183
REMARK  3 active torsions:
REMARK  status: ('A' for Active; 'I' for Inactive)
REMARK    1  A    between atoms: C_3  and  C_14
REMARK    2  A    between atoms: C_3  and  O_25
REMARK    3  A    between atoms: C_14  and  O_23
REMARK                            x       y       z     vdW  Elec       q    Type
REMARK                         _______ _______ _______ _____ _____    ______ ____
ROOT
ATOM      1  O   UNL     1     -36.544  26.210  -0.148  0.00  0.00    -0.288 OA
ATOM      2  O   UNL     1     -38.606  24.646   3.832  0.00  0.00    -0.288 OA
ATOM      3  C   UNL     1     -37.183  25.792   2.189  0.00  0.00    +0.234 C 
ATOM      4  C   UNL     1     -37.295  25.714   0.672  0.00  0.00    +0.207 C 
ATOM      5  C   UNL     1     -38.335  24.926   2.679  0.00  0.00    +0.207 C 
ATOM      6  C   UNL     1     -38.470  24.906   0.343  0.00  0.00    +0.040 C 
ATOM      7  C   UNL     1     -39.075  24.448   1.510  0.00  0.00    +0.040 C 
ATOM      8  C   UNL     1     -38.969  24.589  -0.905  0.00  0.00    +0.003 C 
ATOM      9  C   UNL     1     -40.204  23.653   1.478  0.00  0.00    +0.003 C 
ATOM     10  C   UNL     1     -40.112  23.788  -0.957  0.00  0.00    +0.000 C 
ATOM     11  C   UNL     1     -40.725  23.324   0.223  0.00  0.00    +0.000 C 
ENDROOT
BRANCH   3  14
ATOM     12  O   UNL     1     -35.766  26.390   4.827  0.00  0.00    -0.288 OA
ATOM     13  O   UNL     1     -35.910  23.143   1.367  0.00  0.00    -0.288 OA
ATOM     14  C   UNL     1     -35.851  25.232   2.660  0.00  0.00    +0.234 C 
ATOM     15  C   UNL     1     -35.713  25.366   4.172  0.00  0.00    +0.207 C 
ATOM     16  C   UNL     1     -35.785  23.729   2.426  0.00  0.00    +0.207 C 
ATOM     17  C   UNL     1     -35.523  24.027   4.733  0.00  0.00    +0.040 C 
ATOM     18  C   UNL     1     -35.565  23.075   3.718  0.00  0.00    +0.040 C 
ATOM     19  C   UNL     1     -35.332  23.672   6.053  0.00  0.00    +0.003 C 
ATOM     20  C   UNL     1     -35.418  21.727   3.980  0.00  0.00    +0.003 C 
ATOM     21  C   UNL     1     -35.180  22.312   6.338  0.00  0.00    +0.000 C 
ATOM     22  C   UNL     1     -35.222  21.349   5.312  0.00  0.00    +0.000 C 
BRANCH  14  23
ATOM     23  O   UNL     1     -34.800  25.889   2.001  0.00  0.00    -0.371 OA
ATOM     24  H   UNL     1     -35.136  26.695   1.579  0.00  0.00    +0.211 HD
ENDBRANCH  14  23
ENDBRANCH   3  14
BRANCH   3  25
ATOM     25  O   UNL     1     -37.325  27.116   2.635  0.00  0.00    -0.371 OA
ATOM     26  H   UNL     1     -37.748  27.120   3.507  0.00  0.00    +0.211 HD
ENDBRANCH   3  25
TORSDOF 3
ENDMDL
MODEL 9
REMARK VINA RESULT:      -6.1      2.538      4.113
REMARK  Name = 21183
REMARK  3 active torsions:
REMARK  status: ('A' for Active; 'I' for Inactive)
REMARK    1  A    between atoms: C_3  and  C_14
REMARK    2  A    between atoms: C_3  and  O_25
REMARK    3  A    between atoms: C_14  and  O_23
REMARK                            x       y       z     vdW  Elec       q    Type
REMARK                         _______ _______ _______ _____ _____    ______ ____
ROOT
ATOM      1  O   UNL     1     -36.306  26.116   5.051  0.00  0.00    -0.288 OA
ATOM      2  O   UNL     1     -36.239  23.244   1.272  0.00  0.00    -0.288 OA
ATOM      3  C   UNL     1     -36.368  25.181   2.778  0.00  0.00    +0.234 C 
ATOM      4  C   UNL     1     -36.161  25.179   4.287  0.00  0.00    +0.207 C 
ATOM      5  C   UNL     1     -36.126  23.730   2.381  0.00  0.00    +0.207 C 
ATOM      6  C   UNL     1     -35.771  23.827   4.692  0.00  0.00    +0.040 C 
ATOM      7  C   UNL     1     -35.751  22.985   3.584  0.00  0.00    +0.040 C 
ATOM      8  C   UNL     1     -35.461  23.369   5.958  0.00  0.00    +0.003 C 
ATOM      9  C   UNL     1     -35.420  21.649   3.693  0.00  0.00    +0.003 C 
ATOM     10  C   UNL     1     -35.121  22.019   6.088  0.00  0.00    +0.000 C 
ATOM     11  C   UNL     1     -35.101  21.167   4.967  0.00  0.00    +0.000 C 
ENDROOT
BRANCH   3  14
ATOM     12  O   UNL     1     -37.245  26.888   0.404  0.00  0.00    -0.288 OA
ATOM     13  O   UNL     1     -38.952  23.732   3.513  0.00  0.00    -0.288 OA
ATOM     14  C   UNL     1     -37.785  25.605   2.430  0.00  0.00    +0.234 C 
ATOM     15  C   UNL     1     -37.881  26.016   0.966  0.00  0.00    +0.207 C 
ATOM     16  C   UNL     1     -38.743  24.425   2.534  0.00  0.00    +0.207 C 
ATOM     17  C   UNL     1     -38.872  25.158   0.315  0.00  0.00    +0.040 C 
ATOM     18  C   UNL     1     -39.373  24.233   1.227  0.00  0.00    +0.040 C 
ATOM     19  C   UNL     1     -39.300  25.186  -0.998  0.00  0.00    +0.003 C 
ATOM     20  C   UNL     1     -40.322  23.297   0.865  0.00  0.00    +0.003 C 
ATOM     21  C   UNL     1     -40.261  24.248  -1.382  0.00  0.00    +0.000 C 
ATOM     22  C   UNL     1     -40.768  23.312  -0.460  0.00  0.00    +0.000 C 
BRANCH  14  23
ATOM     23  O   UNL     1     -38.188  26.653   3.272  0.00  0.00    -0.371 OA
ATOM     24  H   UNL     1     -38.916  27.141   2.857  0.00  0.00    +0.211 HD
ENDBRANCH  14  23
ENDBRANCH   3  14
BRANCH   3  25
ATOM     25  O   UNL     1     -35.449  26.034   2.147  0.00  0.00    -0.371 OA
ATOM     26  H   UNL     1     -34.923  25.528   1.509  0.00  0.00    +0.211 HD
ENDBRANCH   3  25
TORSDOF 3
ENDMDL
