MODEL 1
REMARK VINA RESULT:      -8.0      0.000      0.000
REMARK  Name = 21126397
REMARK  5 active torsions:
REMARK  status: ('A' for Active; 'I' for Inactive)
REMARK    1  A    between atoms: C_4  and  O_31
REMARK    2  A    between atoms: C_12  and  O_33
REMARK    3  A    between atoms: C_14  and  O_35
REMARK    4  A    between atoms: C_15  and  O_37
REMARK    5  A    between atoms: C_23  and  O_39
REMARK                            x       y       z     vdW  Elec       q    Type
REMARK                         _______ _______ _______ _____ _____    ______ ____
ROOT
ATOM      1  O   UNL     1     -33.741  19.548  -3.260  0.00  0.00    -0.294 OA
ATOM      2  N   UNL     1     -35.489  23.570   4.066  0.00  0.00    +0.390 N 
ATOM      3  C   UNL     1     -35.905  20.250   2.153  0.00  0.00    +0.023 C 
ATOM      4  C   UNL     1     -36.501  19.778   0.805  0.00  0.00    +0.093 C 
ATOM      5  C   UNL     1     -34.210  19.111   0.751  0.00  0.00    +0.006 C 
ATOM      6  C   UNL     1     -35.270  19.816  -0.121  0.00  0.00    +0.059 C 
ATOM      7  C   UNL     1     -35.893  21.792   2.350  0.00  0.00    -0.014 C 
ATOM      8  C   UNL     1     -34.450  19.684   2.155  0.00  0.00    +0.002 C 
ATOM      9  C   UNL     1     -32.785  19.194   0.135  0.00  0.00    +0.007 C 
ATOM     10  C   UNL     1     -37.239  22.449   1.966  0.00  0.00    +0.048 C 
ATOM     11  C   UNL     1     -37.718  20.573   0.333  0.00  0.00    +0.056 C 
ATOM     12  C   UNL     1     -37.614  22.084   0.510  0.00  0.00    +0.115 C 
ATOM     13  C   UNL     1     -32.870  18.493  -1.255  0.00  0.00    +0.062 C 
ATOM     14  C   UNL     1     -35.356  19.189  -1.515  0.00  0.00    +0.170 C 
ATOM     15  C   UNL     1     -37.188  23.986   2.259  0.00  0.00    +0.074 C 
ATOM     16  C   UNL     1     -35.562  22.123   3.816  0.00  0.00    -0.077 C 
ATOM     17  C   UNL     1     -36.771  24.245   3.750  0.00  0.00    -0.033 C 
ATOM     18  C   UNL     1     -31.777  18.407   1.011  0.00  0.00    +0.003 C 
ATOM     19  C   UNL     1     -33.957  19.137  -2.122  0.00  0.00    +0.177 C 
ATOM     20  C   UNL     1     -32.298  20.660  -0.000  0.00  0.00    +0.000 C 
ATOM     21  C   UNL     1     -31.510  18.391  -1.946  0.00  0.00    +0.037 C 
ATOM     22  C   UNL     1     -30.410  18.226   0.343  0.00  0.00    +0.029 C 
ATOM     23  C   UNL     1     -30.514  17.637  -1.064  0.00  0.00    +0.111 C 
ATOM     24  C   UNL     1     -36.664  25.757   4.076  0.00  0.00    -0.019 C 
ATOM     25  C   UNL     1     -38.550  24.633   1.946  0.00  0.00    +0.027 C 
ATOM     26  C   UNL     1     -35.082  23.786   5.467  0.00  0.00    -0.077 C 
ATOM     27  C   UNL     1     -34.897  25.268   5.813  0.00  0.00    -0.021 C 
ATOM     28  C   UNL     1     -36.188  26.023   5.501  0.00  0.00    -0.004 C 
ATOM     29  C   UNL     1     -33.688  25.874   5.095  0.00  0.00    -0.002 C 
ATOM     30  H   UNL     1     -34.793  23.986   3.447  0.00  0.00    -0.080 HD
ENDROOT
BRANCH   4  31
ATOM     31  O   UNL     1     -36.929  18.415   0.954  0.00  0.00    -0.387 OA
ATOM     32  H   UNL     1     -37.273  18.090   0.107  0.00  0.00    +0.210 HD
ENDBRANCH   4  31
BRANCH  12  33
ATOM     33  O   UNL     1     -36.686  22.598  -0.437  0.00  0.00    -0.384 OA
ATOM     34  H   UNL     1     -36.645  22.006  -1.204  0.00  0.00    +0.210 HD
ENDBRANCH  12  33
BRANCH  14  35
ATOM     35  O   UNL     1     -35.846  17.863  -1.481  0.00  0.00    -0.377 OA
ATOM     36  H   UNL     1     -35.714  17.492  -0.594  0.00  0.00    +0.211 HD
ENDBRANCH  14  35
BRANCH  15  37
ATOM     37  O   UNL     1     -36.214  24.587   1.395  0.00  0.00    -0.389 OA
ATOM     38  H   UNL     1     -35.477  24.927   1.927  0.00  0.00    +0.210 HD
ENDBRANCH  15  37
BRANCH  23  39
ATOM     39  O   UNL     1     -29.236  17.671  -1.692  0.00  0.00    -0.384 OA
ATOM     40  H   UNL     1     -29.315  17.346  -2.603  0.00  0.00    +0.210 HD
ENDBRANCH  23  39
TORSDOF 5
ENDMDL
MODEL 2
REMARK VINA RESULT:      -7.1      4.145      6.377
REMARK  Name = 21126397
REMARK  5 active torsions:
REMARK  status: ('A' for Active; 'I' for Inactive)
REMARK    1  A    between atoms: C_4  and  O_31
REMARK    2  A    between atoms: C_12  and  O_33
REMARK    3  A    between atoms: C_14  and  O_35
REMARK    4  A    between atoms: C_15  and  O_37
REMARK    5  A    between atoms: C_23  and  O_39
REMARK                            x       y       z     vdW  Elec       q    Type
REMARK                         _______ _______ _______ _____ _____    ______ ____
ROOT
ATOM      1  O   UNL     1     -40.437  22.612   1.917  0.00  0.00    -0.294 OA
ATOM      2  N   UNL     1     -33.147  26.997   2.644  0.00  0.00    +0.390 N 
ATOM      3  C   UNL     1     -34.634  23.479   2.129  0.00  0.00    +0.023 C 
ATOM      4  C   UNL     1     -35.612  22.535   2.869  0.00  0.00    +0.093 C 
ATOM      5  C   UNL     1     -36.567  22.866   0.707  0.00  0.00    +0.006 C 
ATOM      6  C   UNL     1     -36.957  22.879   2.200  0.00  0.00    +0.059 C 
ATOM      7  C   UNL     1     -34.502  24.895   2.757  0.00  0.00    -0.014 C 
ATOM      8  C   UNL     1     -35.203  23.570   0.679  0.00  0.00    +0.002 C 
ATOM      9  C   UNL     1     -37.709  23.395  -0.208  0.00  0.00    +0.007 C 
ATOM     10  C   UNL     1     -34.329  24.849   4.292  0.00  0.00    +0.048 C 
ATOM     11  C   UNL     1     -35.575  22.646   4.393  0.00  0.00    +0.056 C 
ATOM     12  C   UNL     1     -35.498  24.068   4.938  0.00  0.00    +0.115 C 
ATOM     13  C   UNL     1     -38.926  22.448   0.024  0.00  0.00    +0.062 C 
ATOM     14  C   UNL     1     -38.179  21.996   2.468  0.00  0.00    +0.170 C 
ATOM     15  C   UNL     1     -34.126  26.297   4.852  0.00  0.00    +0.074 C 
ATOM     16  C   UNL     1     -33.305  25.629   2.128  0.00  0.00    -0.077 C 
ATOM     17  C   UNL     1     -32.938  27.007   4.112  0.00  0.00    -0.033 C 
ATOM     18  C   UNL     1     -37.293  23.289  -1.697  0.00  0.00    +0.003 C 
ATOM     19  C   UNL     1     -39.298  22.395   1.509  0.00  0.00    +0.177 C 
ATOM     20  C   UNL     1     -38.071  24.868   0.111  0.00  0.00    +0.000 C 
ATOM     21  C   UNL     1     -40.104  22.768  -0.896  0.00  0.00    +0.037 C 
ATOM     22  C   UNL     1     -38.450  23.548  -2.667  0.00  0.00    +0.029 C 
ATOM     23  C   UNL     1     -39.678  22.689  -2.363  0.00  0.00    +0.111 C 
ATOM     24  C   UNL     1     -32.726  28.463   4.603  0.00  0.00    -0.019 C 
ATOM     25  C   UNL     1     -33.880  26.250   6.372  0.00  0.00    +0.027 C 
ATOM     26  C   UNL     1     -32.036  27.647   1.923  0.00  0.00    -0.077 C 
ATOM     27  C   UNL     1     -31.838  29.111   2.329  0.00  0.00    -0.021 C 
ATOM     28  C   UNL     1     -31.623  29.190   3.840  0.00  0.00    -0.004 C 
ATOM     29  C   UNL     1     -33.000  29.995   1.866  0.00  0.00    -0.002 C 
ATOM     30  H   UNL     1     -34.006  27.522   2.479  0.00  0.00    -0.080 HD
ENDROOT
BRANCH   4  31
ATOM     31  O   UNL     1     -35.265  21.180   2.544  0.00  0.00    -0.387 OA
ATOM     32  H   UNL     1     -34.344  21.147   2.240  0.00  0.00    +0.210 HD
ENDBRANCH   4  31
BRANCH  12  33
ATOM     33  O   UNL     1     -36.753  24.707   4.742  0.00  0.00    -0.384 OA
ATOM     34  H   UNL     1     -36.614  25.659   4.616  0.00  0.00    +0.210 HD
ENDBRANCH  12  33
BRANCH  14  35
ATOM     35  O   UNL     1     -37.912  20.625   2.250  0.00  0.00    -0.377 OA
ATOM     36  H   UNL     1     -37.054  20.396   2.641  0.00  0.00    +0.211 HD
ENDBRANCH  14  35
BRANCH  15  37
ATOM     37  O   UNL     1     -35.325  27.049   4.630  0.00  0.00    -0.389 OA
ATOM     38  H   UNL     1     -35.700  27.320   5.483  0.00  0.00    +0.210 HD
ENDBRANCH  15  37
BRANCH  23  39
ATOM     39  O   UNL     1     -40.769  23.110  -3.175  0.00  0.00    -0.384 OA
ATOM     40  H   UNL     1     -40.536  23.937  -3.626  0.00  0.00    +0.210 HD
ENDBRANCH  23  39
TORSDOF 5
ENDMDL
MODEL 3
REMARK VINA RESULT:      -6.9      1.830      2.414
REMARK  Name = 21126397
REMARK  5 active torsions:
REMARK  status: ('A' for Active; 'I' for Inactive)
REMARK    1  A    between atoms: C_4  and  O_31
REMARK    2  A    between atoms: C_12  and  O_33
REMARK    3  A    between atoms: C_14  and  O_35
REMARK    4  A    between atoms: C_15  and  O_37
REMARK    5  A    between atoms: C_23  and  O_39
REMARK                            x       y       z     vdW  Elec       q    Type
REMARK                         _______ _______ _______ _____ _____    ______ ____
ROOT
ATOM      1  O   UNL     1     -35.760  19.080  -2.364  0.00  0.00    -0.294 OA
ATOM      2  N   UNL     1     -34.554  25.642   2.964  0.00  0.00    +0.390 N 
ATOM      3  C   UNL     1     -36.348  22.258   2.538  0.00  0.00    +0.023 C 
ATOM      4  C   UNL     1     -37.344  21.613   1.543  0.00  0.00    +0.093 C 
ATOM      5  C   UNL     1     -35.425  20.193   1.529  0.00  0.00    +0.006 C 
ATOM      6  C   UNL     1     -36.396  20.899   0.559  0.00  0.00    +0.059 C 
ATOM      7  C   UNL     1     -35.838  23.666   2.120  0.00  0.00    -0.014 C 
ATOM      8  C   UNL     1     -35.164  21.245   2.617  0.00  0.00    +0.002 C 
ATOM      9  C   UNL     1     -34.214  19.553   0.792  0.00  0.00    +0.007 C 
ATOM     10  C   UNL     1     -36.980  24.594   1.645  0.00  0.00    +0.048 C 
ATOM     11  C   UNL     1     -38.345  22.586   0.922  0.00  0.00    +0.056 C 
ATOM     12  C   UNL     1     -37.763  23.927   0.489  0.00  0.00    +0.115 C 
ATOM     13  C   UNL     1     -34.812  18.511  -0.202  0.00  0.00    +0.062 C 
ATOM     14  C   UNL     1     -36.974  19.921  -0.467  0.00  0.00    +0.170 C 
ATOM     15  C   UNL     1     -36.414  26.015   1.312  0.00  0.00    +0.074 C 
ATOM     16  C   UNL     1     -35.105  24.322   3.303  0.00  0.00    -0.077 C 
ATOM     17  C   UNL     1     -35.616  26.585   2.539  0.00  0.00    -0.033 C 
ATOM     18  C   UNL     1     -33.314  18.795   1.801  0.00  0.00    +0.003 C 
ATOM     19  C   UNL     1     -35.826  19.175  -1.140  0.00  0.00    +0.177 C 
ATOM     20  C   UNL     1     -33.360  20.614   0.052  0.00  0.00    +0.000 C 
ATOM     21  C   UNL     1     -33.734  17.707  -0.929  0.00  0.00    +0.037 C 
ATOM     22  C   UNL     1     -32.248  17.928   1.125  0.00  0.00    +0.029 C 
ATOM     23  C   UNL     1     -32.834  16.984   0.074  0.00  0.00    +0.111 C 
ATOM     24  C   UNL     1     -34.997  27.975   2.240  0.00  0.00    -0.019 C 
ATOM     25  C   UNL     1     -37.558  26.963   0.908  0.00  0.00    +0.027 C 
ATOM     26  C   UNL     1     -33.798  26.149   4.125  0.00  0.00    -0.077 C 
ATOM     27  C   UNL     1     -33.111  27.491   3.849  0.00  0.00    -0.021 C 
ATOM     28  C   UNL     1     -34.157  28.509   3.397  0.00  0.00    -0.004 C 
ATOM     29  C   UNL     1     -31.970  27.351   2.837  0.00  0.00    -0.002 C 
ATOM     30  H   UNL     1     -33.923  25.552   2.168  0.00  0.00    -0.080 HD
ENDROOT
BRANCH   4  31
ATOM     31  O   UNL     1     -38.110  20.625   2.250  0.00  0.00    -0.387 OA
ATOM     32  H   UNL     1     -39.055  20.767   2.081  0.00  0.00    +0.210 HD
ENDBRANCH   4  31
BRANCH  12  33
ATOM     33  O   UNL     1     -36.961  23.731  -0.669  0.00  0.00    -0.384 OA
ATOM     34  H   UNL     1     -36.059  23.497  -0.402  0.00  0.00    +0.210 HD
ENDBRANCH  12  33
BRANCH  14  35
ATOM     35  O   UNL     1     -37.813  18.950   0.126  0.00  0.00    -0.377 OA
ATOM     36  H   UNL     1     -38.264  18.444  -0.568  0.00  0.00    +0.211 HD
ENDBRANCH  14  35
BRANCH  15  37
ATOM     37  O   UNL     1     -35.525  25.906   0.193  0.00  0.00    -0.389 OA
ATOM     38  H   UNL     1     -35.215  24.990   0.114  0.00  0.00    +0.210 HD
ENDBRANCH  15  37
BRANCH  23  39
ATOM     39  O   UNL     1     -31.778  16.349  -0.640  0.00  0.00    -0.384 OA
ATOM     40  H   UNL     1     -32.067  16.162  -1.547  0.00  0.00    +0.210 HD
ENDBRANCH  23  39
TORSDOF 5
ENDMDL
MODEL 4
REMARK VINA RESULT:      -6.8      5.743      9.160
REMARK  Name = 21126397
REMARK  5 active torsions:
REMARK  status: ('A' for Active; 'I' for Inactive)
REMARK    1  A    between atoms: C_4  and  O_31
REMARK    2  A    between atoms: C_12  and  O_33
REMARK    3  A    between atoms: C_14  and  O_35
REMARK    4  A    between atoms: C_15  and  O_37
REMARK    5  A    between atoms: C_23  and  O_39
REMARK                            x       y       z     vdW  Elec       q    Type
REMARK                         _______ _______ _______ _____ _____    ______ ____
ROOT
ATOM      1  O   UNL     1     -33.717  26.628   6.355  0.00  0.00    -0.294 OA
ATOM      2  N   UNL     1     -37.919  30.259  -0.131  0.00  0.00    +0.390 N 
ATOM      3  C   UNL     1     -34.759  28.264   0.813  0.00  0.00    +0.023 C 
ATOM      4  C   UNL     1     -33.558  28.420   1.777  0.00  0.00    +0.093 C 
ATOM      5  C   UNL     1     -34.607  26.368   2.400  0.00  0.00    +0.006 C 
ATOM      6  C   UNL     1     -34.050  27.664   3.027  0.00  0.00    +0.059 C 
ATOM      7  C   UNL     1     -35.851  29.361   0.959  0.00  0.00    -0.014 C 
ATOM      8  C   UNL     1     -35.345  26.856   1.145  0.00  0.00    +0.002 C 
ATOM      9  C   UNL     1     -35.371  25.492   3.432  0.00  0.00    +0.007 C 
ATOM     10  C   UNL     1     -35.255  30.785   1.034  0.00  0.00    +0.048 C 
ATOM     11  C   UNL     1     -33.104  29.862   2.003  0.00  0.00    +0.056 C 
ATOM     12  C   UNL     1     -34.229  30.874   2.189  0.00  0.00    +0.115 C 
ATOM     13  C   UNL     1     -34.340  25.134   4.546  0.00  0.00    +0.062 C 
ATOM     14  C   UNL     1     -33.065  27.360   4.159  0.00  0.00    +0.170 C 
ATOM     15  C   UNL     1     -36.405  31.845   1.102  0.00  0.00    +0.074 C 
ATOM     16  C   UNL     1     -36.829  29.277  -0.227  0.00  0.00    -0.077 C 
ATOM     17  C   UNL     1     -37.401  31.648  -0.095  0.00  0.00    -0.033 C 
ATOM     18  C   UNL     1     -35.842  24.172   2.770  0.00  0.00    +0.003 C 
ATOM     19  C   UNL     1     -33.727  26.403   5.146  0.00  0.00    +0.177 C 
ATOM     20  C   UNL     1     -36.603  26.229   4.018  0.00  0.00    +0.000 C 
ATOM     21  C   UNL     1     -34.911  24.172   5.589  0.00  0.00    +0.037 C 
ATOM     22  C   UNL     1     -36.375  23.148   3.776  0.00  0.00    +0.029 C 
ATOM     23  C   UNL     1     -35.399  22.885   4.923  0.00  0.00    +0.111 C 
ATOM     24  C   UNL     1     -38.584  32.649  -0.045  0.00  0.00    -0.019 C 
ATOM     25  C   UNL     1     -35.818  33.269   1.104  0.00  0.00    +0.027 C 
ATOM     26  C   UNL     1     -38.847  30.044  -1.257  0.00  0.00    -0.077 C 
ATOM     27  C   UNL     1     -40.069  30.968  -1.207  0.00  0.00    -0.021 C 
ATOM     28  C   UNL     1     -39.600  32.421  -1.161  0.00  0.00    -0.004 C 
ATOM     29  C   UNL     1     -40.996  30.626  -0.037  0.00  0.00    -0.002 C 
ATOM     30  H   UNL     1     -38.421  30.124   0.747  0.00  0.00    -0.080 HD
ENDROOT
BRANCH   4  31
ATOM     31  O   UNL     1     -32.438  27.716   1.219  0.00  0.00    -0.387 OA
ATOM     32  H   UNL     1     -32.194  26.980   1.803  0.00  0.00    +0.210 HD
ENDBRANCH   4  31
BRANCH  12  33
ATOM     33  O   UNL     1     -34.827  30.673   3.464  0.00  0.00    -0.384 OA
ATOM     34  H   UNL     1     -35.778  30.855   3.407  0.00  0.00    +0.210 HD
ENDBRANCH  12  33
BRANCH  14  35
ATOM     35  O   UNL     1     -31.886  26.733   3.696  0.00  0.00    -0.377 OA
ATOM     36  H   UNL     1     -31.856  26.776   2.727  0.00  0.00    +0.211 HD
ENDBRANCH  14  35
BRANCH  15  37
ATOM     37  O   UNL     1     -37.120  31.669   2.332  0.00  0.00    -0.389 OA
ATOM     38  H   UNL     1     -36.854  30.832   2.744  0.00  0.00    +0.210 HD
ENDBRANCH  15  37
BRANCH  23  39
ATOM     39  O   UNL     1     -36.029  22.074   5.910  0.00  0.00    -0.384 OA
ATOM     40  H   UNL     1     -36.563  21.391   5.475  0.00  0.00    +0.210 HD
ENDBRANCH  23  39
TORSDOF 5
ENDMDL
MODEL 5
REMARK VINA RESULT:      -6.4      2.822      7.652
REMARK  Name = 21126397
REMARK  5 active torsions:
REMARK  status: ('A' for Active; 'I' for Inactive)
REMARK    1  A    between atoms: C_4  and  O_31
REMARK    2  A    between atoms: C_12  and  O_33
REMARK    3  A    between atoms: C_14  and  O_35
REMARK    4  A    between atoms: C_15  and  O_37
REMARK    5  A    between atoms: C_23  and  O_39
REMARK                            x       y       z     vdW  Elec       q    Type
REMARK                         _______ _______ _______ _____ _____    ______ ____
ROOT
ATOM      1  O   UNL     1     -38.405  24.613   4.037  0.00  0.00    -0.294 OA
ATOM      2  N   UNL     1     -34.859  18.678  -0.975  0.00  0.00    +0.390 N 
ATOM      3  C   UNL     1     -36.457  22.185  -0.942  0.00  0.00    +0.023 C 
ATOM      4  C   UNL     1     -37.798  22.823  -0.504  0.00  0.00    +0.093 C 
ATOM      5  C   UNL     1     -36.116  23.968   0.743  0.00  0.00    +0.006 C 
ATOM      6  C   UNL     1     -37.482  23.277   0.934  0.00  0.00    +0.059 C 
ATOM      7  C   UNL     1     -36.307  20.681  -0.577  0.00  0.00    -0.014 C 
ATOM      8  C   UNL     1     -35.366  23.038  -0.222  0.00  0.00    +0.002 C 
ATOM      9  C   UNL     1     -35.449  24.347   2.096  0.00  0.00    +0.007 C 
ATOM     10  C   UNL     1     -37.567  19.857  -0.927  0.00  0.00    +0.048 C 
ATOM     11  C   UNL     1     -39.018  21.918  -0.668  0.00  0.00    +0.056 C 
ATOM     12  C   UNL     1     -38.812  20.469  -0.242  0.00  0.00    +0.115 C 
ATOM     13  C   UNL     1     -36.435  25.323   2.808  0.00  0.00    +0.062 C 
ATOM     14  C   UNL     1     -38.471  24.184   1.672  0.00  0.00    +0.170 C 
ATOM     15  C   UNL     1     -37.325  18.344  -0.608  0.00  0.00    +0.074 C 
ATOM     16  C   UNL     1     -35.090  20.091  -1.310  0.00  0.00    -0.077 C 
ATOM     17  C   UNL     1     -36.026  17.835  -1.329  0.00  0.00    -0.033 C 
ATOM     18  C   UNL     1     -34.120  25.103   1.845  0.00  0.00    +0.003 C 
ATOM     19  C   UNL     1     -37.819  24.684   2.958  0.00  0.00    +0.177 C 
ATOM     20  C   UNL     1     -35.162  23.099   2.970  0.00  0.00    +0.000 C 
ATOM     21  C   UNL     1     -35.869  25.882   4.113  0.00  0.00    +0.037 C 
ATOM     22  C   UNL     1     -33.534  25.732   3.112  0.00  0.00    +0.029 C 
ATOM     23  C   UNL     1     -34.544  26.603   3.861  0.00  0.00    +0.111 C 
ATOM     24  C   UNL     1     -35.720  16.350  -1.005  0.00  0.00    -0.019 C 
ATOM     25  C   UNL     1     -38.551  17.509  -1.023  0.00  0.00    +0.027 C 
ATOM     26  C   UNL     1     -33.628  18.228  -1.651  0.00  0.00    -0.077 C 
ATOM     27  C   UNL     1     -33.250  16.785  -1.303  0.00  0.00    -0.021 C 
ATOM     28  C   UNL     1     -34.420  15.863  -1.639  0.00  0.00    -0.004 C 
ATOM     29  C   UNL     1     -32.810  16.646   0.158  0.00  0.00    -0.002 C 
ATOM     30  H   UNL     1     -34.740  18.584   0.034  0.00  0.00    -0.080 HD
ENDROOT
BRANCH   4  31
ATOM     31  O   UNL     1     -38.031  23.984  -1.317  0.00  0.00    -0.387 OA
ATOM     32  H   UNL     1     -38.223  23.708  -2.228  0.00  0.00    +0.210 HD
ENDBRANCH   4  31
BRANCH  12  33
ATOM     33  O   UNL     1     -38.735  20.410   1.177  0.00  0.00    -0.384 OA
ATOM     34  H   UNL     1     -38.040  19.785   1.437  0.00  0.00    +0.210 HD
ENDBRANCH  12  33
BRANCH  14  35
ATOM     35  O   UNL     1     -38.826  25.324   0.914  0.00  0.00    -0.377 OA
ATOM     36  H   UNL     1     -38.052  25.899   0.813  0.00  0.00    +0.211 HD
ENDBRANCH  14  35
BRANCH  15  37
ATOM     37  O   UNL     1     -37.158  18.194   0.808  0.00  0.00    -0.389 OA
ATOM     38  H   UNL     1     -37.268  17.261   1.049  0.00  0.00    +0.210 HD
ENDBRANCH  15  37
BRANCH  23  39
ATOM     39  O   UNL     1     -33.997  26.999   5.114  0.00  0.00    -0.384 OA
ATOM     40  H   UNL     1     -34.293  26.386   5.805  0.00  0.00    +0.210 HD
ENDBRANCH  23  39
TORSDOF 5
ENDMDL
MODEL 6
REMARK VINA RESULT:      -6.4      2.717      8.431
REMARK  Name = 21126397
REMARK  5 active torsions:
REMARK  status: ('A' for Active; 'I' for Inactive)
REMARK    1  A    between atoms: C_4  and  O_31
REMARK    2  A    between atoms: C_12  and  O_33
REMARK    3  A    between atoms: C_14  and  O_35
REMARK    4  A    between atoms: C_15  and  O_37
REMARK    5  A    between atoms: C_23  and  O_39
REMARK                            x       y       z     vdW  Elec       q    Type
REMARK                         _______ _______ _______ _____ _____    ______ ____
ROOT
ATOM      1  O   UNL     1     -35.992  25.118   3.473  0.00  0.00    -0.294 OA
ATOM      2  N   UNL     1     -36.255  19.878  -3.263  0.00  0.00    +0.390 N 
ATOM      3  C   UNL     1     -36.900  20.120   0.529  0.00  0.00    +0.023 C 
ATOM      4  C   UNL     1     -36.100  20.494   1.800  0.00  0.00    +0.093 C 
ATOM      5  C   UNL     1     -37.949  22.003   1.749  0.00  0.00    +0.006 C 
ATOM      6  C   UNL     1     -36.419  21.995   1.949  0.00  0.00    +0.059 C 
ATOM      7  C   UNL     1     -36.134  20.342  -0.806  0.00  0.00    -0.014 C 
ATOM      8  C   UNL     1     -38.173  21.022   0.590  0.00  0.00    +0.002 C 
ATOM      9  C   UNL     1     -38.524  23.444   1.641  0.00  0.00    +0.007 C 
ATOM     10  C   UNL     1     -34.690  19.793  -0.759  0.00  0.00    +0.048 C 
ATOM     11  C   UNL     1     -34.618  20.126   1.752  0.00  0.00    +0.056 C 
ATOM     12  C   UNL     1     -33.920  20.419   0.428  0.00  0.00    +0.115 C 
ATOM     13  C   UNL     1     -38.166  24.157   2.981  0.00  0.00    +0.062 C 
ATOM     14  C   UNL     1     -36.016  22.726   3.232  0.00  0.00    +0.170 C 
ATOM     15  C   UNL     1     -34.001  19.978  -2.152  0.00  0.00    +0.074 C 
ATOM     16  C   UNL     1     -36.900  19.669  -1.959  0.00  0.00    -0.077 C 
ATOM     17  C   UNL     1     -34.876  19.332  -3.285  0.00  0.00    -0.033 C 
ATOM     18  C   UNL     1     -40.068  23.396   1.518  0.00  0.00    +0.003 C 
ATOM     19  C   UNL     1     -36.656  24.111   3.234  0.00  0.00    +0.177 C 
ATOM     20  C   UNL     1     -37.945  24.208   0.422  0.00  0.00    +0.000 C 
ATOM     21  C   UNL     1     -38.766  25.560   3.079  0.00  0.00    +0.037 C 
ATOM     22  C   UNL     1     -40.729  24.770   1.663  0.00  0.00    +0.029 C 
ATOM     23  C   UNL     1     -40.287  25.506   2.929  0.00  0.00    +0.111 C 
ATOM     24  C   UNL     1     -34.254  19.529  -4.691  0.00  0.00    -0.019 C 
ATOM     25  C   UNL     1     -32.587  19.367  -2.132  0.00  0.00    +0.027 C 
ATOM     26  C   UNL     1     -37.103  19.276  -4.310  0.00  0.00    -0.077 C 
ATOM     27  C   UNL     1     -36.559  19.509  -5.724  0.00  0.00    -0.021 C 
ATOM     28  C   UNL     1     -35.132  18.972  -5.809  0.00  0.00    -0.004 C 
ATOM     29  C   UNL     1     -36.646  20.982  -6.134  0.00  0.00    -0.002 C 
ATOM     30  H   UNL     1     -36.164  20.878  -3.440  0.00  0.00    -0.080 HD
ENDROOT
BRANCH   4  31
ATOM     31  O   UNL     1     -36.666  19.786   2.913  0.00  0.00    -0.387 OA
ATOM     32  H   UNL     1     -37.634  19.856   2.884  0.00  0.00    +0.210 HD
ENDBRANCH   4  31
BRANCH  12  33
ATOM     33  O   UNL     1     -33.760  21.826   0.291  0.00  0.00    -0.384 OA
ATOM     34  H   UNL     1     -32.926  22.013  -0.168  0.00  0.00    +0.210 HD
ENDBRANCH  12  33
BRANCH  14  35
ATOM     35  O   UNL     1     -36.464  22.059   4.396  0.00  0.00    -0.377 OA
ATOM     36  H   UNL     1     -35.740  22.011   5.040  0.00  0.00    +0.211 HD
ENDBRANCH  14  35
BRANCH  15  37
ATOM     37  O   UNL     1     -33.864  21.380  -2.416  0.00  0.00    -0.389 OA
ATOM     38  H   UNL     1     -34.597  21.860  -2.000  0.00  0.00    +0.210 HD
ENDBRANCH  15  37
BRANCH  23  39
ATOM     39  O   UNL     1     -40.788  26.839   2.905  0.00  0.00    -0.384 OA
ATOM     40  H   UNL     1     -40.274  27.388   3.518  0.00  0.00    +0.210 HD
ENDBRANCH  23  39
TORSDOF 5
ENDMDL
MODEL 7
REMARK VINA RESULT:      -6.3      2.700      8.664
REMARK  Name = 21126397
REMARK  5 active torsions:
REMARK  status: ('A' for Active; 'I' for Inactive)
REMARK    1  A    between atoms: C_4  and  O_31
REMARK    2  A    between atoms: C_12  and  O_33
REMARK    3  A    between atoms: C_14  and  O_35
REMARK    4  A    between atoms: C_15  and  O_37
REMARK    5  A    between atoms: C_23  and  O_39
REMARK                            x       y       z     vdW  Elec       q    Type
REMARK                         _______ _______ _______ _____ _____    ______ ____
ROOT
ATOM      1  O   UNL     1     -37.839  27.737   0.902  0.00  0.00    -0.294 OA
ATOM      2  N   UNL     1     -36.545  19.361  -0.134  0.00  0.00    +0.390 N 
ATOM      3  C   UNL     1     -37.320  22.101   2.463  0.00  0.00    +0.023 C 
ATOM      4  C   UNL     1     -36.678  23.420   2.954  0.00  0.00    +0.093 C 
ATOM      5  C   UNL     1     -38.859  24.023   2.194  0.00  0.00    +0.006 C 
ATOM      6  C   UNL     1     -37.386  24.469   2.074  0.00  0.00    +0.059 C 
ATOM      7  C   UNL     1     -36.609  21.451   1.243  0.00  0.00    -0.014 C 
ATOM      8  C   UNL     1     -38.787  22.492   2.102  0.00  0.00    +0.002 C 
ATOM      9  C   UNL     1     -39.793  24.796   1.220  0.00  0.00    +0.007 C 
ATOM     10  C   UNL     1     -35.073  21.408   1.405  0.00  0.00    +0.048 C 
ATOM     11  C   UNL     1     -35.150  23.438   2.919  0.00  0.00    +0.056 C 
ATOM     12  C   UNL     1     -34.524  22.831   1.668  0.00  0.00    +0.115 C 
ATOM     13  C   UNL     1     -39.668  26.302   1.601  0.00  0.00    +0.062 C 
ATOM     14  C   UNL     1     -37.223  25.956   2.396  0.00  0.00    +0.170 C 
ATOM     15  C   UNL     1     -34.424  20.676   0.183  0.00  0.00    +0.074 C 
ATOM     16  C   UNL     1     -37.142  20.022   1.035  0.00  0.00    -0.077 C 
ATOM     17  C   UNL     1     -35.071  19.258  -0.011  0.00  0.00    -0.033 C 
ATOM     18  C   UNL     1     -41.266  24.364   1.435  0.00  0.00    +0.003 C 
ATOM     19  C   UNL     1     -38.206  26.757   1.547  0.00  0.00    +0.177 C 
ATOM     20  C   UNL     1     -39.408  24.555  -0.263  0.00  0.00    +0.000 C 
ATOM     21  C   UNL     1     -40.620  27.192   0.801  0.00  0.00    +0.037 C 
ATOM     22  C   UNL     1     -42.270  25.256   0.699  0.00  0.00    +0.029 C 
ATOM     23  C   UNL     1     -42.069  26.742   0.997  0.00  0.00    +0.111 C 
ATOM     24  C   UNL     1     -34.490  18.512  -1.239  0.00  0.00    -0.019 C 
ATOM     25  C   UNL     1     -32.900  20.567   0.375  0.00  0.00    +0.027 C 
ATOM     26  C   UNL     1     -37.178  18.040  -0.303  0.00  0.00    -0.077 C 
ATOM     27  C   UNL     1     -36.683  17.295  -1.548  0.00  0.00    -0.021 C 
ATOM     28  C   UNL     1     -35.162  17.163  -1.483  0.00  0.00    -0.004 C 
ATOM     29  C   UNL     1     -37.147  17.973  -2.840  0.00  0.00    -0.002 C 
ATOM     30  H   UNL     1     -36.718  19.924  -0.967  0.00  0.00    -0.080 HD
ENDROOT
BRANCH   4  31
ATOM     31  O   UNL     1     -37.063  23.627   4.323  0.00  0.00    -0.387 OA
ATOM     32  H   UNL     1     -36.337  23.355   4.907  0.00  0.00    +0.210 HD
ENDBRANCH   4  31
BRANCH  12  33
ATOM     33  O   UNL     1     -34.739  23.708   0.570  0.00  0.00    -0.384 OA
ATOM     34  H   UNL     1     -34.777  24.623   0.890  0.00  0.00    +0.210 HD
ENDBRANCH  12  33
BRANCH  14  35
ATOM     35  O   UNL     1     -37.504  26.250   3.750  0.00  0.00    -0.377 OA
ATOM     36  H   UNL     1     -37.192  25.522   4.311  0.00  0.00    +0.211 HD
ENDBRANCH  14  35
BRANCH  15  37
ATOM     37  O   UNL     1     -34.658  21.456  -0.997  0.00  0.00    -0.389 OA
ATOM     38  H   UNL     1     -34.263  21.010  -1.763  0.00  0.00    +0.210 HD
ENDBRANCH  15  37
BRANCH  23  39
ATOM     39  O   UNL     1     -42.904  27.518   0.144  0.00  0.00    -0.384 OA
ATOM     40  H   UNL     1     -43.242  26.959  -0.573  0.00  0.00    +0.210 HD
ENDBRANCH  23  39
TORSDOF 5
ENDMDL
MODEL 8
REMARK VINA RESULT:      -6.2      3.456      6.019
REMARK  Name = 21126397
REMARK  5 active torsions:
REMARK  status: ('A' for Active; 'I' for Inactive)
REMARK    1  A    between atoms: C_4  and  O_31
REMARK    2  A    between atoms: C_12  and  O_33
REMARK    3  A    between atoms: C_14  and  O_35
REMARK    4  A    between atoms: C_15  and  O_37
REMARK    5  A    between atoms: C_23  and  O_39
REMARK                            x       y       z     vdW  Elec       q    Type
REMARK                         _______ _______ _______ _____ _____    ______ ____
ROOT
ATOM      1  O   UNL     1     -40.964  21.000   0.481  0.00  0.00    -0.294 OA
ATOM      2  N   UNL     1     -34.269  25.958   2.353  0.00  0.00    +0.390 N 
ATOM      3  C   UNL     1     -35.328  22.629   0.725  0.00  0.00    +0.023 C 
ATOM      4  C   UNL     1     -36.102  21.353   1.137  0.00  0.00    +0.093 C 
ATOM      5  C   UNL     1     -37.290  22.237  -0.735  0.00  0.00    +0.006 C 
ATOM      6  C   UNL     1     -37.537  21.690   0.687  0.00  0.00    +0.059 C 
ATOM      7  C   UNL     1     -35.323  23.756   1.795  0.00  0.00    -0.014 C 
ATOM      8  C   UNL     1     -36.038  23.110  -0.579  0.00  0.00    +0.002 C 
ATOM      9  C   UNL     1     -38.571  22.857  -1.361  0.00  0.00    +0.007 C 
ATOM     10  C   UNL     1     -35.003  23.228   3.212  0.00  0.00    +0.048 C 
ATOM     11  C   UNL     1     -35.937  20.953   2.603  0.00  0.00    +0.056 C 
ATOM     12  C   UNL     1     -35.995  22.106   3.600  0.00  0.00    +0.115 C 
ATOM     13  C   UNL     1     -39.628  21.712  -1.416  0.00  0.00    +0.062 C 
ATOM     14  C   UNL     1     -38.604  20.591   0.688  0.00  0.00    +0.170 C 
ATOM     15  C   UNL     1     -34.937  24.418   4.226  0.00  0.00    +0.074 C 
ATOM     16  C   UNL     1     -34.295  24.833   1.406  0.00  0.00    -0.077 C 
ATOM     17  C   UNL     1     -33.926  25.509   3.724  0.00  0.00    -0.033 C 
ATOM     18  C   UNL     1     -38.287  23.321  -2.813  0.00  0.00    +0.003 C 
ATOM     19  C   UNL     1     -39.849  21.110  -0.025  0.00  0.00    +0.177 C 
ATOM     20  C   UNL     1     -39.090  24.066  -0.539  0.00  0.00    +0.000 C 
ATOM     21  C   UNL     1     -40.918  22.136  -2.118  0.00  0.00    +0.037 C 
ATOM     22  C   UNL     1     -39.553  23.707  -3.583  0.00  0.00    +0.029 C 
ATOM     23  C   UNL     1     -40.625  22.618  -3.539  0.00  0.00    +0.111 C 
ATOM     24  C   UNL     1     -33.860  26.731   4.676  0.00  0.00    -0.019 C 
ATOM     25  C   UNL     1     -34.547  23.905   5.625  0.00  0.00    +0.027 C 
ATOM     26  C   UNL     1     -33.324  26.974   1.852  0.00  0.00    -0.077 C 
ATOM     27  C   UNL     1     -33.280  28.230   2.728  0.00  0.00    -0.021 C 
ATOM     28  C   UNL     1     -32.937  27.832   4.162  0.00  0.00    -0.004 C 
ATOM     29  C   UNL     1     -34.585  29.027   2.648  0.00  0.00    -0.002 C 
ATOM     30  H   UNL     1     -35.200  26.369   2.416  0.00  0.00    -0.080 HD
ENDROOT
BRANCH   4  31
ATOM     31  O   UNL     1     -35.613  20.256   0.351  0.00  0.00    -0.387 OA
ATOM     32  H   UNL     1     -36.161  20.158  -0.444  0.00  0.00    +0.210 HD
ENDBRANCH   4  31
BRANCH  12  33
ATOM     33  O   UNL     1     -37.335  22.572   3.691  0.00  0.00    -0.384 OA
ATOM     34  H   UNL     1     -37.375  23.321   4.307  0.00  0.00    +0.210 HD
ENDBRANCH  12  33
BRANCH  14  35
ATOM     35  O   UNL     1     -38.183  19.430  -0.000  0.00  0.00    -0.377 OA
ATOM     36  H   UNL     1     -38.043  18.710   0.635  0.00  0.00    +0.211 HD
ENDBRANCH  14  35
BRANCH  15  37
ATOM     37  O   UNL     1     -36.240  25.007   4.329  0.00  0.00    -0.389 OA
ATOM     38  H   UNL     1     -36.563  24.920   5.240  0.00  0.00    +0.210 HD
ENDBRANCH  15  37
BRANCH  23  39
ATOM     39  O   UNL     1     -41.833  23.113  -4.108  0.00  0.00    -0.384 OA
ATOM     40  H   UNL     1     -41.628  23.827  -4.732  0.00  0.00    +0.210 HD
ENDBRANCH  23  39
TORSDOF 5
ENDMDL
MODEL 9
REMARK VINA RESULT:      -6.1      4.757      7.310
REMARK  Name = 21126397
REMARK  5 active torsions:
REMARK  status: ('A' for Active; 'I' for Inactive)
REMARK    1  A    between atoms: C_4  and  O_31
REMARK    2  A    between atoms: C_12  and  O_33
REMARK    3  A    between atoms: C_14  and  O_35
REMARK    4  A    between atoms: C_15  and  O_37
REMARK    5  A    between atoms: C_23  and  O_39
REMARK                            x       y       z     vdW  Elec       q    Type
REMARK                         _______ _______ _______ _____ _____    ______ ____
ROOT
ATOM      1  O   UNL     1     -41.652  25.026   1.789  0.00  0.00    -0.294 OA
ATOM      2  N   UNL     1     -33.235  26.422   2.131  0.00  0.00    +0.390 N 
ATOM      3  C   UNL     1     -35.937  23.684   1.891  0.00  0.00    +0.023 C 
ATOM      4  C   UNL     1     -37.169  23.223   2.707  0.00  0.00    +0.093 C 
ATOM      5  C   UNL     1     -38.008  23.742   0.534  0.00  0.00    +0.006 C 
ATOM      6  C   UNL     1     -38.313  23.998   2.025  0.00  0.00    +0.059 C 
ATOM      7  C   UNL     1     -35.268  24.988   2.411  0.00  0.00    -0.014 C 
ATOM      8  C   UNL     1     -36.482  23.884   0.443  0.00  0.00    +0.002 C 
ATOM      9  C   UNL     1     -38.904  24.595  -0.409  0.00  0.00    +0.007 C 
ATOM     10  C   UNL     1     -35.071  24.983   3.944  0.00  0.00    +0.048 C 
ATOM     11  C   UNL     1     -37.040  23.413   4.218  0.00  0.00    +0.056 C 
ATOM     12  C   UNL     1     -36.423  24.736   4.655  0.00  0.00    +0.115 C 
ATOM     13  C   UNL     1     -40.376  24.186  -0.097  0.00  0.00    +0.062 C 
ATOM     14  C   UNL     1     -39.765  23.653   2.367  0.00  0.00    +0.170 C 
ATOM     15  C   UNL     1     -34.326  26.284   4.393  0.00  0.00    +0.074 C 
ATOM     16  C   UNL     1     -33.907  25.180   1.720  0.00  0.00    -0.077 C 
ATOM     17  C   UNL     1     -32.986  26.451   3.593  0.00  0.00    -0.033 C 
ATOM     18  C   UNL     1     -38.609  24.244  -1.889  0.00  0.00    +0.003 C 
ATOM     19  C   UNL     1     -40.689  24.375   1.390  0.00  0.00    +0.177 C 
ATOM     20  C   UNL     1     -38.683  26.116  -0.197  0.00  0.00    +0.000 C 
ATOM     21  C   UNL     1     -41.383  24.861  -1.029  0.00  0.00    +0.037 C 
ATOM     22  C   UNL     1     -39.621  24.850  -2.866  0.00  0.00    +0.029 C 
ATOM     23  C   UNL     1     -41.068  24.532  -2.490  0.00  0.00    +0.111 C 
ATOM     24  C   UNL     1     -32.233  27.752   3.973  0.00  0.00    -0.019 C 
ATOM     25  C   UNL     1     -34.063  26.250   5.910  0.00  0.00    +0.027 C 
ATOM     26  C   UNL     1     -31.989  26.563   1.355  0.00  0.00    -0.077 C 
ATOM     27  C   UNL     1     -31.248  27.871   1.650  0.00  0.00    -0.021 C 
ATOM     28  C   UNL     1     -30.967  27.964   3.149  0.00  0.00    -0.004 C 
ATOM     29  C   UNL     1     -32.015  29.091   1.132  0.00  0.00    -0.002 C 
ATOM     30  H   UNL     1     -33.844  27.217   1.934  0.00  0.00    -0.080 HD
ENDROOT
BRANCH   4  31
ATOM     31  O   UNL     1     -37.360  21.818   2.481  0.00  0.00    -0.387 OA
ATOM     32  H   UNL     1     -37.891  21.443   3.202  0.00  0.00    +0.210 HD
ENDBRANCH   4  31
BRANCH  12  33
ATOM     33  O   UNL     1     -37.358  25.783   4.423  0.00  0.00    -0.384 OA
ATOM     34  H   UNL     1     -36.932  26.639   4.587  0.00  0.00    +0.210 HD
ENDBRANCH  12  33
BRANCH  14  35
ATOM     35  O   UNL     1     -40.033  22.269   2.250  0.00  0.00    -0.377 OA
ATOM     36  H   UNL     1     -39.357  21.766   2.731  0.00  0.00    +0.211 HD
ENDBRANCH  14  35
BRANCH  15  37
ATOM     37  O   UNL     1     -35.169  27.412   4.125  0.00  0.00    -0.389 OA
ATOM     38  H   UNL     1     -34.664  28.230   4.252  0.00  0.00    +0.210 HD
ENDBRANCH  15  37
BRANCH  23  39
ATOM     39  O   UNL     1     -41.953  25.274  -3.322  0.00  0.00    -0.384 OA
ATOM     40  H   UNL     1     -41.604  26.171  -3.447  0.00  0.00    +0.210 HD
ENDBRANCH  23  39
TORSDOF 5
ENDMDL
