MODEL 1
REMARK VINA RESULT:      -6.6      0.000      0.000
REMARK  Name = 56842860
REMARK  9 active torsions:
REMARK  status: ('A' for Active; 'I' for Inactive)
REMARK    1  A    between atoms: CA_5  and  N_11
REMARK    2  A    between atoms: CA_7  and  C_25
REMARK    3  A    between atoms: C_8  and  C_28
REMARK    4  A    between atoms: C_12  and  C_15
REMARK    5  A    between atoms: N_14  and  O_22
REMARK    6  A    between atoms: C_15  and  C_16
REMARK    7  A    between atoms: C_25  and  O_26
REMARK    8  A    between atoms: C_28  and  O_29
REMARK    9  A    between atoms: O_29  and  C_31
REMARK                            x       y       z     vdW  Elec       q    Type
REMARK                         _______ _______ _______ _____ _____    ______ ____
ROOT
ATOM      1  S   UNL     1     -34.581  24.552   2.109  0.00  0.00    -0.114 S 
ATOM      2  O   UNL     1     -39.006  23.419   2.974  0.00  0.00    -0.273 OA
ATOM      3  N   UNL     1     -37.108  24.815   2.878  0.00  0.00    -0.242 N 
ATOM      4  C   UNL     1     -35.845  24.305   3.378  0.00  0.00    +0.155 C 
ATOM      5  CA  UNL     1     -36.526  22.919   3.408  0.00  0.00    +0.179 C 
ATOM      6  C   UNL     1     -37.835  23.695   3.086  0.00  0.00    +0.251 C 
ATOM      7  CA  UNL     1     -37.276  26.073   2.396  0.00  0.00    +0.127 C 
ATOM      8  C   UNL     1     -36.219  26.852   2.070  0.00  0.00    +0.030 C 
ATOM      9  C   UNL     1     -34.771  26.367   2.116  0.00  0.00    +0.086 C 
ENDROOT
BRANCH   5  11
ATOM     10  O   UNL     1     -35.057  20.390   3.763  0.00  0.00    -0.268 OA
ATOM     11  N   UNL     1     -36.163  21.937   2.387  0.00  0.00    -0.291 N 
ATOM     12  C   UNL     1     -35.466  20.778   2.680  0.00  0.00    +0.267 C 
ATOM     13  H   UNL     1     -36.424  22.108   1.453  0.00  0.00    +0.150 HD
BRANCH  12  15
ATOM     14  N   UNL     1     -36.194  19.437   0.782  0.00  0.00    -0.082 NA
ATOM     15  C   UNL     1     -35.204  19.924   1.467  0.00  0.00    +0.172 C 
BRANCH  15  16
ATOM     16  C   UNL     1     -33.796  19.659   1.066  0.00  0.00    +0.025 C 
ATOM     17  C   UNL     1     -33.099  20.596   0.304  0.00  0.00    +0.002 C 
ATOM     18  C   UNL     1     -33.172  18.474   1.455  0.00  0.00    +0.002 C 
ATOM     19  C   UNL     1     -31.778  20.347  -0.070  0.00  0.00    +0.000 C 
ATOM     20  C   UNL     1     -31.851  18.225   1.081  0.00  0.00    +0.000 C 
ATOM     21  C   UNL     1     -31.155  19.162   0.318  0.00  0.00    +0.000 C 
ENDBRANCH  15  16
BRANCH  14  22
ATOM     22  O   UNL     1     -35.750  18.681  -0.307  0.00  0.00    -0.409 OA
ATOM     23  H   UNL     1     -35.856  19.008  -1.179  0.00  0.00    +0.328 HD
ENDBRANCH  14  22
ENDBRANCH  12  15
ENDBRANCH   5  11
BRANCH   7  25
ATOM     24  OXT UNL     1     -39.117  26.836   1.099  0.00  0.00    -0.244 OA
ATOM     25  C   UNL     1     -38.659  26.526   2.179  0.00  0.00    +0.352 C 
BRANCH  25  26
ATOM     26  O   UNL     1     -39.314  26.538   3.357  0.00  0.00    -0.476 OA
ATOM     27  H   UNL     1     -39.419  25.743   3.843  0.00  0.00    +0.295 HD
ENDBRANCH  25  26
ENDBRANCH   7  25
BRANCH   8  28
ATOM     28  C   UNL     1     -36.319  28.286   1.605  0.00  0.00    +0.233 C 
BRANCH  28  29
ATOM     29  O   UNL     1     -35.070  28.920   1.768  0.00  0.00    -0.444 OA
BRANCH  29  31
ATOM     30  O   UNL     1     -34.353  29.973   3.696  0.00  0.00    -0.250 OA
ATOM     31  C   UNL     1     -35.027  29.949   2.675  0.00  0.00    +0.318 C 
ATOM     32  C   UNL     1     -35.934  31.061   2.240  0.00  0.00    +0.121 C 
ENDBRANCH  29  31
ENDBRANCH  28  29
ENDBRANCH   8  28
TORSDOF 9
ENDMDL
MODEL 2
REMARK VINA RESULT:      -6.6      2.507      3.901
REMARK  Name = 56842860
REMARK  9 active torsions:
REMARK  status: ('A' for Active; 'I' for Inactive)
REMARK    1  A    between atoms: CA_5  and  N_11
REMARK    2  A    between atoms: CA_7  and  C_25
REMARK    3  A    between atoms: C_8  and  C_28
REMARK    4  A    between atoms: C_12  and  C_15
REMARK    5  A    between atoms: N_14  and  O_22
REMARK    6  A    between atoms: C_15  and  C_16
REMARK    7  A    between atoms: C_25  and  O_26
REMARK    8  A    between atoms: C_28  and  O_29
REMARK    9  A    between atoms: O_29  and  C_31
REMARK                            x       y       z     vdW  Elec       q    Type
REMARK                         _______ _______ _______ _____ _____    ______ ____
ROOT
ATOM      1  S   UNL     1     -35.174  24.031   4.473  0.00  0.00    -0.114 S 
ATOM      2  O   UNL     1     -37.984  26.698   1.904  0.00  0.00    -0.273 OA
ATOM      3  N   UNL     1     -36.304  26.222   3.488  0.00  0.00    -0.242 N 
ATOM      4  C   UNL     1     -36.557  25.194   4.481  0.00  0.00    +0.155 C 
ATOM      5  CA  UNL     1     -37.785  24.807   3.628  0.00  0.00    +0.179 C 
ATOM      6  C   UNL     1     -37.468  26.095   2.816  0.00  0.00    +0.251 C 
ATOM      7  CA  UNL     1     -35.167  26.963   3.442  0.00  0.00    +0.127 C 
ATOM      8  C   UNL     1     -34.060  26.604   4.134  0.00  0.00    +0.030 C 
ATOM      9  C   UNL     1     -33.953  25.307   4.933  0.00  0.00    +0.086 C 
ENDROOT
BRANCH   5  11
ATOM     10  O   UNL     1     -40.004  23.403   2.291  0.00  0.00    -0.268 OA
ATOM     11  N   UNL     1     -37.726  23.584   2.830  0.00  0.00    -0.291 N 
ATOM     12  C   UNL     1     -38.847  23.016   2.249  0.00  0.00    +0.267 C 
ATOM     13  H   UNL     1     -36.854  23.145   2.701  0.00  0.00    +0.150 HD
BRANCH  12  15
ATOM     14  N   UNL     1     -39.504  21.030   1.001  0.00  0.00    -0.082 NA
ATOM     15  C   UNL     1     -38.540  21.758   1.478  0.00  0.00    +0.172 C 
BRANCH  15  16
ATOM     16  C   UNL     1     -37.118  21.375   1.268  0.00  0.00    +0.025 C 
ATOM     17  C   UNL     1     -36.474  20.553   2.193  0.00  0.00    +0.002 C 
ATOM     18  C   UNL     1     -36.430  21.835   0.146  0.00  0.00    +0.002 C 
ATOM     19  C   UNL     1     -35.141  20.192   1.995  0.00  0.00    +0.000 C 
ATOM     20  C   UNL     1     -35.097  21.475  -0.052  0.00  0.00    +0.000 C 
ATOM     21  C   UNL     1     -34.453  20.653   0.873  0.00  0.00    +0.000 C 
ENDBRANCH  15  16
BRANCH  14  22
ATOM     22  O   UNL     1     -39.020  19.914   0.313  0.00  0.00    -0.409 OA
ATOM     23  H   UNL     1     -39.611  19.246   0.029  0.00  0.00    +0.328 HD
ENDBRANCH  14  22
ENDBRANCH  12  15
ENDBRANCH   5  11
BRANCH   7  25
ATOM     24  OXT UNL     1     -34.997  28.085   1.354  0.00  0.00    -0.244 OA
ATOM     25  C   UNL     1     -35.171  28.136   2.554  0.00  0.00    +0.352 C 
BRANCH  25  26
ATOM     26  O   UNL     1     -35.393  29.247   3.283  0.00  0.00    -0.476 OA
ATOM     27  H   UNL     1     -36.270  29.521   3.465  0.00  0.00    +0.295 HD
ENDBRANCH  25  26
ENDBRANCH   7  25
BRANCH   8  28
ATOM     28  C   UNL     1     -32.788  27.415   4.199  0.00  0.00    +0.233 C 
BRANCH  28  29
ATOM     29  O   UNL     1     -32.891  28.366   5.237  0.00  0.00    -0.444 OA
BRANCH  29  31
ATOM     30  O   UNL     1     -30.927  27.683   6.243  0.00  0.00    -0.250 OA
ATOM     31  C   UNL     1     -31.775  28.535   6.015  0.00  0.00    +0.318 C 
ATOM     32  C   UNL     1     -31.730  29.931   6.561  0.00  0.00    +0.121 C 
ENDBRANCH  29  31
ENDBRANCH  28  29
ENDBRANCH   8  28
TORSDOF 9
ENDMDL
MODEL 3
REMARK VINA RESULT:      -6.6      3.772      9.783
REMARK  Name = 56842860
REMARK  9 active torsions:
REMARK  status: ('A' for Active; 'I' for Inactive)
REMARK    1  A    between atoms: CA_5  and  N_11
REMARK    2  A    between atoms: CA_7  and  C_25
REMARK    3  A    between atoms: C_8  and  C_28
REMARK    4  A    between atoms: C_12  and  C_15
REMARK    5  A    between atoms: N_14  and  O_22
REMARK    6  A    between atoms: C_15  and  C_16
REMARK    7  A    between atoms: C_25  and  O_26
REMARK    8  A    between atoms: C_28  and  O_29
REMARK    9  A    between atoms: O_29  and  C_31
REMARK                            x       y       z     vdW  Elec       q    Type
REMARK                         _______ _______ _______ _____ _____    ______ ____
ROOT
ATOM      1  S   UNL     1     -32.703  18.896   1.165  0.00  0.00    -0.114 S 
ATOM      2  O   UNL     1     -37.164  18.163   0.084  0.00  0.00    -0.273 OA
ATOM      3  N   UNL     1     -34.825  17.925  -0.098  0.00  0.00    -0.242 N 
ATOM      4  C   UNL     1     -34.001  19.118  -0.072  0.00  0.00    +0.155 C 
ATOM      5  CA  UNL     1     -35.270  19.868   0.391  0.00  0.00    +0.179 C 
ATOM      6  C   UNL     1     -36.015  18.538   0.083  0.00  0.00    +0.251 C 
ATOM      7  CA  UNL     1     -34.332  16.670  -0.267  0.00  0.00    +0.127 C 
ATOM      8  C   UNL     1     -33.011  16.406  -0.130  0.00  0.00    +0.030 C 
ATOM      9  C   UNL     1     -31.988  17.448   0.316  0.00  0.00    +0.086 C 
ENDROOT
BRANCH   5  11
ATOM     10  O   UNL     1     -34.899  22.565   1.517  0.00  0.00    -0.268 OA
ATOM     11  N   UNL     1     -35.368  20.282   1.790  0.00  0.00    -0.291 N 
ATOM     12  C   UNL     1     -35.171  21.589   2.199  0.00  0.00    +0.267 C 
ATOM     13  H   UNL     1     -35.583  19.602   2.470  0.00  0.00    +0.150 HD
BRANCH  12  15
ATOM     14  N   UNL     1     -35.274  20.746   4.481  0.00  0.00    -0.082 NA
ATOM     15  C   UNL     1     -35.320  21.773   3.686  0.00  0.00    +0.172 C 
BRANCH  15  16
ATOM     16  C   UNL     1     -35.512  23.146   4.224  0.00  0.00    +0.025 C 
ATOM     17  C   UNL     1     -36.721  23.812   4.021  0.00  0.00    +0.002 C 
ATOM     18  C   UNL     1     -34.485  23.767   4.933  0.00  0.00    +0.002 C 
ATOM     19  C   UNL     1     -36.901  25.099   4.527  0.00  0.00    +0.000 C 
ATOM     20  C   UNL     1     -34.664  25.055   5.439  0.00  0.00    +0.000 C 
ATOM     21  C   UNL     1     -35.873  25.721   5.236  0.00  0.00    +0.000 C 
ENDBRANCH  15  16
BRANCH  14  22
ATOM     22  O   UNL     1     -35.423  21.119   5.820  0.00  0.00    -0.409 OA
ATOM     23  H   UNL     1     -36.274  21.124   6.212  0.00  0.00    +0.328 HD
ENDBRANCH  14  22
ENDBRANCH  12  15
ENDBRANCH   5  11
BRANCH   7  25
ATOM     24  OXT UNL     1     -35.559  15.171  -1.644  0.00  0.00    -0.244 OA
ATOM     25  C   UNL     1     -35.305  15.601  -0.538  0.00  0.00    +0.352 C 
BRANCH  25  26
ATOM     26  O   UNL     1     -35.854  15.193   0.623  0.00  0.00    -0.476 OA
ATOM     27  H   UNL     1     -36.744  15.410   0.823  0.00  0.00    +0.295 HD
ENDBRANCH  25  26
ENDBRANCH   7  25
BRANCH   8  28
ATOM     28  C   UNL     1     -32.375  15.059  -0.381  0.00  0.00    +0.233 C 
BRANCH  28  29
ATOM     29  O   UNL     1     -31.084  15.038   0.188  0.00  0.00    -0.444 OA
BRANCH  29  31
ATOM     30  O   UNL     1     -30.580  12.949   1.035  0.00  0.00    -0.250 OA
ATOM     31  C   UNL     1     -30.444  13.825   0.192  0.00  0.00    +0.318 C 
ATOM     32  C   UNL     1     -29.538  13.713  -0.997  0.00  0.00    +0.121 C 
ENDBRANCH  29  31
ENDBRANCH  28  29
ENDBRANCH   8  28
TORSDOF 9
ENDMDL
MODEL 4
REMARK VINA RESULT:      -6.5      3.161      8.182
REMARK  Name = 56842860
REMARK  9 active torsions:
REMARK  status: ('A' for Active; 'I' for Inactive)
REMARK    1  A    between atoms: CA_5  and  N_11
REMARK    2  A    between atoms: CA_7  and  C_25
REMARK    3  A    between atoms: C_8  and  C_28
REMARK    4  A    between atoms: C_12  and  C_15
REMARK    5  A    between atoms: N_14  and  O_22
REMARK    6  A    between atoms: C_15  and  C_16
REMARK    7  A    between atoms: C_25  and  O_26
REMARK    8  A    between atoms: C_28  and  O_29
REMARK    9  A    between atoms: O_29  and  C_31
REMARK                            x       y       z     vdW  Elec       q    Type
REMARK                         _______ _______ _______ _____ _____    ______ ____
ROOT
ATOM      1  S   UNL     1     -35.561  24.696   1.060  0.00  0.00    -0.114 S 
ATOM      2  O   UNL     1     -35.027  22.152   4.914  0.00  0.00    -0.273 OA
ATOM      3  N   UNL     1     -35.903  22.721   2.799  0.00  0.00    -0.242 N 
ATOM      4  C   UNL     1     -36.340  24.085   2.572  0.00  0.00    +0.155 C 
ATOM      5  CA  UNL     1     -35.628  24.432   3.899  0.00  0.00    +0.179 C 
ATOM      6  C   UNL     1     -35.457  22.895   4.063  0.00  0.00    +0.251 C 
ATOM      7  CA  UNL     1     -36.009  21.730   1.876  0.00  0.00    +0.127 C 
ATOM      8  C   UNL     1     -36.257  22.003   0.574  0.00  0.00    +0.030 C 
ATOM      9  C   UNL     1     -36.340  23.421   0.012  0.00  0.00    +0.086 C 
ENDROOT
BRANCH   5  11
ATOM     10  O   UNL     1     -35.171  27.317   4.286  0.00  0.00    -0.268 OA
ATOM     11  N   UNL     1     -34.360  25.159   3.845  0.00  0.00    -0.291 N 
ATOM     12  C   UNL     1     -34.273  26.526   4.045  0.00  0.00    +0.267 C 
ATOM     13  H   UNL     1     -33.535  24.655   3.658  0.00  0.00    +0.150 HD
BRANCH  12  15
ATOM     14  N   UNL     1     -32.001  26.454   3.172  0.00  0.00    -0.082 NA
ATOM     15  C   UNL     1     -32.865  27.049   3.938  0.00  0.00    +0.172 C 
BRANCH  15  16
ATOM     16  C   UNL     1     -32.488  28.260   4.716  0.00  0.00    +0.025 C 
ATOM     17  C   UNL     1     -32.087  28.137   6.046  0.00  0.00    +0.002 C 
ATOM     18  C   UNL     1     -32.534  29.517   4.115  0.00  0.00    +0.002 C 
ATOM     19  C   UNL     1     -31.733  29.272   6.775  0.00  0.00    +0.000 C 
ATOM     20  C   UNL     1     -32.179  30.653   4.844  0.00  0.00    +0.000 C 
ATOM     21  C   UNL     1     -31.779  30.530   6.174  0.00  0.00    +0.000 C 
ENDBRANCH  15  16
BRANCH  14  22
ATOM     22  O   UNL     1     -30.757  27.091   3.199  0.00  0.00    -0.409 OA
ATOM     23  H   UNL     1     -29.971  26.583   3.230  0.00  0.00    +0.328 HD
ENDBRANCH  14  22
ENDBRANCH  12  15
ENDBRANCH   5  11
BRANCH   7  25
ATOM     24  OXT UNL     1     -34.684  19.820   2.373  0.00  0.00    -0.244 OA
ATOM     25  C   UNL     1     -35.773  20.355   2.342  0.00  0.00    +0.352 C 
BRANCH  25  26
ATOM     26  O   UNL     1     -36.945  19.804   2.717  0.00  0.00    -0.476 OA
ATOM     27  H   UNL     1     -37.594  20.328   3.143  0.00  0.00    +0.295 HD
ENDBRANCH  25  26
ENDBRANCH   7  25
BRANCH   8  28
ATOM     28  C   UNL     1     -36.469  20.958  -0.496  0.00  0.00    +0.233 C 
BRANCH  28  29
ATOM     29  O   UNL     1     -37.811  20.999  -0.932  0.00  0.00    -0.444 OA
BRANCH  29  31
ATOM     30  O   UNL     1     -39.756  20.239   0.056  0.00  0.00    -0.250 OA
ATOM     31  C   UNL     1     -38.644  20.040  -0.416  0.00  0.00    +0.318 C 
ATOM     32  C   UNL     1     -38.000  18.689  -0.506  0.00  0.00    +0.121 C 
ENDBRANCH  29  31
ENDBRANCH  28  29
ENDBRANCH   8  28
TORSDOF 9
ENDMDL
MODEL 5
REMARK VINA RESULT:      -6.4      3.168      8.307
REMARK  Name = 56842860
REMARK  9 active torsions:
REMARK  status: ('A' for Active; 'I' for Inactive)
REMARK    1  A    between atoms: CA_5  and  N_11
REMARK    2  A    between atoms: CA_7  and  C_25
REMARK    3  A    between atoms: C_8  and  C_28
REMARK    4  A    between atoms: C_12  and  C_15
REMARK    5  A    between atoms: N_14  and  O_22
REMARK    6  A    between atoms: C_15  and  C_16
REMARK    7  A    between atoms: C_25  and  O_26
REMARK    8  A    between atoms: C_28  and  O_29
REMARK    9  A    between atoms: O_29  and  C_31
REMARK                            x       y       z     vdW  Elec       q    Type
REMARK                         _______ _______ _______ _____ _____    ______ ____
ROOT
ATOM      1  S   UNL     1     -33.611  24.992   1.581  0.00  0.00    -0.114 S 
ATOM      2  O   UNL     1     -36.403  23.638   5.042  0.00  0.00    -0.273 OA
ATOM      3  N   UNL     1     -35.533  23.673   2.851  0.00  0.00    -0.242 N 
ATOM      4  C   UNL     1     -35.303  24.957   2.216  0.00  0.00    +0.155 C 
ATOM      5  CA  UNL     1     -35.526  25.580   3.612  0.00  0.00    +0.179 C 
ATOM      6  C   UNL     1     -35.957  24.149   4.042  0.00  0.00    +0.251 C 
ATOM      7  CA  UNL     1     -35.318  22.479   2.240  0.00  0.00    +0.127 C 
ATOM      8  C   UNL     1     -34.596  22.390   1.099  0.00  0.00    +0.030 C 
ATOM      9  C   UNL     1     -33.886  23.580   0.458  0.00  0.00    +0.086 C 
ENDROOT
BRANCH   5  11
ATOM     10  O   UNL     1     -34.481  28.334   3.680  0.00  0.00    -0.268 OA
ATOM     11  N   UNL     1     -34.367  26.086   4.346  0.00  0.00    -0.291 N 
ATOM     12  C   UNL     1     -33.972  27.412   4.298  0.00  0.00    +0.267 C 
ATOM     13  H   UNL     1     -33.846  25.458   4.897  0.00  0.00    +0.150 HD
BRANCH  12  15
ATOM     14  N   UNL     1     -32.444  26.921   6.129  0.00  0.00    -0.082 NA
ATOM     15  C   UNL     1     -32.751  27.695   5.132  0.00  0.00    +0.172 C 
BRANCH  15  16
ATOM     16  C   UNL     1     -31.902  28.867   4.787  0.00  0.00    +0.025 C 
ATOM     17  C   UNL     1     -32.054  30.066   5.484  0.00  0.00    +0.002 C 
ATOM     18  C   UNL     1     -30.955  28.767   3.769  0.00  0.00    +0.002 C 
ATOM     19  C   UNL     1     -31.257  31.165   5.161  0.00  0.00    +0.000 C 
ATOM     20  C   UNL     1     -30.158  29.865   3.447  0.00  0.00    +0.000 C 
ATOM     21  C   UNL     1     -30.309  31.065   4.143  0.00  0.00    +0.000 C 
ENDBRANCH  15  16
BRANCH  14  22
ATOM     22  O   UNL     1     -31.277  27.342   6.773  0.00  0.00    -0.409 OA
ATOM     23  H   UNL     1     -30.457  26.937   6.569  0.00  0.00    +0.328 HD
ENDBRANCH  14  22
ENDBRANCH  12  15
ENDBRANCH   5  11
BRANCH   7  25
ATOM     24  OXT UNL     1     -35.213  20.597   3.688  0.00  0.00    -0.244 OA
ATOM     25  C   UNL     1     -35.846  21.282   2.911  0.00  0.00    +0.352 C 
BRANCH  25  26
ATOM     26  O   UNL     1     -37.121  21.079   2.524  0.00  0.00    -0.476 OA
ATOM     27  H   UNL     1     -37.765  21.747   2.661  0.00  0.00    +0.295 HD
ENDBRANCH  25  26
ENDBRANCH   7  25
BRANCH   8  28
ATOM     28  C   UNL     1     -34.381  21.115   0.317  0.00  0.00    +0.233 C 
BRANCH  28  29
ATOM     29  O   UNL     1     -33.015  20.766   0.358  0.00  0.00    -0.444 OA
BRANCH  29  31
ATOM     30  O   UNL     1     -33.461  18.827   1.532  0.00  0.00    -0.250 OA
ATOM     31  C   UNL     1     -32.723  19.515   0.838  0.00  0.00    +0.318 C 
ATOM     32  C   UNL     1     -31.355  19.093   0.393  0.00  0.00    +0.121 C 
ENDBRANCH  29  31
ENDBRANCH  28  29
ENDBRANCH   8  28
TORSDOF 9
ENDMDL
MODEL 6
REMARK VINA RESULT:      -6.4      3.699      8.196
REMARK  Name = 56842860
REMARK  9 active torsions:
REMARK  status: ('A' for Active; 'I' for Inactive)
REMARK    1  A    between atoms: CA_5  and  N_11
REMARK    2  A    between atoms: CA_7  and  C_25
REMARK    3  A    between atoms: C_8  and  C_28
REMARK    4  A    between atoms: C_12  and  C_15
REMARK    5  A    between atoms: N_14  and  O_22
REMARK    6  A    between atoms: C_15  and  C_16
REMARK    7  A    between atoms: C_25  and  O_26
REMARK    8  A    between atoms: C_28  and  O_29
REMARK    9  A    between atoms: O_29  and  C_31
REMARK                            x       y       z     vdW  Elec       q    Type
REMARK                         _______ _______ _______ _____ _____    ______ ____
ROOT
ATOM      1  S   UNL     1     -33.441  25.511   1.773  0.00  0.00    -0.114 S 
ATOM      2  O   UNL     1     -36.602  25.797   5.170  0.00  0.00    -0.273 OA
ATOM      3  N   UNL     1     -35.745  25.201   3.056  0.00  0.00    -0.242 N 
ATOM      4  C   UNL     1     -35.030  26.203   2.288  0.00  0.00    +0.155 C 
ATOM      5  CA  UNL     1     -35.023  27.050   3.581  0.00  0.00    +0.179 C 
ATOM      6  C   UNL     1     -35.976  25.960   4.149  0.00  0.00    +0.251 C 
ATOM      7  CA  UNL     1     -35.991  23.942   2.609  0.00  0.00    +0.127 C 
ATOM      8  C   UNL     1     -35.338  23.431   1.540  0.00  0.00    +0.030 C 
ATOM      9  C   UNL     1     -34.214  24.166   0.811  0.00  0.00    +0.086 C 
ENDROOT
BRANCH   5  11
ATOM     10  O   UNL     1     -33.327  29.440   3.885  0.00  0.00    -0.268 OA
ATOM     11  N   UNL     1     -33.772  27.178   4.328  0.00  0.00    -0.291 N 
ATOM     12  C   UNL     1     -33.061  28.363   4.396  0.00  0.00    +0.267 C 
ATOM     13  H   UNL     1     -33.421  26.388   4.801  0.00  0.00    +0.150 HD
BRANCH  12  15
ATOM     14  N   UNL     1     -31.743  27.416   6.212  0.00  0.00    -0.082 NA
ATOM     15  C   UNL     1     -31.804  28.252   5.219  0.00  0.00    +0.172 C 
BRANCH  15  16
ATOM     16  C   UNL     1     -30.639  29.107   4.870  0.00  0.00    +0.025 C 
ATOM     17  C   UNL     1     -30.457  30.333   5.509  0.00  0.00    +0.002 C 
ATOM     18  C   UNL     1     -29.728  28.683   3.903  0.00  0.00    +0.002 C 
ATOM     19  C   UNL     1     -29.363  31.134   5.182  0.00  0.00    +0.000 C 
ATOM     20  C   UNL     1     -28.634  29.484   3.575  0.00  0.00    +0.000 C 
ATOM     21  C   UNL     1     -28.451  30.710   4.215  0.00  0.00    +0.000 C 
ENDBRANCH  15  16
BRANCH  14  22
ATOM     22  O   UNL     1     -30.498  27.452   6.845  0.00  0.00    -0.409 OA
ATOM     23  H   UNL     1     -29.881  26.761   6.707  0.00  0.00    +0.328 HD
ENDBRANCH  14  22
ENDBRANCH  12  15
ENDBRANCH   5  11
BRANCH   7  25
ATOM     24  OXT UNL     1     -38.128  23.029   3.111  0.00  0.00    -0.244 OA
ATOM     25  C   UNL     1     -36.949  23.136   3.381  0.00  0.00    +0.352 C 
BRANCH  25  26
ATOM     26  O   UNL     1     -36.311  22.552   4.415  0.00  0.00    -0.476 OA
ATOM     27  H   UNL     1     -36.066  23.061   5.162  0.00  0.00    +0.295 HD
ENDBRANCH  25  26
ENDBRANCH   7  25
BRANCH   8  28
ATOM     28  C   UNL     1     -35.612  22.075   0.934  0.00  0.00    +0.233 C 
BRANCH  28  29
ATOM     29  O   UNL     1     -34.457  21.272   1.041  0.00  0.00    -0.444 OA
BRANCH  29  31
ATOM     30  O   UNL     1     -35.208  20.194   2.940  0.00  0.00    -0.250 OA
ATOM     31  C   UNL     1     -34.526  20.226   1.925  0.00  0.00    +0.318 C 
ATOM     32  C   UNL     1     -33.639  19.105   1.474  0.00  0.00    +0.121 C 
ENDBRANCH  29  31
ENDBRANCH  28  29
ENDBRANCH   8  28
TORSDOF 9
ENDMDL
MODEL 7
REMARK VINA RESULT:      -6.4      3.320      7.523
REMARK  Name = 56842860
REMARK  9 active torsions:
REMARK  status: ('A' for Active; 'I' for Inactive)
REMARK    1  A    between atoms: CA_5  and  N_11
REMARK    2  A    between atoms: CA_7  and  C_25
REMARK    3  A    between atoms: C_8  and  C_28
REMARK    4  A    between atoms: C_12  and  C_15
REMARK    5  A    between atoms: N_14  and  O_22
REMARK    6  A    between atoms: C_15  and  C_16
REMARK    7  A    between atoms: C_25  and  O_26
REMARK    8  A    between atoms: C_28  and  O_29
REMARK    9  A    between atoms: O_29  and  C_31
REMARK                            x       y       z     vdW  Elec       q    Type
REMARK                         _______ _______ _______ _____ _____    ______ ____
ROOT
ATOM      1  S   UNL     1     -36.148  24.822   2.398  0.00  0.00    -0.114 S 
ATOM      2  O   UNL     1     -35.053  21.323   5.256  0.00  0.00    -0.273 OA
ATOM      3  N   UNL     1     -36.141  22.387   3.454  0.00  0.00    -0.242 N 
ATOM      4  C   UNL     1     -36.740  23.689   3.676  0.00  0.00    +0.155 C 
ATOM      5  CA  UNL     1     -35.974  23.707   5.018  0.00  0.00    +0.179 C 
ATOM      6  C   UNL     1     -35.624  22.227   4.692  0.00  0.00    +0.251 C 
ATOM      7  CA  UNL     1     -36.206  21.717   2.275  0.00  0.00    +0.127 C 
ATOM      8  C   UNL     1     -36.580  22.336   1.130  0.00  0.00    +0.030 C 
ATOM      9  C   UNL     1     -36.859  23.834   1.038  0.00  0.00    +0.086 C 
ENDROOT
BRANCH   5  11
ATOM     10  O   UNL     1     -35.900  26.597   5.583  0.00  0.00    -0.268 OA
ATOM     11  N   UNL     1     -34.801  24.570   5.143  0.00  0.00    -0.291 N 
ATOM     12  C   UNL     1     -34.895  25.925   5.412  0.00  0.00    +0.267 C 
ATOM     13  H   UNL     1     -33.907  24.172   5.031  0.00  0.00    +0.150 HD
BRANCH  12  15
ATOM     14  N   UNL     1     -32.898  26.633   6.613  0.00  0.00    -0.082 NA
ATOM     15  C   UNL     1     -33.555  26.606   5.492  0.00  0.00    +0.172 C 
BRANCH  15  16
ATOM     16  C   UNL     1     -32.996  27.237   4.267  0.00  0.00    +0.025 C 
ATOM     17  C   UNL     1     -32.875  28.625   4.190  0.00  0.00    +0.002 C 
ATOM     18  C   UNL     1     -32.593  26.442   3.194  0.00  0.00    +0.002 C 
ATOM     19  C   UNL     1     -32.350  29.216   3.040  0.00  0.00    +0.000 C 
ATOM     20  C   UNL     1     -32.068  27.033   2.045  0.00  0.00    +0.000 C 
ATOM     21  C   UNL     1     -31.947  28.421   1.968  0.00  0.00    +0.000 C 
ENDBRANCH  15  16
BRANCH  14  22
ATOM     22  O   UNL     1     -31.678  27.301   6.484  0.00  0.00    -0.409 OA
ATOM     23  H   UNL     1     -31.602  28.030   5.900  0.00  0.00    +0.328 HD
ENDBRANCH  14  22
ENDBRANCH  12  15
ENDBRANCH   5  11
BRANCH   7  25
ATOM     24  OXT UNL     1     -34.664  19.925   2.027  0.00  0.00    -0.244 OA
ATOM     25  C   UNL     1     -35.787  20.307   2.284  0.00  0.00    +0.352 C 
BRANCH  25  26
ATOM     26  O   UNL     1     -36.838  19.531   2.616  0.00  0.00    -0.476 OA
ATOM     27  H   UNL     1     -36.757  18.902   3.306  0.00  0.00    +0.295 HD
ENDBRANCH  25  26
ENDBRANCH   7  25
BRANCH   8  28
ATOM     28  C   UNL     1     -36.755  21.645  -0.201  0.00  0.00    +0.233 C 
BRANCH  28  29
ATOM     29  O   UNL     1     -38.120  21.650  -0.556  0.00  0.00    -0.444 OA
BRANCH  29  31
ATOM     30  O   UNL     1     -39.912  20.619   0.476  0.00  0.00    -0.250 OA
ATOM     31  C   UNL     1     -38.857  20.569  -0.143  0.00  0.00    +0.318 C 
ATOM     32  C   UNL     1     -38.186  19.295  -0.558  0.00  0.00    +0.121 C 
ENDBRANCH  29  31
ENDBRANCH  28  29
ENDBRANCH   8  28
TORSDOF 9
ENDMDL
MODEL 8
REMARK VINA RESULT:      -6.1      2.075      8.512
REMARK  Name = 56842860
REMARK  9 active torsions:
REMARK  status: ('A' for Active; 'I' for Inactive)
REMARK    1  A    between atoms: CA_5  and  N_11
REMARK    2  A    between atoms: CA_7  and  C_25
REMARK    3  A    between atoms: C_8  and  C_28
REMARK    4  A    between atoms: C_12  and  C_15
REMARK    5  A    between atoms: N_14  and  O_22
REMARK    6  A    between atoms: C_15  and  C_16
REMARK    7  A    between atoms: C_25  and  O_26
REMARK    8  A    between atoms: C_28  and  O_29
REMARK    9  A    between atoms: O_29  and  C_31
REMARK                            x       y       z     vdW  Elec       q    Type
REMARK                         _______ _______ _______ _____ _____    ______ ____
ROOT
ATOM      1  S   UNL     1     -34.267  24.148   0.419  0.00  0.00    -0.114 S 
ATOM      2  O   UNL     1     -37.122  23.369   4.004  0.00  0.00    -0.273 OA
ATOM      3  N   UNL     1     -35.965  22.871   2.010  0.00  0.00    -0.242 N 
ATOM      4  C   UNL     1     -35.972  23.851   0.940  0.00  0.00    +0.155 C 
ATOM      5  CA  UNL     1     -36.555  24.838   1.976  0.00  0.00    +0.179 C 
ATOM      6  C   UNL     1     -36.672  23.596   2.905  0.00  0.00    +0.251 C 
ATOM      7  CA  UNL     1     -35.366  21.656   1.917  0.00  0.00    +0.127 C 
ATOM      8  C   UNL     1     -34.479  21.379   0.933  0.00  0.00    +0.030 C 
ATOM      9  C   UNL     1     -34.002  22.414  -0.085  0.00  0.00    +0.086 C 
ENDROOT
BRANCH   5  11
ATOM     10  O   UNL     1     -36.870  27.757   1.728  0.00  0.00    -0.268 OA
ATOM     11  N   UNL     1     -35.687  25.886   2.511  0.00  0.00    -0.291 N 
ATOM     12  C   UNL     1     -35.942  27.234   2.326  0.00  0.00    +0.267 C 
ATOM     13  H   UNL     1     -34.888  25.623   3.023  0.00  0.00    +0.150 HD
BRANCH  12  15
ATOM     14  N   UNL     1     -34.274  27.733   4.028  0.00  0.00    -0.082 NA
ATOM     15  C   UNL     1     -34.908  28.124   2.964  0.00  0.00    +0.172 C 
BRANCH  15  16
ATOM     16  C   UNL     1     -34.624  29.449   2.350  0.00  0.00    +0.025 C 
ATOM     17  C   UNL     1     -33.710  29.550   1.301  0.00  0.00    +0.002 C 
ATOM     18  C   UNL     1     -35.272  30.590   2.823  0.00  0.00    +0.002 C 
ATOM     19  C   UNL     1     -33.445  30.793   0.725  0.00  0.00    +0.000 C 
ATOM     20  C   UNL     1     -35.007  31.832   2.247  0.00  0.00    +0.000 C 
ATOM     21  C   UNL     1     -34.093  31.933   1.198  0.00  0.00    +0.000 C 
ENDBRANCH  15  16
BRANCH  14  22
ATOM     22  O   UNL     1     -33.353  28.690   4.464  0.00  0.00    -0.409 OA
ATOM     23  H   UNL     1     -33.618  29.351   5.072  0.00  0.00    +0.328 HD
ENDBRANCH  14  22
ENDBRANCH  12  15
ENDBRANCH   5  11
BRANCH   7  25
ATOM     24  OXT UNL     1     -35.097  20.623   4.041  0.00  0.00    -0.244 OA
ATOM     25  C   UNL     1     -35.671  20.679   2.973  0.00  0.00    +0.352 C 
BRANCH  25  26
ATOM     26  O   UNL     1     -36.672  19.876   2.562  0.00  0.00    -0.476 OA
ATOM     27  H   UNL     1     -36.480  19.023   2.224  0.00  0.00    +0.295 HD
ENDBRANCH  25  26
ENDBRANCH   7  25
BRANCH   8  28
ATOM     28  C   UNL     1     -33.833  20.031   0.714  0.00  0.00    +0.233 C 
BRANCH  28  29
ATOM     29  O   UNL     1     -32.470  20.211   0.397  0.00  0.00    -0.444 OA
BRANCH  29  31
ATOM     30  O   UNL     1     -30.493  19.030   0.226  0.00  0.00    -0.250 OA
ATOM     31  C   UNL     1     -31.653  19.129   0.601  0.00  0.00    +0.318 C 
ATOM     32  C   UNL     1     -32.385  18.062   1.359  0.00  0.00    +0.121 C 
ENDBRANCH  29  31
ENDBRANCH  28  29
ENDBRANCH   8  28
TORSDOF 9
ENDMDL
MODEL 9
REMARK VINA RESULT:      -6.1      4.445      6.572
REMARK  Name = 56842860
REMARK  9 active torsions:
REMARK  status: ('A' for Active; 'I' for Inactive)
REMARK    1  A    between atoms: CA_5  and  N_11
REMARK    2  A    between atoms: CA_7  and  C_25
REMARK    3  A    between atoms: C_8  and  C_28
REMARK    4  A    between atoms: C_12  and  C_15
REMARK    5  A    between atoms: N_14  and  O_22
REMARK    6  A    between atoms: C_15  and  C_16
REMARK    7  A    between atoms: C_25  and  O_26
REMARK    8  A    between atoms: C_28  and  O_29
REMARK    9  A    between atoms: O_29  and  C_31
REMARK                            x       y       z     vdW  Elec       q    Type
REMARK                         _______ _______ _______ _____ _____    ______ ____
ROOT
ATOM      1  S   UNL     1     -33.360  27.026   5.498  0.00  0.00    -0.114 S 
ATOM      2  O   UNL     1     -32.295  25.889   1.119  0.00  0.00    -0.273 OA
ATOM      3  N   UNL     1     -32.231  27.166   3.100  0.00  0.00    -0.242 N 
ATOM      4  C   UNL     1     -33.483  27.492   3.756  0.00  0.00    +0.155 C 
ATOM      5  CA  UNL     1     -34.137  26.458   2.813  0.00  0.00    +0.179 C 
ATOM      6  C   UNL     1     -32.755  26.422   2.101  0.00  0.00    +0.251 C 
ATOM      7  CA  UNL     1     -31.017  27.591   3.536  0.00  0.00    +0.127 C 
ATOM      8  C   UNL     1     -30.852  28.105   4.777  0.00  0.00    +0.030 C 
ATOM      9  C   UNL     1     -31.968  28.161   5.818  0.00  0.00    +0.086 C 
ENDROOT
BRANCH   5  11
ATOM     10  O   UNL     1     -36.801  25.657   3.786  0.00  0.00    -0.268 OA
ATOM     11  N   UNL     1     -34.544  25.166   3.364  0.00  0.00    -0.291 N 
ATOM     12  C   UNL     1     -35.836  24.909   3.791  0.00  0.00    +0.267 C 
ATOM     13  H   UNL     1     -33.872  24.450   3.435  0.00  0.00    +0.150 HD
BRANCH  12  15
ATOM     14  N   UNL     1     -35.957  23.284   5.601  0.00  0.00    -0.082 NA
ATOM     15  C   UNL     1     -36.015  23.511   4.323  0.00  0.00    +0.172 C 
BRANCH  15  16
ATOM     16  C   UNL     1     -36.267  22.405   3.362  0.00  0.00    +0.025 C 
ATOM     17  C   UNL     1     -35.286  21.439   3.138  0.00  0.00    +0.002 C 
ATOM     18  C   UNL     1     -37.484  22.332   2.685  0.00  0.00    +0.002 C 
ATOM     19  C   UNL     1     -35.523  20.400   2.238  0.00  0.00    +0.000 C 
ATOM     20  C   UNL     1     -37.721  21.293   1.784  0.00  0.00    +0.000 C 
ATOM     21  C   UNL     1     -36.740  20.327   1.561  0.00  0.00    +0.000 C 
ENDBRANCH  15  16
BRANCH  14  22
ATOM     22  O   UNL     1     -36.155  21.932   5.897  0.00  0.00    -0.409 OA
ATOM     23  H   UNL     1     -37.005  21.626   6.143  0.00  0.00    +0.328 HD
ENDBRANCH  14  22
ENDBRANCH  12  15
ENDBRANCH   5  11
BRANCH   7  25
ATOM     24  OXT UNL     1     -29.447  28.263   1.883  0.00  0.00    -0.244 OA
ATOM     25  C   UNL     1     -29.878  27.404   2.624  0.00  0.00    +0.352 C 
BRANCH  25  26
ATOM     26  O   UNL     1     -29.409  26.147   2.747  0.00  0.00    -0.476 OA
ATOM     27  H   UNL     1     -28.532  26.000   3.042  0.00  0.00    +0.295 HD
ENDBRANCH  25  26
ENDBRANCH   7  25
BRANCH   8  28
ATOM     28  C   UNL     1     -29.556  28.672   5.305  0.00  0.00    +0.233 C 
BRANCH  28  29
ATOM     29  O   UNL     1     -29.093  27.869   6.369  0.00  0.00    -0.444 OA
BRANCH  29  31
ATOM     30  O   UNL     1     -27.720  26.443   5.178  0.00  0.00    -0.250 OA
ATOM     31  C   UNL     1     -27.936  27.169   6.139  0.00  0.00    +0.318 C 
ATOM     32  C   UNL     1     -26.952  27.414   7.244  0.00  0.00    +0.121 C 
ENDBRANCH  29  31
ENDBRANCH  28  29
ENDBRANCH   8  28
TORSDOF 9
ENDMDL
