MODEL 1
REMARK VINA RESULT:      -5.9      0.000      0.000
REMARK  Name = 21574604
REMARK  4 active torsions:
REMARK  status: ('A' for Active; 'I' for Inactive)
REMARK    1  A    between atoms: C_11  and  O_27
REMARK    2  A    between atoms: C_16  and  C_22
REMARK    3  A    between atoms: C_21  and  C_26
REMARK    4  A    between atoms: O_27  and  C_29
REMARK                            x       y       z     vdW  Elec       q    Type
REMARK                         _______ _______ _______ _____ _____    ______ ____
ROOT
ATOM      1  O   UNL     1     -39.149  26.764   1.899  0.00  0.00    -0.338 OA
ATOM      2  O   UNL     1     -39.504  24.261   3.298  0.00  0.00    -0.448 OA
ATOM      3  O   UNL     1     -39.956  21.071   0.704  0.00  0.00    -0.348 OA
ATOM      4  O   UNL     1     -37.622  25.065   4.365  0.00  0.00    -0.247 OA
ATOM      5  O   UNL     1     -36.749  22.265   2.092  0.00  0.00    -0.459 OA
ATOM      6  C   UNL     1     -38.139  25.760   2.132  0.00  0.00    +0.246 C 
ATOM      7  C   UNL     1     -39.350  25.485   1.298  0.00  0.00    +0.194 C 
ATOM      8  C   UNL     1     -40.243  24.590   2.094  0.00  0.00    +0.201 C 
ATOM      9  C   UNL     1     -39.618  22.444   0.922  0.00  0.00    +0.129 C 
ATOM     10  C   UNL     1     -40.729  23.324   1.389  0.00  0.00    +0.076 C 
ATOM     11  C   UNL     1     -36.812  26.165   1.542  0.00  0.00    +0.207 C 
ATOM     12  C   UNL     1     -39.075  21.336   1.806  0.00  0.00    +0.196 C 
ATOM     13  C   UNL     1     -38.351  25.007   3.387  0.00  0.00    +0.348 C 
ATOM     14  C   UNL     1     -35.878  25.000   1.158  0.00  0.00    +0.051 C 
ATOM     15  C   UNL     1     -38.840  22.936  -0.257  0.00  0.00    +0.033 C 
ATOM     16  C   UNL     1     -35.021  24.376   2.293  0.00  0.00    +0.030 C 
ATOM     17  C   UNL     1     -37.545  21.220   1.764  0.00  0.00    +0.152 C 
ATOM     18  C   UNL     1     -34.445  22.990   1.910  0.00  0.00    +0.069 C 
ATOM     19  C   UNL     1     -35.476  21.923   1.770  0.00  0.00    +0.126 C 
ATOM     20  C   UNL     1     -36.788  20.157   1.332  0.00  0.00    +0.041 C 
ATOM     21  C   UNL     1     -35.442  20.612   1.338  0.00  0.00    +0.075 C 
ENDROOT
BRANCH  16  22
ATOM     22  C   UNL     1     -33.873  25.268   2.674  0.00  0.00    -0.044 C 
ATOM     23  C   UNL     1     -33.762  25.620   4.128  0.00  0.00    +0.026 C 
ATOM     24  C   UNL     1     -32.999  25.725   1.765  0.00  0.00    -0.009 C 
ENDBRANCH  16  22
BRANCH  21  26
ATOM     25  O   UNL     1     -33.646  19.089   1.635  0.00  0.00    -0.283 OA
ATOM     26  C   UNL     1     -34.266  19.900   0.933  0.00  0.00    +0.237 C 
ENDBRANCH  21  26
BRANCH  11  27
ATOM     27  O   UNL     1     -36.179  27.080   2.429  0.00  0.00    -0.449 OA
BRANCH  27  29
ATOM     28  O   UNL     1     -36.792  28.950   1.217  0.00  0.00    -0.250 OA
ATOM     29  C   UNL     1     -36.019  28.351   1.954  0.00  0.00    +0.318 C 
ATOM     30  C   UNL     1     -34.737  28.930   2.472  0.00  0.00    +0.121 C 
ENDBRANCH  27  29
ENDBRANCH  11  27
TORSDOF 4
ENDMDL
MODEL 2
REMARK VINA RESULT:      -5.7      2.142      6.448
REMARK  Name = 21574604
REMARK  4 active torsions:
REMARK  status: ('A' for Active; 'I' for Inactive)
REMARK    1  A    between atoms: C_11  and  O_27
REMARK    2  A    between atoms: C_16  and  C_22
REMARK    3  A    between atoms: C_21  and  C_26
REMARK    4  A    between atoms: O_27  and  C_29
REMARK                            x       y       z     vdW  Elec       q    Type
REMARK                         _______ _______ _______ _____ _____    ______ ____
ROOT
ATOM      1  O   UNL     1     -35.482  22.001   4.661  0.00  0.00    -0.338 OA
ATOM      2  O   UNL     1     -36.768  24.587   4.763  0.00  0.00    -0.448 OA
ATOM      3  O   UNL     1     -34.077  27.691   4.287  0.00  0.00    -0.348 OA
ATOM      4  O   UNL     1     -38.109  23.521   3.217  0.00  0.00    -0.247 OA
ATOM      5  O   UNL     1     -35.933  26.029   1.561  0.00  0.00    -0.459 OA
ATOM      6  C   UNL     1     -35.838  22.827   3.533  0.00  0.00    +0.246 C 
ATOM      7  C   UNL     1     -34.833  23.269   4.550  0.00  0.00    +0.194 C 
ATOM      8  C   UNL     1     -35.477  24.337   5.374  0.00  0.00    +0.201 C 
ATOM      9  C   UNL     1     -34.366  26.291   4.228  0.00  0.00    +0.129 C 
ATOM     10  C   UNL     1     -34.685  25.635   5.528  0.00  0.00    +0.076 C 
ATOM     11  C   UNL     1     -35.452  22.178   2.229  0.00  0.00    +0.207 C 
ATOM     12  C   UNL     1     -35.298  27.328   3.626  0.00  0.00    +0.196 C 
ATOM     13  C   UNL     1     -37.036  23.660   3.781  0.00  0.00    +0.348 C 
ATOM     14  C   UNL     1     -35.185  23.148   1.061  0.00  0.00    +0.051 C 
ATOM     15  C   UNL     1     -33.321  25.623   3.391  0.00  0.00    +0.033 C 
ATOM     16  C   UNL     1     -36.420  23.666   0.273  0.00  0.00    +0.030 C 
ATOM     17  C   UNL     1     -35.474  27.180   2.109  0.00  0.00    +0.152 C 
ATOM     18  C   UNL     1     -36.097  24.915  -0.583  0.00  0.00    +0.069 C 
ATOM     19  C   UNL     1     -35.791  26.135   0.215  0.00  0.00    +0.126 C 
ATOM     20  C   UNL     1     -35.136  28.078   1.125  0.00  0.00    +0.041 C 
ATOM     21  C   UNL     1     -35.343  27.401  -0.106  0.00  0.00    +0.075 C 
ENDROOT
BRANCH  16  22
ATOM     22  C   UNL     1     -36.978  22.608  -0.637  0.00  0.00    -0.044 C 
ATOM     23  C   UNL     1     -36.000  21.949  -1.563  0.00  0.00    +0.026 C 
ATOM     24  C   UNL     1     -38.277  22.273  -0.622  0.00  0.00    -0.009 C 
ENDBRANCH  16  22
BRANCH  21  26
ATOM     25  O   UNL     1     -34.250  27.429  -2.213  0.00  0.00    -0.283 OA
ATOM     26  C   UNL     1     -35.099  27.883  -1.434  0.00  0.00    +0.237 C 
ENDBRANCH  21  26
BRANCH  11  27
ATOM     27  O   UNL     1     -36.438  21.207   1.894  0.00  0.00    -0.449 OA
BRANCH  27  29
ATOM     28  O   UNL     1     -36.581  19.171   0.812  0.00  0.00    -0.250 OA
ATOM     29  C   UNL     1     -35.961  20.002   1.462  0.00  0.00    +0.318 C 
ATOM     30  C   UNL     1     -34.538  19.831   1.902  0.00  0.00    +0.121 C 
ENDBRANCH  27  29
ENDBRANCH  11  27
TORSDOF 4
ENDMDL
MODEL 3
REMARK VINA RESULT:      -5.7      2.056      6.792
REMARK  Name = 21574604
REMARK  4 active torsions:
REMARK  status: ('A' for Active; 'I' for Inactive)
REMARK    1  A    between atoms: C_11  and  O_27
REMARK    2  A    between atoms: C_16  and  C_22
REMARK    3  A    between atoms: C_21  and  C_26
REMARK    4  A    between atoms: O_27  and  C_29
REMARK                            x       y       z     vdW  Elec       q    Type
REMARK                         _______ _______ _______ _____ _____    ______ ____
ROOT
ATOM      1  O   UNL     1     -33.924  24.105   4.862  0.00  0.00    -0.338 OA
ATOM      2  O   UNL     1     -35.326  26.625   5.040  0.00  0.00    -0.448 OA
ATOM      3  O   UNL     1     -33.881  29.412   2.348  0.00  0.00    -0.348 OA
ATOM      4  O   UNL     1     -37.111  25.172   4.874  0.00  0.00    -0.247 OA
ATOM      5  O   UNL     1     -36.647  27.051   1.708  0.00  0.00    -0.459 OA
ATOM      6  C   UNL     1     -34.971  24.568   3.984  0.00  0.00    +0.246 C 
ATOM      7  C   UNL     1     -33.656  25.274   4.087  0.00  0.00    +0.194 C 
ATOM      8  C   UNL     1     -33.893  26.547   4.834  0.00  0.00    +0.201 C 
ATOM      9  C   UNL     1     -33.929  28.061   2.816  0.00  0.00    +0.129 C 
ATOM     10  C   UNL     1     -33.365  27.821   4.176  0.00  0.00    +0.076 C 
ATOM     11  C   UNL     1     -35.276  23.558   2.908  0.00  0.00    +0.207 C 
ATOM     12  C   UNL     1     -35.188  28.889   2.628  0.00  0.00    +0.196 C 
ATOM     13  C   UNL     1     -35.943  25.455   4.661  0.00  0.00    +0.348 C 
ATOM     14  C   UNL     1     -35.859  24.139   1.603  0.00  0.00    +0.051 C 
ATOM     15  C   UNL     1     -33.433  27.161   1.728  0.00  0.00    +0.033 C 
ATOM     16  C   UNL     1     -37.386  24.420   1.573  0.00  0.00    +0.030 C 
ATOM     17  C   UNL     1     -36.150  28.304   1.585  0.00  0.00    +0.152 C 
ATOM     18  C   UNL     1     -37.794  25.358   0.410  0.00  0.00    +0.069 C 
ATOM     19  C   UNL     1     -37.294  26.754   0.552  0.00  0.00    +0.126 C 
ATOM     20  C   UNL     1     -36.561  28.869   0.401  0.00  0.00    +0.041 C 
ATOM     21  C   UNL     1     -37.306  27.862  -0.270  0.00  0.00    +0.075 C 
ENDROOT
BRANCH  16  22
ATOM     22  C   UNL     1     -38.180  23.151   1.449  0.00  0.00    -0.044 C 
ATOM     23  C   UNL     1     -37.746  22.202   0.371  0.00  0.00    +0.026 C 
ATOM     24  C   UNL     1     -39.218  22.881   2.256  0.00  0.00    -0.009 C 
ENDBRANCH  16  22
BRANCH  21  26
ATOM     25  O   UNL     1     -39.139  27.968  -1.775  0.00  0.00    -0.283 OA
ATOM     26  C   UNL     1     -37.919  27.930  -1.565  0.00  0.00    +0.237 C 
ENDBRANCH  21  26
BRANCH  11  27
ATOM     27  O   UNL     1     -36.114  22.547   3.457  0.00  0.00    -0.449 OA
BRANCH  27  29
ATOM     28  O   UNL     1     -35.188  20.991   4.891  0.00  0.00    -0.250 OA
ATOM     29  C   UNL     1     -35.495  21.370   3.769  0.00  0.00    +0.318 C 
ATOM     30  C   UNL     1     -35.240  20.582   2.519  0.00  0.00    +0.121 C 
ENDBRANCH  27  29
ENDBRANCH  11  27
TORSDOF 4
ENDMDL
MODEL 4
REMARK VINA RESULT:      -5.7      8.033     11.118
REMARK  Name = 21574604
REMARK  4 active torsions:
REMARK  status: ('A' for Active; 'I' for Inactive)
REMARK    1  A    between atoms: C_11  and  O_27
REMARK    2  A    between atoms: C_16  and  C_22
REMARK    3  A    between atoms: C_21  and  C_26
REMARK    4  A    between atoms: O_27  and  C_29
REMARK                            x       y       z     vdW  Elec       q    Type
REMARK                         _______ _______ _______ _____ _____    ______ ____
ROOT
ATOM      1  O   UNL     1     -44.321  32.212   3.888  0.00  0.00    -0.338 OA
ATOM      2  O   UNL     1     -44.487  31.422   6.662  0.00  0.00    -0.448 OA
ATOM      3  O   UNL     1     -48.373  30.624   7.830  0.00  0.00    -0.348 OA
ATOM      4  O   UNL     1     -42.825  29.999   5.928  0.00  0.00    -0.247 OA
ATOM      5  O   UNL     1     -45.992  28.146   6.479  0.00  0.00    -0.459 OA
ATOM      6  C   UNL     1     -44.444  30.866   4.391  0.00  0.00    +0.246 C 
ATOM      7  C   UNL     1     -45.515  31.889   4.601  0.00  0.00    +0.194 C 
ATOM      8  C   UNL     1     -45.471  32.287   6.041  0.00  0.00    +0.201 C 
ATOM      9  C   UNL     1     -47.428  30.880   6.788  0.00  0.00    +0.129 C 
ATOM     10  C   UNL     1     -46.800  32.233   6.794  0.00  0.00    +0.076 C 
ATOM     11  C   UNL     1     -44.482  29.859   3.269  0.00  0.00    +0.207 C 
ATOM     12  C   UNL     1     -47.147  29.882   7.896  0.00  0.00    +0.196 C 
ATOM     13  C   UNL     1     -43.813  30.683   5.716  0.00  0.00    +0.348 C 
ATOM     14  C   UNL     1     -45.220  28.543   3.588  0.00  0.00    +0.051 C 
ATOM     15  C   UNL     1     -48.020  30.436   5.487  0.00  0.00    +0.033 C 
ATOM     16  C   UNL     1     -44.421  27.450   4.350  0.00  0.00    +0.030 C 
ATOM     17  C   UNL     1     -46.950  28.448   7.387  0.00  0.00    +0.152 C 
ATOM     18  C   UNL     1     -45.339  26.368   4.970  0.00  0.00    +0.069 C 
ATOM     19  C   UNL     1     -46.194  26.863   6.085  0.00  0.00    +0.126 C 
ATOM     20  C   UNL     1     -47.709  27.337   7.670  0.00  0.00    +0.041 C 
ATOM     21  C   UNL     1     -47.218  26.306   6.825  0.00  0.00    +0.075 C 
ENDROOT
BRANCH  16  22
ATOM     22  C   UNL     1     -43.429  26.764   3.454  0.00  0.00    -0.044 C 
ATOM     23  C   UNL     1     -42.011  26.728   3.941  0.00  0.00    +0.026 C 
ATOM     24  C   UNL     1     -43.792  26.215   2.285  0.00  0.00    -0.009 C 
ENDBRANCH  16  22
BRANCH  21  26
ATOM     25  O   UNL     1     -48.111  24.445   5.654  0.00  0.00    -0.283 OA
ATOM     26  C   UNL     1     -47.696  24.961   6.701  0.00  0.00    +0.237 C 
ENDBRANCH  21  26
BRANCH  11  27
ATOM     27  O   UNL     1     -43.151  29.625   2.822  0.00  0.00    -0.449 OA
BRANCH  27  29
ATOM     28  O   UNL     1     -41.776  30.370   1.123  0.00  0.00    -0.250 OA
ATOM     29  C   UNL     1     -42.873  30.035   1.549  0.00  0.00    +0.318 C 
ATOM     30  C   UNL     1     -44.124  30.018   0.724  0.00  0.00    +0.121 C 
ENDBRANCH  27  29
ENDBRANCH  11  27
TORSDOF 4
ENDMDL
MODEL 5
REMARK VINA RESULT:      -5.6      2.906      6.089
REMARK  Name = 21574604
REMARK  4 active torsions:
REMARK  status: ('A' for Active; 'I' for Inactive)
REMARK    1  A    between atoms: C_11  and  O_27
REMARK    2  A    between atoms: C_16  and  C_22
REMARK    3  A    between atoms: C_21  and  C_26
REMARK    4  A    between atoms: O_27  and  C_29
REMARK                            x       y       z     vdW  Elec       q    Type
REMARK                         _______ _______ _______ _____ _____    ______ ____
ROOT
ATOM      1  O   UNL     1     -38.372  19.840  -2.044  0.00  0.00    -0.338 OA
ATOM      2  O   UNL     1     -38.238  22.667  -1.455  0.00  0.00    -0.448 OA
ATOM      3  O   UNL     1     -40.369  23.657   1.948  0.00  0.00    -0.348 OA
ATOM      4  O   UNL     1     -35.995  22.197  -1.731  0.00  0.00    -0.247 OA
ATOM      5  O   UNL     1     -36.795  22.733   1.853  0.00  0.00    -0.459 OA
ATOM      6  C   UNL     1     -37.521  20.474  -1.066  0.00  0.00    +0.246 C 
ATOM      7  C   UNL     1     -39.013  20.505  -0.954  0.00  0.00    +0.194 C 
ATOM      8  C   UNL     1     -39.454  21.894  -1.284  0.00  0.00    +0.201 C 
ATOM      9  C   UNL     1     -39.804  22.657   1.096  0.00  0.00    +0.129 C 
ATOM     10  C   UNL     1     -40.387  22.561  -0.274  0.00  0.00    +0.076 C 
ATOM     11  C   UNL     1     -36.666  19.466  -0.343  0.00  0.00    +0.207 C 
ATOM     12  C   UNL     1     -39.016  23.880   1.526  0.00  0.00    +0.196 C 
ATOM     13  C   UNL     1     -37.130  21.850  -1.444  0.00  0.00    +0.348 C 
ATOM     14  C   UNL     1     -36.222  19.873   1.077  0.00  0.00    +0.051 C 
ATOM     15  C   UNL     1     -39.709  21.375   1.862  0.00  0.00    +0.033 C 
ATOM     16  C   UNL     1     -34.978  20.797   1.192  0.00  0.00    +0.030 C 
ATOM     17  C   UNL     1     -37.764  23.540   2.346  0.00  0.00    +0.152 C 
ATOM     18  C   UNL     1     -34.863  21.467   2.583  0.00  0.00    +0.069 C 
ATOM     19  C   UNL     1     -35.933  22.465   2.867  0.00  0.00    +0.126 C 
ATOM     20  C   UNL     1     -37.482  23.889   3.646  0.00  0.00    +0.041 C 
ATOM     21  C   UNL     1     -36.291  23.191   3.984  0.00  0.00    +0.075 C 
ENDROOT
BRANCH  16  22
ATOM     22  C   UNL     1     -33.704  20.045   0.930  0.00  0.00    -0.044 C 
ATOM     23  C   UNL     1     -32.731  20.699  -0.007  0.00  0.00    +0.026 C 
ATOM     24  C   UNL     1     -33.452  18.857   1.499  0.00  0.00    -0.009 C 
ENDBRANCH  16  22
BRANCH  21  26
ATOM     25  O   UNL     1     -35.969  22.568   6.252  0.00  0.00    -0.283 OA
ATOM     26  C   UNL     1     -35.599  23.180   5.240  0.00  0.00    +0.237 C 
ENDBRANCH  21  26
BRANCH  11  27
ATOM     27  O   UNL     1     -35.556  19.133  -1.169  0.00  0.00    -0.449 OA
BRANCH  27  29
ATOM     28  O   UNL     1     -36.317  16.966  -1.411  0.00  0.00    -0.250 OA
ATOM     29  C   UNL     1     -35.440  17.814  -1.505  0.00  0.00    +0.318 C 
ATOM     30  C   UNL     1     -34.060  17.540  -2.021  0.00  0.00    +0.121 C 
ENDBRANCH  27  29
ENDBRANCH  11  27
TORSDOF 4
ENDMDL
MODEL 6
REMARK VINA RESULT:      -5.6      1.936      6.598
REMARK  Name = 21574604
REMARK  4 active torsions:
REMARK  status: ('A' for Active; 'I' for Inactive)
REMARK    1  A    between atoms: C_11  and  O_27
REMARK    2  A    between atoms: C_16  and  C_22
REMARK    3  A    between atoms: C_21  and  C_26
REMARK    4  A    between atoms: O_27  and  C_29
REMARK                            x       y       z     vdW  Elec       q    Type
REMARK                         _______ _______ _______ _____ _____    ______ ____
ROOT
ATOM      1  O   UNL     1     -37.320  21.960   2.802  0.00  0.00    -0.338 OA
ATOM      2  O   UNL     1     -36.950  24.190   4.603  0.00  0.00    -0.448 OA
ATOM      3  O   UNL     1     -33.311  26.071   4.038  0.00  0.00    -0.348 OA
ATOM      4  O   UNL     1     -39.039  24.687   3.756  0.00  0.00    -0.247 OA
ATOM      5  O   UNL     1     -36.472  26.972   2.355  0.00  0.00    -0.459 OA
ATOM      6  C   UNL     1     -37.502  23.356   2.488  0.00  0.00    +0.246 C 
ATOM      7  C   UNL     1     -36.167  22.801   2.877  0.00  0.00    +0.194 C 
ATOM      8  C   UNL     1     -35.873  23.281   4.260  0.00  0.00    +0.201 C 
ATOM      9  C   UNL     1     -34.297  25.135   3.591  0.00  0.00    +0.129 C 
ATOM     10  C   UNL     1     -34.512  23.946   4.466  0.00  0.00    +0.076 C 
ATOM     11  C   UNL     1     -37.923  23.549   1.054  0.00  0.00    +0.207 C 
ATOM     12  C   UNL     1     -34.671  26.529   4.062  0.00  0.00    +0.196 C 
ATOM     13  C   UNL     1     -37.944  24.158   3.650  0.00  0.00    +0.348 C 
ATOM     14  C   UNL     1     -37.543  24.908   0.431  0.00  0.00    +0.051 C 
ATOM     15  C   UNL     1     -34.064  24.852   2.141  0.00  0.00    +0.033 C 
ATOM     16  C   UNL     1     -38.488  26.107   0.720  0.00  0.00    +0.030 C 
ATOM     17  C   UNL     1     -35.338  27.380   2.973  0.00  0.00    +0.152 C 
ATOM     18  C   UNL     1     -37.825  27.472   0.409  0.00  0.00    +0.069 C 
ATOM     19  C   UNL     1     -36.702  27.823   1.323  0.00  0.00    +0.126 C 
ATOM     20  C   UNL     1     -34.887  28.554   2.420  0.00  0.00    +0.041 C 
ATOM     21  C   UNL     1     -35.773  28.844   1.348  0.00  0.00    +0.075 C 
ENDROOT
BRANCH  16  22
ATOM     22  C   UNL     1     -39.759  26.014  -0.076  0.00  0.00    -0.044 C 
ATOM     23  C   UNL     1     -41.034  26.224   0.687  0.00  0.00    +0.026 C 
ATOM     24  C   UNL     1     -39.755  25.757  -1.392  0.00  0.00    -0.009 C 
ENDBRANCH  16  22
BRANCH  21  26
ATOM     25  O   UNL     1     -36.398  30.971   0.499  0.00  0.00    -0.283 OA
ATOM     26  C   UNL     1     -35.717  29.939   0.424  0.00  0.00    +0.237 C 
ENDBRANCH  21  26
BRANCH  11  27
ATOM     27  O   UNL     1     -39.319  23.291   0.950  0.00  0.00    -0.449 OA
BRANCH  27  29
ATOM     28  O   UNL     1     -40.305  21.209   1.126  0.00  0.00    -0.250 OA
ATOM     29  C   UNL     1     -39.660  22.045   0.506  0.00  0.00    +0.318 C 
ATOM     30  C   UNL     1     -39.127  21.835  -0.879  0.00  0.00    +0.121 C 
ENDBRANCH  27  29
ENDBRANCH  11  27
TORSDOF 4
ENDMDL
MODEL 7
REMARK VINA RESULT:      -5.6      2.387      5.379
REMARK  Name = 21574604
REMARK  4 active torsions:
REMARK  status: ('A' for Active; 'I' for Inactive)
REMARK    1  A    between atoms: C_11  and  O_27
REMARK    2  A    between atoms: C_16  and  C_22
REMARK    3  A    between atoms: C_21  and  C_26
REMARK    4  A    between atoms: O_27  and  C_29
REMARK                            x       y       z     vdW  Elec       q    Type
REMARK                         _______ _______ _______ _____ _____    ______ ____
ROOT
ATOM      1  O   UNL     1     -38.447  23.356  -1.960  0.00  0.00    -0.338 OA
ATOM      2  O   UNL     1     -37.279  25.601  -0.565  0.00  0.00    -0.448 OA
ATOM      3  O   UNL     1     -39.228  26.420   2.989  0.00  0.00    -0.348 OA
ATOM      4  O   UNL     1     -35.388  24.345  -0.978  0.00  0.00    -0.247 OA
ATOM      5  O   UNL     1     -36.324  24.171   2.609  0.00  0.00    -0.459 OA
ATOM      6  C   UNL     1     -37.536  23.293  -0.843  0.00  0.00    +0.246 C 
ATOM      7  C   UNL     1     -38.896  23.904  -0.720  0.00  0.00    +0.194 C 
ATOM      8  C   UNL     1     -38.711  25.383  -0.624  0.00  0.00    +0.201 C 
ATOM      9  C   UNL     1     -39.008  25.547   1.877  0.00  0.00    +0.129 C 
ATOM     10  C   UNL     1     -39.417  26.074   0.543  0.00  0.00    +0.076 C 
ATOM     11  C   UNL     1     -37.239  21.868  -0.453  0.00  0.00    +0.207 C 
ATOM     12  C   UNL     1     -37.857  26.171   2.645  0.00  0.00    +0.196 C 
ATOM     13  C   UNL     1     -36.592  24.432  -0.801  0.00  0.00    +0.348 C 
ATOM     14  C   UNL     1     -36.840  21.656   1.021  0.00  0.00    +0.051 C 
ATOM     15  C   UNL     1     -39.517  24.185   2.231  0.00  0.00    +0.033 C 
ATOM     16  C   UNL     1     -35.355  21.917   1.398  0.00  0.00    +0.030 C 
ATOM     17  C   UNL     1     -36.947  25.138   3.323  0.00  0.00    +0.152 C 
ATOM     18  C   UNL     1     -35.149  22.076   2.924  0.00  0.00    +0.069 C 
ATOM     19  C   UNL     1     -35.764  23.308   3.494  0.00  0.00    +0.126 C 
ATOM     20  C   UNL     1     -36.705  24.974   4.666  0.00  0.00    +0.041 C 
ATOM     21  C   UNL     1     -35.934  23.786   4.778  0.00  0.00    +0.075 C 
ENDROOT
BRANCH  16  22
ATOM     22  C   UNL     1     -34.460  20.809   0.919  0.00  0.00    -0.044 C 
ATOM     23  C   UNL     1     -33.257  21.226   0.126  0.00  0.00    +0.026 C 
ATOM     24  C   UNL     1     -34.723  19.521   1.185  0.00  0.00    -0.009 C 
ENDBRANCH  16  22
BRANCH  21  26
ATOM     25  O   UNL     1     -35.892  22.091   6.439  0.00  0.00    -0.283 OA
ATOM     26  C   UNL     1     -35.456  23.151   5.971  0.00  0.00    +0.237 C 
ENDBRANCH  21  26
BRANCH  11  27
ATOM     27  O   UNL     1     -36.261  21.345  -1.346  0.00  0.00    -0.449 OA
BRANCH  27  29
ATOM     28  O   UNL     1     -37.751  19.750  -2.104  0.00  0.00    -0.250 OA
ATOM     29  C   UNL     1     -36.622  20.216  -2.025  0.00  0.00    +0.318 C 
ATOM     30  C   UNL     1     -35.417  19.609  -2.679  0.00  0.00    +0.121 C 
ENDBRANCH  27  29
ENDBRANCH  11  27
TORSDOF 4
ENDMDL
MODEL 8
REMARK VINA RESULT:      -5.6      2.221      5.503
REMARK  Name = 21574604
REMARK  4 active torsions:
REMARK  status: ('A' for Active; 'I' for Inactive)
REMARK    1  A    between atoms: C_11  and  O_27
REMARK    2  A    between atoms: C_16  and  C_22
REMARK    3  A    between atoms: C_21  and  C_26
REMARK    4  A    between atoms: O_27  and  C_29
REMARK                            x       y       z     vdW  Elec       q    Type
REMARK                         _______ _______ _______ _____ _____    ______ ____
ROOT
ATOM      1  O   UNL     1     -36.039  20.114   2.411  0.00  0.00    -0.338 OA
ATOM      2  O   UNL     1     -35.662  21.322  -0.187  0.00  0.00    -0.448 OA
ATOM      3  O   UNL     1     -39.254  22.184  -2.047  0.00  0.00    -0.348 OA
ATOM      4  O   UNL     1     -34.282  22.659   1.092  0.00  0.00    -0.247 OA
ATOM      5  O   UNL     1     -37.368  24.486   0.140  0.00  0.00    -0.459 OA
ATOM      6  C   UNL     1     -36.135  21.518   2.095  0.00  0.00    +0.246 C 
ATOM      7  C   UNL     1     -37.073  20.511   1.508  0.00  0.00    +0.194 C 
ATOM      8  C   UNL     1     -36.701  20.343   0.071  0.00  0.00    +0.201 C 
ATOM      9  C   UNL     1     -38.537  21.795  -0.872  0.00  0.00    +0.129 C 
ATOM     10  C   UNL     1     -37.840  20.478  -0.939  0.00  0.00    +0.076 C 
ATOM     11  C   UNL     1     -36.471  22.337   3.316  0.00  0.00    +0.207 C 
ATOM     12  C   UNL     1     -38.089  22.961  -1.733  0.00  0.00    +0.196 C 
ATOM     13  C   UNL     1     -35.250  21.923   0.981  0.00  0.00    +0.348 C 
ATOM     14  C   UNL     1     -37.203  23.665   3.039  0.00  0.00    +0.051 C 
ATOM     15  C   UNL     1     -39.417  22.015   0.319  0.00  0.00    +0.033 C 
ATOM     16  C   UNL     1     -36.329  24.885   2.639  0.00  0.00    +0.030 C 
ATOM     17  C   UNL     1     -38.092  24.303  -0.990  0.00  0.00    +0.152 C 
ATOM     18  C   UNL     1     -37.159  26.025   1.998  0.00  0.00    +0.069 C 
ATOM     19  C   UNL     1     -37.727  25.686   0.663  0.00  0.00    +0.126 C 
ATOM     20  C   UNL     1     -38.841  25.423  -1.266  0.00  0.00    +0.041 C 
ATOM     21  C   UNL     1     -38.603  26.323  -0.193  0.00  0.00    +0.075 C 
ENDROOT
BRANCH  16  22
ATOM     22  C   UNL     1     -35.593  25.451   3.820  0.00  0.00    -0.044 C 
ATOM     23  C   UNL     1     -34.105  25.575   3.676  0.00  0.00    +0.026 C 
ATOM     24  C   UNL     1     -36.231  25.823   4.941  0.00  0.00    -0.009 C 
ENDBRANCH  16  22
BRANCH  21  26
ATOM     25  O   UNL     1     -40.134  27.861   0.768  0.00  0.00    -0.283 OA
ATOM     26  C   UNL     1     -39.178  27.619   0.019  0.00  0.00    +0.237 C 
ENDBRANCH  21  26
BRANCH  11  27
ATOM     27  O   UNL     1     -35.282  22.535   4.073  0.00  0.00    -0.449 OA
BRANCH  27  29
ATOM     28  O   UNL     1     -35.010  20.612   5.323  0.00  0.00    -0.250 OA
ATOM     29  C   UNL     1     -35.190  21.819   5.232  0.00  0.00    +0.318 C 
ATOM     30  C   UNL     1     -35.342  22.734   6.409  0.00  0.00    +0.121 C 
ENDBRANCH  27  29
ENDBRANCH  11  27
TORSDOF 4
ENDMDL
MODEL 9
REMARK VINA RESULT:      -5.5      2.763      4.261
REMARK  Name = 21574604
REMARK  4 active torsions:
REMARK  status: ('A' for Active; 'I' for Inactive)
REMARK    1  A    between atoms: C_11  and  O_27
REMARK    2  A    between atoms: C_16  and  C_22
REMARK    3  A    between atoms: C_21  and  C_26
REMARK    4  A    between atoms: O_27  and  C_29
REMARK                            x       y       z     vdW  Elec       q    Type
REMARK                         _______ _______ _______ _____ _____    ______ ____
ROOT
ATOM      1  O   UNL     1     -34.407  28.098   3.659  0.00  0.00    -0.338 OA
ATOM      2  O   UNL     1     -33.332  25.583   4.593  0.00  0.00    -0.448 OA
ATOM      3  O   UNL     1     -36.303  22.864   5.532  0.00  0.00    -0.348 OA
ATOM      4  O   UNL     1     -32.114  25.856   2.652  0.00  0.00    -0.247 OA
ATOM      5  O   UNL     1     -34.677  23.205   2.234  0.00  0.00    -0.459 OA
ATOM      6  C   UNL     1     -34.264  26.887   2.889  0.00  0.00    +0.246 C 
ATOM      7  C   UNL     1     -35.165  26.962   4.081  0.00  0.00    +0.194 C 
ATOM      8  C   UNL     1     -34.511  26.189   5.180  0.00  0.00    +0.201 C 
ATOM      9  C   UNL     1     -35.912  24.104   4.936  0.00  0.00    +0.129 C 
ATOM     10  C   UNL     1     -35.379  25.138   5.871  0.00  0.00    +0.076 C 
ATOM     11  C   UNL     1     -34.757  27.070   1.476  0.00  0.00    +0.207 C 
ATOM     12  C   UNL     1     -35.150  22.817   4.679  0.00  0.00    +0.196 C 
ATOM     13  C   UNL     1     -33.115  26.059   3.320  0.00  0.00    +0.348 C 
ATOM     14  C   UNL     1     -35.247  25.786   0.776  0.00  0.00    +0.051 C 
ATOM     15  C   UNL     1     -36.997  24.551   4.008  0.00  0.00    +0.033 C 
ATOM     16  C   UNL     1     -34.166  24.876   0.129  0.00  0.00    +0.030 C 
ATOM     17  C   UNL     1     -35.154  22.391   3.205  0.00  0.00    +0.152 C 
ATOM     18  C   UNL     1     -34.694  23.453  -0.175  0.00  0.00    +0.069 C 
ATOM     19  C   UNL     1     -34.995  22.644   1.040  0.00  0.00    +0.126 C 
ATOM     20  C   UNL     1     -35.685  21.249   2.655  0.00  0.00    +0.041 C 
ATOM     21  C   UNL     1     -35.581  21.412   1.247  0.00  0.00    +0.075 C 
ENDROOT
BRANCH  16  22
ATOM     22  C   UNL     1     -33.644  25.463  -1.152  0.00  0.00    -0.044 C 
ATOM     23  C   UNL     1     -32.151  25.563  -1.273  0.00  0.00    +0.026 C 
ATOM     24  C   UNL     1     -34.464  25.875  -2.130  0.00  0.00    -0.009 C 
ENDBRANCH  16  22
BRANCH  21  26
ATOM     25  O   UNL     1     -36.491  19.387   0.407  0.00  0.00    -0.283 OA
ATOM     26  C   UNL     1     -36.028  20.520   0.218  0.00  0.00    +0.237 C 
ENDBRANCH  21  26
BRANCH  11  27
ATOM     27  O   UNL     1     -33.746  27.730   0.723  0.00  0.00    -0.449 OA
BRANCH  27  29
ATOM     28  O   UNL     1     -34.986  29.675   0.591  0.00  0.00    -0.250 OA
ATOM     29  C   UNL     1     -34.099  28.936   0.186  0.00  0.00    +0.318 C 
ATOM     30  C   UNL     1     -33.229  29.240  -0.997  0.00  0.00    +0.121 C 
ENDBRANCH  27  29
ENDBRANCH  11  27
TORSDOF 4
ENDMDL
