MODEL 1
REMARK VINA RESULT:      -6.5      0.000      0.000
REMARK  Name = 193072
REMARK  8 active torsions:
REMARK  status: ('A' for Active; 'I' for Inactive)
REMARK    1  A    between atoms: O_1  and  C_3
REMARK    2  A    between atoms: O_1  and  C_14
REMARK    3  A    between atoms: C_3  and  C_4
REMARK    4  A    between atoms: C_4  and  O_5
REMARK    5  A    between atoms: O_5  and  C_8
REMARK    6  A    between atoms: C_14  and  C_15
REMARK    7  A    between atoms: C_18  and  N_23
REMARK    8  A    between atoms: C_19  and  O_24
REMARK                            x       y       z     vdW  Elec       q    Type
REMARK                         _______ _______ _______ _____ _____    ______ ____
ROOT
ATOM      1  O   UNL     1     -35.043  26.690   4.078  0.00  0.00    -0.441 OA
ENDROOT
BRANCH   1   3
ATOM      2  O   UNL     1     -35.520  27.891   2.166  0.00  0.00    -0.246 OA
ATOM      3  C   UNL     1     -34.763  27.577   3.074  0.00  0.00    +0.362 C 
BRANCH   3   4
ATOM      4  C   UNL     1     -33.366  28.110   3.257  0.00  0.00    +0.314 C 
BRANCH   4   5
ATOM      5  O   UNL     1     -33.358  29.002   4.354  0.00  0.00    -0.463 OA
BRANCH   5   8
ATOM      6 CL   UNL     1     -32.653  27.277   6.713  0.00  0.00    -0.079 Cl
ATOM      7 CL   UNL     1     -28.144  30.223   6.769  0.00  0.00    -0.082 Cl
ATOM      8  C   UNL     1     -32.141  29.270   4.933  0.00  0.00    +0.150 C 
ATOM      9  C   UNL     1     -31.700  28.543   6.031  0.00  0.00    +0.092 C 
ATOM     10  C   UNL     1     -31.363  30.287   4.395  0.00  0.00    +0.039 C 
ATOM     11  C   UNL     1     -30.461  28.838   6.600  0.00  0.00    +0.026 C 
ATOM     12  C   UNL     1     -30.124  30.582   4.964  0.00  0.00    +0.015 C 
ATOM     13  C   UNL     1     -29.672  29.857   6.066  0.00  0.00    +0.059 C 
ENDBRANCH   5   8
ENDBRANCH   4   5
ENDBRANCH   3   4
ENDBRANCH   1   3
BRANCH   1  14
ATOM     14  C   UNL     1     -36.203  25.887   3.891  0.00  0.00    +0.235 C 
BRANCH  14  15
ATOM     15  C   UNL     1     -35.912  24.488   4.316  0.00  0.00    +0.023 C 
ATOM     16  C   UNL     1     -36.035  23.441   3.403  0.00  0.00    +0.027 C 
ATOM     17  C   UNL     1     -35.516  24.226   5.628  0.00  0.00    +0.003 C 
ATOM     18  C   UNL     1     -35.763  22.133   3.802  0.00  0.00    +0.176 C 
ATOM     19  C   UNL     1     -35.367  21.870   5.113  0.00  0.00    +0.156 C 
ATOM     20  C   UNL     1     -35.243  22.918   6.026  0.00  0.00    +0.038 C 
BRANCH  18  23
ATOM     21  O   UNL     1     -36.903  21.053   2.112  0.00  0.00    -0.126 OA
ATOM     22  O   UNL     1     -35.000  20.201   2.798  0.00  0.00    -0.126 OA
ATOM     23  N   UNL     1     -35.895  21.077   2.857  0.00  0.00    +0.061 N 
ENDBRANCH  18  23
BRANCH  19  24
ATOM     24  O   UNL     1     -35.096  20.600   5.527  0.00  0.00    -0.504 OA
ATOM     25  H   UNL     1     -35.092  19.896   4.907  0.00  0.00    +0.292 HD
ENDBRANCH  19  24
ENDBRANCH  14  15
ENDBRANCH   1  14
TORSDOF 8
ENDMDL
MODEL 2
REMARK VINA RESULT:      -6.5      4.111      6.529
REMARK  Name = 193072
REMARK  8 active torsions:
REMARK  status: ('A' for Active; 'I' for Inactive)
REMARK    1  A    between atoms: O_1  and  C_3
REMARK    2  A    between atoms: O_1  and  C_14
REMARK    3  A    between atoms: C_3  and  C_4
REMARK    4  A    between atoms: C_4  and  O_5
REMARK    5  A    between atoms: O_5  and  C_8
REMARK    6  A    between atoms: C_14  and  C_15
REMARK    7  A    between atoms: C_18  and  N_23
REMARK    8  A    between atoms: C_19  and  O_24
REMARK                            x       y       z     vdW  Elec       q    Type
REMARK                         _______ _______ _______ _____ _____    ______ ____
ROOT
ATOM      1  O   UNL     1     -35.734  21.452   1.961  0.00  0.00    -0.441 OA
ENDROOT
BRANCH   1   3
ATOM      2  O   UNL     1     -37.954  20.975   1.548  0.00  0.00    -0.246 OA
ATOM      3  C   UNL     1     -37.070  21.744   1.899  0.00  0.00    +0.362 C 
BRANCH   3   4
ATOM      4  C   UNL     1     -37.289  23.170   2.332  0.00  0.00    +0.314 C 
BRANCH   4   5
ATOM      5  O   UNL     1     -37.349  23.215   3.743  0.00  0.00    -0.463 OA
BRANCH   5   8
ATOM      6 CL   UNL     1     -35.206  21.699   5.209  0.00  0.00    -0.079 Cl
ATOM      7 CL   UNL     1     -33.405  26.618   6.458  0.00  0.00    -0.082 Cl
ATOM      8  C   UNL     1     -36.414  23.992   4.385  0.00  0.00    +0.150 C 
ATOM      9  C   UNL     1     -35.374  23.412   5.098  0.00  0.00    +0.092 C 
ATOM     10  C   UNL     1     -36.537  25.374   4.304  0.00  0.00    +0.039 C 
ATOM     11  C   UNL     1     -34.440  24.225   5.740  0.00  0.00    +0.026 C 
ATOM     12  C   UNL     1     -35.604  26.187   4.947  0.00  0.00    +0.015 C 
ATOM     13  C   UNL     1     -34.555  25.614   5.664  0.00  0.00    +0.059 C 
ENDBRANCH   5   8
ENDBRANCH   4   5
ENDBRANCH   3   4
ENDBRANCH   1   3
BRANCH   1  14
ATOM     14  C   UNL     1     -35.392  20.079   1.818  0.00  0.00    +0.235 C 
BRANCH  14  15
ATOM     15  C   UNL     1     -34.038  19.967   1.204  0.00  0.00    +0.023 C 
ATOM     16  C   UNL     1     -33.285  18.806   1.384  0.00  0.00    +0.027 C 
ATOM     17  C   UNL     1     -33.524  21.021   0.450  0.00  0.00    +0.003 C 
ATOM     18  C   UNL     1     -32.018  18.702   0.810  0.00  0.00    +0.176 C 
ATOM     19  C   UNL     1     -31.504  19.757   0.056  0.00  0.00    +0.156 C 
ATOM     20  C   UNL     1     -32.258  20.916  -0.124  0.00  0.00    +0.038 C 
BRANCH  18  23
ATOM     21  O   UNL     1     -31.759  16.416   0.652  0.00  0.00    -0.126 OA
ATOM     22  O   UNL     1     -30.124  17.594   1.522  0.00  0.00    -0.126 OA
ATOM     23  N   UNL     1     -31.263  17.512   1.004  0.00  0.00    +0.061 N 
ENDBRANCH  18  23
BRANCH  19  24
ATOM     24  O   UNL     1     -30.269  19.679  -0.515  0.00  0.00    -0.504 OA
ATOM     25  H   UNL     1     -29.716  18.942  -0.338  0.00  0.00    +0.292 HD
ENDBRANCH  19  24
ENDBRANCH  14  15
ENDBRANCH   1  14
TORSDOF 8
ENDMDL
MODEL 3
REMARK VINA RESULT:      -6.4      1.789      2.228
REMARK  Name = 193072
REMARK  8 active torsions:
REMARK  status: ('A' for Active; 'I' for Inactive)
REMARK    1  A    between atoms: O_1  and  C_3
REMARK    2  A    between atoms: O_1  and  C_14
REMARK    3  A    between atoms: C_3  and  C_4
REMARK    4  A    between atoms: C_4  and  O_5
REMARK    5  A    between atoms: O_5  and  C_8
REMARK    6  A    between atoms: C_14  and  C_15
REMARK    7  A    between atoms: C_18  and  N_23
REMARK    8  A    between atoms: C_19  and  O_24
REMARK                            x       y       z     vdW  Elec       q    Type
REMARK                         _______ _______ _______ _____ _____    ______ ____
ROOT
ATOM      1  O   UNL     1     -34.773  26.837   4.605  0.00  0.00    -0.441 OA
ENDROOT
BRANCH   1   3
ATOM      2  O   UNL     1     -32.569  26.551   3.982  0.00  0.00    -0.246 OA
ATOM      3  C   UNL     1     -33.636  27.144   3.906  0.00  0.00    +0.362 C 
BRANCH   3   4
ATOM      4  C   UNL     1     -33.901  28.335   3.023  0.00  0.00    +0.314 C 
BRANCH   4   5
ATOM      5  O   UNL     1     -34.087  29.475   3.838  0.00  0.00    -0.463 OA
BRANCH   5   8
ATOM      6 CL   UNL     1     -31.920  29.532   5.921  0.00  0.00    -0.079 Cl
ATOM      7 CL   UNL     1     -30.234  33.863   3.200  0.00  0.00    -0.082 Cl
ATOM      8  C   UNL     1     -33.173  30.493   3.707  0.00  0.00    +0.150 C 
ATOM      9  C   UNL     1     -32.124  30.630   4.606  0.00  0.00    +0.092 C 
ATOM     10  C   UNL     1     -33.326  31.385   2.652  0.00  0.00    +0.039 C 
ATOM     11  C   UNL     1     -31.212  31.674   4.449  0.00  0.00    +0.026 C 
ATOM     12  C   UNL     1     -32.415  32.430   2.495  0.00  0.00    +0.015 C 
ATOM     13  C   UNL     1     -31.358  32.574   3.393  0.00  0.00    +0.059 C 
ENDBRANCH   5   8
ENDBRANCH   4   5
ENDBRANCH   3   4
ENDBRANCH   1   3
BRANCH   1  14
ATOM     14  C   UNL     1     -35.733  26.049   3.912  0.00  0.00    +0.235 C 
BRANCH  14  15
ATOM     15  C   UNL     1     -35.611  24.627   4.344  0.00  0.00    +0.023 C 
ATOM     16  C   UNL     1     -35.786  23.599   3.417  0.00  0.00    +0.027 C 
ATOM     17  C   UNL     1     -35.322  24.324   5.674  0.00  0.00    +0.003 C 
ATOM     18  C   UNL     1     -35.673  22.269   3.822  0.00  0.00    +0.176 C 
ATOM     19  C   UNL     1     -35.384  21.966   5.152  0.00  0.00    +0.156 C 
ATOM     20  C   UNL     1     -35.208  22.994   6.078  0.00  0.00    +0.038 C 
BRANCH  18  23
ATOM     21  O   UNL     1     -36.799  21.327   2.043  0.00  0.00    -0.126 OA
ATOM     22  O   UNL     1     -35.068  20.258   2.868  0.00  0.00    -0.126 OA
ATOM     23  N   UNL     1     -35.855  21.233   2.864  0.00  0.00    +0.061 N 
ENDBRANCH  18  23
BRANCH  19  24
ATOM     24  O   UNL     1     -35.268  20.675   5.572  0.00  0.00    -0.504 OA
ATOM     25  H   UNL     1     -35.000  20.008   4.969  0.00  0.00    +0.292 HD
ENDBRANCH  19  24
ENDBRANCH  14  15
ENDBRANCH   1  14
TORSDOF 8
ENDMDL
MODEL 4
REMARK VINA RESULT:      -6.2      3.161      4.473
REMARK  Name = 193072
REMARK  8 active torsions:
REMARK  status: ('A' for Active; 'I' for Inactive)
REMARK    1  A    between atoms: O_1  and  C_3
REMARK    2  A    between atoms: O_1  and  C_14
REMARK    3  A    between atoms: C_3  and  C_4
REMARK    4  A    between atoms: C_4  and  O_5
REMARK    5  A    between atoms: O_5  and  C_8
REMARK    6  A    between atoms: C_14  and  C_15
REMARK    7  A    between atoms: C_18  and  N_23
REMARK    8  A    between atoms: C_19  and  O_24
REMARK                            x       y       z     vdW  Elec       q    Type
REMARK                         _______ _______ _______ _____ _____    ______ ____
ROOT
ATOM      1  O   UNL     1     -33.018  26.429   5.138  0.00  0.00    -0.441 OA
ENDROOT
BRANCH   1   3
ATOM      2  O   UNL     1     -32.393  28.518   5.894  0.00  0.00    -0.246 OA
ATOM      3  C   UNL     1     -32.796  27.774   5.011  0.00  0.00    +0.362 C 
BRANCH   3   4
ATOM      4  C   UNL     1     -33.129  28.203   3.606  0.00  0.00    +0.314 C 
BRANCH   4   5
ATOM      5  O   UNL     1     -34.498  28.551   3.548  0.00  0.00    -0.463 OA
BRANCH   5   8
ATOM      6 CL   UNL     1     -36.607  28.070   1.460  0.00  0.00    -0.079 Cl
ATOM      7 CL   UNL     1     -35.860  33.287   0.350  0.00  0.00    -0.082 Cl
ATOM      8  C   UNL     1     -34.833  29.647   2.788  0.00  0.00    +0.150 C 
ATOM      9  C   UNL     1     -35.794  29.555   1.790  0.00  0.00    +0.092 C 
ATOM     10  C   UNL     1     -34.186  30.850   3.044  0.00  0.00    +0.039 C 
ATOM     11  C   UNL     1     -36.113  30.683   1.034  0.00  0.00    +0.026 C 
ATOM     12  C   UNL     1     -34.504  31.977   2.287  0.00  0.00    +0.015 C 
ATOM     13  C   UNL     1     -35.468  31.895   1.283  0.00  0.00    +0.059 C 
ENDBRANCH   5   8
ENDBRANCH   4   5
ENDBRANCH   3   4
ENDBRANCH   1   3
BRANCH   1  14
ATOM     14  C   UNL     1     -34.078  26.056   6.010  0.00  0.00    +0.235 C 
BRANCH  14  15
ATOM     15  C   UNL     1     -35.001  25.127   5.299  0.00  0.00    +0.023 C 
ATOM     16  C   UNL     1     -34.755  23.753   5.312  0.00  0.00    +0.027 C 
ATOM     17  C   UNL     1     -36.111  25.629   4.620  0.00  0.00    +0.003 C 
ATOM     18  C   UNL     1     -35.619  22.885   4.646  0.00  0.00    +0.176 C 
ATOM     19  C   UNL     1     -36.729  23.387   3.967  0.00  0.00    +0.156 C 
ATOM     20  C   UNL     1     -36.975  24.760   3.955  0.00  0.00    +0.038 C 
BRANCH  18  23
ATOM     21  O   UNL     1     -35.159  20.925   5.772  0.00  0.00    -0.126 OA
ATOM     22  O   UNL     1     -35.320  20.859   3.585  0.00  0.00    -0.126 OA
ATOM     23  N   UNL     1     -35.353  21.487   4.668  0.00  0.00    +0.061 N 
ENDBRANCH  18  23
BRANCH  19  24
ATOM     24  O   UNL     1     -37.588  22.558   3.308  0.00  0.00    -0.504 OA
ATOM     25  H   UNL     1     -37.633  21.651   3.540  0.00  0.00    +0.292 HD
ENDBRANCH  19  24
ENDBRANCH  14  15
ENDBRANCH   1  14
TORSDOF 8
ENDMDL
MODEL 5
REMARK VINA RESULT:      -6.2      3.154      4.390
REMARK  Name = 193072
REMARK  8 active torsions:
REMARK  status: ('A' for Active; 'I' for Inactive)
REMARK    1  A    between atoms: O_1  and  C_3
REMARK    2  A    between atoms: O_1  and  C_14
REMARK    3  A    between atoms: C_3  and  C_4
REMARK    4  A    between atoms: C_4  and  O_5
REMARK    5  A    between atoms: O_5  and  C_8
REMARK    6  A    between atoms: C_14  and  C_15
REMARK    7  A    between atoms: C_18  and  N_23
REMARK    8  A    between atoms: C_19  and  O_24
REMARK                            x       y       z     vdW  Elec       q    Type
REMARK                         _______ _______ _______ _____ _____    ______ ____
ROOT
ATOM      1  O   UNL     1     -33.938  27.288   4.915  0.00  0.00    -0.441 OA
ENDROOT
BRANCH   1   3
ATOM      2  O   UNL     1     -31.755  27.520   5.627  0.00  0.00    -0.246 OA
ATOM      3  C   UNL     1     -32.683  27.835   4.896  0.00  0.00    +0.362 C 
BRANCH   3   4
ATOM      4  C   UNL     1     -32.619  28.896   3.828  0.00  0.00    +0.314 C 
BRANCH   4   5
ATOM      5  O   UNL     1     -33.237  30.070   4.314  0.00  0.00    -0.463 OA
BRANCH   5   8
ATOM      6 CL   UNL     1     -31.561  32.258   3.113  0.00  0.00    -0.079 Cl
ATOM      7 CL   UNL     1     -36.070  33.417   0.405  0.00  0.00    -0.082 Cl
ATOM      8  C   UNL     1     -33.880  30.865   3.395  0.00  0.00    +0.150 C 
ATOM      9  C   UNL     1     -33.215  31.911   2.769  0.00  0.00    +0.092 C 
ATOM     10  C   UNL     1     -35.213  30.597   3.109  0.00  0.00    +0.039 C 
ATOM     11  C   UNL     1     -33.893  32.702   1.842  0.00  0.00    +0.026 C 
ATOM     12  C   UNL     1     -35.891  31.388   2.182  0.00  0.00    +0.015 C 
ATOM     13  C   UNL     1     -35.232  32.440   1.548  0.00  0.00    +0.059 C 
ENDBRANCH   5   8
ENDBRANCH   4   5
ENDBRANCH   3   4
ENDBRANCH   1   3
BRANCH   1  14
ATOM     14  C   UNL     1     -34.105  26.150   5.753  0.00  0.00    +0.235 C 
BRANCH  14  15
ATOM     15  C   UNL     1     -35.018  25.176   5.089  0.00  0.00    +0.023 C 
ATOM     16  C   UNL     1     -34.759  23.808   5.172  0.00  0.00    +0.027 C 
ATOM     17  C   UNL     1     -36.132  25.633   4.385  0.00  0.00    +0.003 C 
ATOM     18  C   UNL     1     -35.614  22.898   4.551  0.00  0.00    +0.176 C 
ATOM     19  C   UNL     1     -36.728  23.355   3.847  0.00  0.00    +0.156 C 
ATOM     20  C   UNL     1     -36.987  24.723   3.764  0.00  0.00    +0.038 C 
BRANCH  18  23
ATOM     21  O   UNL     1     -35.118  21.007   5.775  0.00  0.00    -0.126 OA
ATOM     22  O   UNL     1     -35.313  20.820   3.597  0.00  0.00    -0.126 OA
ATOM     23  N   UNL     1     -35.335  21.506   4.645  0.00  0.00    +0.061 N 
ENDBRANCH  18  23
BRANCH  19  24
ATOM     24  O   UNL     1     -37.578  22.485   3.231  0.00  0.00    -0.504 OA
ATOM     25  H   UNL     1     -38.377  22.233   3.652  0.00  0.00    +0.292 HD
ENDBRANCH  19  24
ENDBRANCH  14  15
ENDBRANCH   1  14
TORSDOF 8
ENDMDL
MODEL 6
REMARK VINA RESULT:      -6.2      5.080      7.977
REMARK  Name = 193072
REMARK  8 active torsions:
REMARK  status: ('A' for Active; 'I' for Inactive)
REMARK    1  A    between atoms: O_1  and  C_3
REMARK    2  A    between atoms: O_1  and  C_14
REMARK    3  A    between atoms: C_3  and  C_4
REMARK    4  A    between atoms: C_4  and  O_5
REMARK    5  A    between atoms: O_5  and  C_8
REMARK    6  A    between atoms: C_14  and  C_15
REMARK    7  A    between atoms: C_18  and  N_23
REMARK    8  A    between atoms: C_19  and  O_24
REMARK                            x       y       z     vdW  Elec       q    Type
REMARK                         _______ _______ _______ _____ _____    ______ ____
ROOT
ATOM      1  O   UNL     1     -36.393  25.865   2.401  0.00  0.00    -0.441 OA
ENDROOT
BRANCH   1   3
ATOM      2  O   UNL     1     -37.505  27.714   1.582  0.00  0.00    -0.246 OA
ATOM      3  C   UNL     1     -37.499  26.565   2.000  0.00  0.00    +0.362 C 
BRANCH   3   4
ATOM      4  C   UNL     1     -38.721  25.697   2.155  0.00  0.00    +0.314 C 
BRANCH   4   5
ATOM      5  O   UNL     1     -39.766  26.474   2.704  0.00  0.00    -0.463 OA
BRANCH   5   8
ATOM      6 CL   UNL     1     -41.941  27.912   4.201  0.00  0.00    -0.079 Cl
ATOM      7 CL   UNL     1     -45.212  25.016   1.051  0.00  0.00    -0.082 Cl
ATOM      8  C   UNL     1     -41.049  26.149   2.332  0.00  0.00    +0.150 C 
ATOM      9  C   UNL     1     -42.142  26.743   2.948  0.00  0.00    +0.092 C 
ATOM     10  C   UNL     1     -41.225  25.209   1.324  0.00  0.00    +0.039 C 
ATOM     11  C   UNL     1     -43.432  26.393   2.551  0.00  0.00    +0.026 C 
ATOM     12  C   UNL     1     -42.516  24.858   0.928  0.00  0.00    +0.015 C 
ATOM     13  C   UNL     1     -43.619  25.450   1.540  0.00  0.00    +0.059 C 
ENDBRANCH   5   8
ENDBRANCH   4   5
ENDBRANCH   3   4
ENDBRANCH   1   3
BRANCH   1  14
ATOM     14  C   UNL     1     -36.131  25.871   3.799  0.00  0.00    +0.235 C 
BRANCH  14  15
ATOM     15  C   UNL     1     -35.873  24.476   4.260  0.00  0.00    +0.023 C 
ATOM     16  C   UNL     1     -35.978  23.414   3.362  0.00  0.00    +0.027 C 
ATOM     17  C   UNL     1     -35.528  24.233   5.590  0.00  0.00    +0.003 C 
ATOM     18  C   UNL     1     -35.737  22.110   3.795  0.00  0.00    +0.176 C 
ATOM     19  C   UNL     1     -35.392  21.867   5.124  0.00  0.00    +0.156 C 
ATOM     20  C   UNL     1     -35.287  22.930   6.021  0.00  0.00    +0.038 C 
BRANCH  18  23
ATOM     21  O   UNL     1     -36.871  20.968   2.142  0.00  0.00    -0.126 OA
ATOM     22  O   UNL     1     -34.925  20.195   2.798  0.00  0.00    -0.126 OA
ATOM     23  N   UNL     1     -35.850  21.038   2.866  0.00  0.00    +0.061 N 
ENDBRANCH  18  23
BRANCH  19  24
ATOM     24  O   UNL     1     -35.152  20.602   5.570  0.00  0.00    -0.504 OA
ATOM     25  H   UNL     1     -35.347  19.866   5.022  0.00  0.00    +0.292 HD
ENDBRANCH  19  24
ENDBRANCH  14  15
ENDBRANCH   1  14
TORSDOF 8
ENDMDL
MODEL 7
REMARK VINA RESULT:      -6.2      2.999      3.944
REMARK  Name = 193072
REMARK  8 active torsions:
REMARK  status: ('A' for Active; 'I' for Inactive)
REMARK    1  A    between atoms: O_1  and  C_3
REMARK    2  A    between atoms: O_1  and  C_14
REMARK    3  A    between atoms: C_3  and  C_4
REMARK    4  A    between atoms: C_4  and  O_5
REMARK    5  A    between atoms: O_5  and  C_8
REMARK    6  A    between atoms: C_14  and  C_15
REMARK    7  A    between atoms: C_18  and  N_23
REMARK    8  A    between atoms: C_19  and  O_24
REMARK                            x       y       z     vdW  Elec       q    Type
REMARK                         _______ _______ _______ _____ _____    ______ ____
ROOT
ATOM      1  O   UNL     1     -33.681  26.253   3.573  0.00  0.00    -0.441 OA
ENDROOT
BRANCH   1   3
ATOM      2  O   UNL     1     -33.244  27.366   5.547  0.00  0.00    -0.246 OA
ATOM      3  C   UNL     1     -33.324  27.338   4.327  0.00  0.00    +0.362 C 
BRANCH   3   4
ATOM      4  C   UNL     1     -33.045  28.506   3.417  0.00  0.00    +0.314 C 
BRANCH   4   5
ATOM      5  O   UNL     1     -33.496  29.690   4.043  0.00  0.00    -0.463 OA
BRANCH   5   8
ATOM      6 CL   UNL     1     -31.685  31.980   3.324  0.00  0.00    -0.079 Cl
ATOM      7 CL   UNL     1     -35.978  33.747   0.594  0.00  0.00    -0.082 Cl
ATOM      8  C   UNL     1     -34.056  30.651   3.235  0.00  0.00    +0.150 C 
ATOM      9  C   UNL     1     -33.323  31.759   2.833  0.00  0.00    +0.092 C 
ATOM     10  C   UNL     1     -35.376  30.486   2.832  0.00  0.00    +0.039 C 
ATOM     11  C   UNL     1     -33.918  32.719   2.013  0.00  0.00    +0.026 C 
ATOM     12  C   UNL     1     -35.971  31.446   2.014  0.00  0.00    +0.015 C 
ATOM     13  C   UNL     1     -35.243  32.562   1.604  0.00  0.00    +0.059 C 
ENDBRANCH   5   8
ENDBRANCH   4   5
ENDBRANCH   3   4
ENDBRANCH   1   3
BRANCH   1  14
ATOM     14  C   UNL     1     -35.051  25.876   3.640  0.00  0.00    +0.235 C 
BRANCH  14  15
ATOM     15  C   UNL     1     -35.157  24.486   4.170  0.00  0.00    +0.023 C 
ATOM     16  C   UNL     1     -35.423  23.426   3.302  0.00  0.00    +0.027 C 
ATOM     17  C   UNL     1     -34.990  24.245   5.534  0.00  0.00    +0.003 C 
ATOM     18  C   UNL     1     -35.522  22.127   3.799  0.00  0.00    +0.176 C 
ATOM     19  C   UNL     1     -35.355  21.886   5.163  0.00  0.00    +0.156 C 
ATOM     20  C   UNL     1     -35.089  22.945   6.030  0.00  0.00    +0.038 C 
BRANCH  18  23
ATOM     21  O   UNL     1     -36.819  21.119   2.180  0.00  0.00    -0.126 OA
ATOM     22  O   UNL     1     -35.003  20.088   2.854  0.00  0.00    -0.126 OA
ATOM     23  N   UNL     1     -35.795  21.058   2.900  0.00  0.00    +0.061 N 
ENDBRANCH  18  23
BRANCH  19  24
ATOM     24  O   UNL     1     -35.448  20.625   5.672  0.00  0.00    -0.504 OA
ATOM     25  H   UNL     1     -35.832  20.487   6.515  0.00  0.00    +0.292 HD
ENDBRANCH  19  24
ENDBRANCH  14  15
ENDBRANCH   1  14
TORSDOF 8
ENDMDL
MODEL 8
REMARK VINA RESULT:      -6.1      5.057      8.323
REMARK  Name = 193072
REMARK  8 active torsions:
REMARK  status: ('A' for Active; 'I' for Inactive)
REMARK    1  A    between atoms: O_1  and  C_3
REMARK    2  A    between atoms: O_1  and  C_14
REMARK    3  A    between atoms: C_3  and  C_4
REMARK    4  A    between atoms: C_4  and  O_5
REMARK    5  A    between atoms: O_5  and  C_8
REMARK    6  A    between atoms: C_14  and  C_15
REMARK    7  A    between atoms: C_18  and  N_23
REMARK    8  A    between atoms: C_19  and  O_24
REMARK                            x       y       z     vdW  Elec       q    Type
REMARK                         _______ _______ _______ _____ _____    ______ ____
ROOT
ATOM      1  O   UNL     1     -36.298  21.098   2.227  0.00  0.00    -0.441 OA
ENDROOT
BRANCH   1   3
ATOM      2  O   UNL     1     -36.535  19.423   0.658  0.00  0.00    -0.246 OA
ATOM      3  C   UNL     1     -35.860  20.053   1.460  0.00  0.00    +0.362 C 
BRANCH   3   4
ATOM      4  C   UNL     1     -34.407  19.792   1.758  0.00  0.00    +0.314 C 
BRANCH   4   5
ATOM      5  O   UNL     1     -33.631  20.218   0.656  0.00  0.00    -0.463 OA
BRANCH   5   8
ATOM      6 CL   UNL     1     -31.634  21.871  -0.867  0.00  0.00    -0.079 Cl
ATOM      7 CL   UNL     1     -28.356  17.702   0.068  0.00  0.00    -0.082 Cl
ATOM      8  C   UNL     1     -32.389  19.649   0.508  0.00  0.00    +0.150 C 
ATOM      9  C   UNL     1     -31.379  20.311  -0.177  0.00  0.00    +0.092 C 
ATOM     10  C   UNL     1     -32.169  18.392   1.059  0.00  0.00    +0.039 C 
ATOM     11  C   UNL     1     -30.128  19.709  -0.313  0.00  0.00    +0.026 C 
ATOM     12  C   UNL     1     -30.919  17.789   0.921  0.00  0.00    +0.015 C 
ATOM     13  C   UNL     1     -29.898  18.447   0.237  0.00  0.00    +0.059 C 
ENDBRANCH   5   8
ENDBRANCH   4   5
ENDBRANCH   3   4
ENDBRANCH   1   3
BRANCH   1  14
ATOM     14  C   UNL     1     -35.549  21.357   3.408  0.00  0.00    +0.235 C 
BRANCH  14  15
ATOM     15  C   UNL     1     -35.859  22.730   3.900  0.00  0.00    +0.023 C 
ATOM     16  C   UNL     1     -36.998  23.394   3.445  0.00  0.00    +0.027 C 
ATOM     17  C   UNL     1     -35.011  23.351   4.817  0.00  0.00    +0.003 C 
ATOM     18  C   UNL     1     -37.287  24.679   3.906  0.00  0.00    +0.176 C 
ATOM     19  C   UNL     1     -36.438  25.299   4.823  0.00  0.00    +0.156 C 
ATOM     20  C   UNL     1     -35.300  24.634   5.278  0.00  0.00    +0.038 C 
BRANCH  18  23
ATOM     21  O   UNL     1     -38.319  26.390   2.754  0.00  0.00    -0.126 OA
ATOM     22  O   UNL     1     -39.577  24.860   3.699  0.00  0.00    -0.126 OA
ATOM     23  N   UNL     1     -38.452  25.342   3.430  0.00  0.00    +0.061 N 
ENDBRANCH  18  23
BRANCH  19  24
ATOM     24  O   UNL     1     -36.700  26.554   5.288  0.00  0.00    -0.504 OA
ATOM     25  H   UNL     1     -37.571  26.896   5.247  0.00  0.00    +0.292 HD
ENDBRANCH  19  24
ENDBRANCH  14  15
ENDBRANCH   1  14
TORSDOF 8
ENDMDL
MODEL 9
REMARK VINA RESULT:      -6.1      4.369      6.899
REMARK  Name = 193072
REMARK  8 active torsions:
REMARK  status: ('A' for Active; 'I' for Inactive)
REMARK    1  A    between atoms: O_1  and  C_3
REMARK    2  A    between atoms: O_1  and  C_14
REMARK    3  A    between atoms: C_3  and  C_4
REMARK    4  A    between atoms: C_4  and  O_5
REMARK    5  A    between atoms: O_5  and  C_8
REMARK    6  A    between atoms: C_14  and  C_15
REMARK    7  A    between atoms: C_18  and  N_23
REMARK    8  A    between atoms: C_19  and  O_24
REMARK                            x       y       z     vdW  Elec       q    Type
REMARK                         _______ _______ _______ _____ _____    ______ ____
ROOT
ATOM      1  O   UNL     1     -36.206  20.003   1.640  0.00  0.00    -0.441 OA
ENDROOT
BRANCH   1   3
ATOM      2  O   UNL     1     -35.252  20.562   3.664  0.00  0.00    -0.246 OA
ATOM      3  C   UNL     1     -35.967  20.824   2.708  0.00  0.00    +0.362 C 
BRANCH   3   4
ATOM      4  C   UNL     1     -36.727  22.112   2.526  0.00  0.00    +0.314 C 
BRANCH   4   5
ATOM      5  O   UNL     1     -36.897  22.723   3.789  0.00  0.00    -0.463 OA
BRANCH   5   8
ATOM      6 CL   UNL     1     -35.474  22.432   6.420  0.00  0.00    -0.079 Cl
ATOM      7 CL   UNL     1     -33.259  27.153   5.073  0.00  0.00    -0.082 Cl
ATOM      8  C   UNL     1     -36.040  23.748   4.109  0.00  0.00    +0.150 C 
ATOM      9  C   UNL     1     -35.323  23.733   5.298  0.00  0.00    +0.092 C 
ATOM     10  C   UNL     1     -35.908  24.803   3.213  0.00  0.00    +0.039 C 
ATOM     11  C   UNL     1     -34.460  24.787   5.597  0.00  0.00    +0.026 C 
ATOM     12  C   UNL     1     -35.047  25.858   3.513  0.00  0.00    +0.015 C 
ATOM     13  C   UNL     1     -34.322  25.850   4.704  0.00  0.00    +0.059 C 
ENDBRANCH   5   8
ENDBRANCH   4   5
ENDBRANCH   3   4
ENDBRANCH   1   3
BRANCH   1  14
ATOM     14  C   UNL     1     -35.310  20.134   0.543  0.00  0.00    +0.235 C 
BRANCH  14  15
ATOM     15  C   UNL     1     -34.399  18.954   0.504  0.00  0.00    +0.023 C 
ATOM     16  C   UNL     1     -34.850  17.742  -0.019  0.00  0.00    +0.027 C 
ATOM     17  C   UNL     1     -33.096  19.062   0.989  0.00  0.00    +0.003 C 
ATOM     18  C   UNL     1     -33.998  16.638  -0.056  0.00  0.00    +0.176 C 
ATOM     19  C   UNL     1     -32.695  16.746   0.430  0.00  0.00    +0.156 C 
ATOM     20  C   UNL     1     -32.244  17.958   0.952  0.00  0.00    +0.038 C 
BRANCH  18  23
ATOM     21  O   UNL     1     -33.780  14.812  -1.448  0.00  0.00    -0.126 OA
ATOM     22  O   UNL     1     -35.574  14.960  -0.192  0.00  0.00    -0.126 OA
ATOM     23  N   UNL     1     -34.474  15.410  -0.591  0.00  0.00    +0.061 N 
ENDBRANCH  18  23
BRANCH  19  24
ATOM     24  O   UNL     1     -31.843  15.682   0.405  0.00  0.00    -0.504 OA
ATOM     25  H   UNL     1     -31.827  15.078   1.122  0.00  0.00    +0.292 HD
ENDBRANCH  19  24
ENDBRANCH  14  15
ENDBRANCH   1  14
TORSDOF 8
ENDMDL
