MODEL 1
REMARK VINA RESULT:      -5.1      0.000      0.000
REMARK  Name = 194622
REMARK  7 active torsions:
REMARK  status: ('A' for Active; 'I' for Inactive)
REMARK    1  A    between atoms: C_4  and  C_13
REMARK    2  A    between atoms: C_7  and  C_10
REMARK    3  A    between atoms: C_8  and  S_15
REMARK    4  A    between atoms: C_10  and  O_11
REMARK    5  A    between atoms: S_15  and  C_16
REMARK    6  A    between atoms: C_16  and  C_17
REMARK    7  A    between atoms: C_17  and  N_18
REMARK                            x       y       z     vdW  Elec       q    Type
REMARK                         _______ _______ _______ _____ _____    ______ ____
ROOT
ATOM      1  O   UNL     1     -36.943  23.026   1.017  0.00  0.00    -0.274 OA
ATOM      2  N   UNL     1     -36.884  22.981   3.376  0.00  0.00    -0.254 N 
ATOM      3  C   UNL     1     -35.808  22.204   4.031  0.00  0.00    +0.093 C 
ATOM      4  C   UNL     1     -35.379  21.772   2.603  0.00  0.00    +0.096 C 
ATOM      5  C   UNL     1     -35.056  23.237   4.878  0.00  0.00    +0.055 C 
ATOM      6  C   UNL     1     -36.541  22.654   2.097  0.00  0.00    +0.231 C 
ATOM      7  C   UNL     1     -36.923  24.246   3.886  0.00  0.00    +0.132 C 
ATOM      8  C   UNL     1     -35.932  24.459   4.762  0.00  0.00    +0.025 C 
ENDROOT
BRANCH   7  10
ATOM      9  O   UNL     1     -37.704  26.136   2.675  0.00  0.00    -0.244 OA
ATOM     10  C   UNL     1     -37.927  25.196   3.421  0.00  0.00    +0.352 C 
BRANCH  10  11
ATOM     11  O   UNL     1     -39.134  24.877   3.940  0.00  0.00    -0.476 OA
ATOM     12  H   UNL     1     -39.484  24.017   3.817  0.00  0.00    +0.295 HD
ENDBRANCH  10  11
ENDBRANCH   7  10
BRANCH   4  13
ATOM     13  C   UNL     1     -35.501  20.309   2.248  0.00  0.00    +0.011 C 
ATOM     14  C   UNL     1     -34.256  19.822   1.518  0.00  0.00    +0.001 C 
ENDBRANCH   4  13
BRANCH   8  15
ATOM     15  S   UNL     1     -35.591  25.905   5.618  0.00  0.00    -0.119 S 
BRANCH  15  16
ATOM     16  C   UNL     1     -33.958  26.297   4.947  0.00  0.00    +0.038 C 
BRANCH  16  17
ATOM     17  C   UNL     1     -34.093  27.082   3.648  0.00  0.00    -0.074 C 
BRANCH  17  18
ATOM     18  N   UNL     1     -35.340  27.841   3.656  0.00  0.00    +0.381 N 
ATOM     19  H   UNL     1     -35.184  28.755   3.231  0.00  0.00    -0.089 HD
ATOM     20  H   UNL     1     -35.659  27.962   4.617  0.00  0.00    -0.089 HD
ATOM     21  H   UNL     1     -36.049  27.335   3.124  0.00  0.00    -0.089 HD
ENDBRANCH  17  18
ENDBRANCH  16  17
ENDBRANCH  15  16
ENDBRANCH   8  15
TORSDOF 7
ENDMDL
MODEL 2
REMARK VINA RESULT:      -4.8      2.421      2.972
REMARK  Name = 194622
REMARK  7 active torsions:
REMARK  status: ('A' for Active; 'I' for Inactive)
REMARK    1  A    between atoms: C_4  and  C_13
REMARK    2  A    between atoms: C_7  and  C_10
REMARK    3  A    between atoms: C_8  and  S_15
REMARK    4  A    between atoms: C_10  and  O_11
REMARK    5  A    between atoms: S_15  and  C_16
REMARK    6  A    between atoms: C_16  and  C_17
REMARK    7  A    between atoms: C_17  and  N_18
REMARK                            x       y       z     vdW  Elec       q    Type
REMARK                         _______ _______ _______ _____ _____    ______ ____
ROOT
ATOM      1  O   UNL     1     -37.461  22.942   3.509  0.00  0.00    -0.274 OA
ATOM      2  N   UNL     1     -36.792  25.053   4.326  0.00  0.00    -0.254 N 
ATOM      3  C   UNL     1     -35.502  25.145   5.045  0.00  0.00    +0.093 C 
ATOM      4  C   UNL     1     -35.408  23.604   4.881  0.00  0.00    +0.096 C 
ATOM      5  C   UNL     1     -34.681  26.148   4.225  0.00  0.00    +0.055 C 
ATOM      6  C   UNL     1     -36.755  23.704   4.132  0.00  0.00    +0.231 C 
ATOM      7  C   UNL     1     -36.843  25.993   3.337  0.00  0.00    +0.132 C 
ATOM      8  C   UNL     1     -35.691  26.670   3.236  0.00  0.00    +0.025 C 
ENDROOT
BRANCH   7  10
ATOM      9  O   UNL     1     -38.072  25.923   1.304  0.00  0.00    -0.244 OA
ATOM     10  C   UNL     1     -38.036  26.124   2.508  0.00  0.00    +0.352 C 
BRANCH  10  11
ATOM     11  O   UNL     1     -39.086  26.499   3.271  0.00  0.00    -0.476 OA
ATOM     12  H   UNL     1     -38.943  26.808   4.145  0.00  0.00    +0.295 HD
ENDBRANCH  10  11
ENDBRANCH   7  10
BRANCH   4  13
ATOM     13  C   UNL     1     -35.448  22.763   6.135  0.00  0.00    +0.011 C 
ATOM     14  C   UNL     1     -34.899  21.367   5.870  0.00  0.00    +0.001 C 
ENDBRANCH   4  13
BRANCH   8  15
ATOM     15  S   UNL     1     -35.310  27.916   2.120  0.00  0.00    -0.119 S 
BRANCH  15  16
ATOM     16  C   UNL     1     -34.035  28.799   3.050  0.00  0.00    +0.038 C 
BRANCH  16  17
ATOM     17  C   UNL     1     -34.234  30.304   2.923  0.00  0.00    -0.074 C 
BRANCH  17  18
ATOM     18  N   UNL     1     -35.400  30.716   3.699  0.00  0.00    +0.381 N 
ATOM     19  H   UNL     1     -35.093  31.174   4.557  0.00  0.00    -0.089 HD
ATOM     20  H   UNL     1     -35.960  29.897   3.932  0.00  0.00    -0.089 HD
ATOM     21  H   UNL     1     -35.962  31.367   3.149  0.00  0.00    -0.089 HD
ENDBRANCH  17  18
ENDBRANCH  16  17
ENDBRANCH  15  16
ENDBRANCH   8  15
TORSDOF 7
ENDMDL
MODEL 3
REMARK VINA RESULT:      -4.7      2.587      3.330
REMARK  Name = 194622
REMARK  7 active torsions:
REMARK  status: ('A' for Active; 'I' for Inactive)
REMARK    1  A    between atoms: C_4  and  C_13
REMARK    2  A    between atoms: C_7  and  C_10
REMARK    3  A    between atoms: C_8  and  S_15
REMARK    4  A    between atoms: C_10  and  O_11
REMARK    5  A    between atoms: S_15  and  C_16
REMARK    6  A    between atoms: C_16  and  C_17
REMARK    7  A    between atoms: C_17  and  N_18
REMARK                            x       y       z     vdW  Elec       q    Type
REMARK                         _______ _______ _______ _____ _____    ______ ____
ROOT
ATOM      1  O   UNL     1     -36.221  19.780  -0.478  0.00  0.00    -0.274 OA
ATOM      2  N   UNL     1     -36.558  20.380   1.780  0.00  0.00    -0.254 N 
ATOM      3  C   UNL     1     -35.366  20.664   2.611  0.00  0.00    +0.093 C 
ATOM      4  C   UNL     1     -34.522  20.260   1.371  0.00  0.00    +0.096 C 
ATOM      5  C   UNL     1     -35.566  22.109   3.081  0.00  0.00    +0.055 C 
ATOM      6  C   UNL     1     -35.871  20.038   0.652  0.00  0.00    +0.231 C 
ATOM      7  C   UNL     1     -37.451  21.408   1.880  0.00  0.00    +0.132 C 
ATOM      8  C   UNL     1     -36.969  22.414   2.622  0.00  0.00    +0.025 C 
ENDROOT
BRANCH   7  10
ATOM      9  O   UNL     1     -38.891  21.646   0.004  0.00  0.00    -0.244 OA
ATOM     10  C   UNL     1     -38.727  21.345   1.176  0.00  0.00    +0.352 C 
BRANCH  10  11
ATOM     11  O   UNL     1     -39.691  20.905   2.014  0.00  0.00    -0.476 OA
ATOM     12  H   UNL     1     -39.655  21.122   2.925  0.00  0.00    +0.295 HD
ENDBRANCH  10  11
ENDBRANCH   7  10
BRANCH   4  13
ATOM     13  C   UNL     1     -33.659  19.026   1.483  0.00  0.00    +0.011 C 
ATOM     14  C   UNL     1     -32.324  19.233   0.781  0.00  0.00    +0.001 C 
ENDBRANCH   4  13
BRANCH   8  15
ATOM     15  S   UNL     1     -37.740  23.902   2.986  0.00  0.00    -0.119 S 
BRANCH  15  16
ATOM     16  C   UNL     1     -36.311  24.888   3.493  0.00  0.00    +0.038 C 
BRANCH  16  17
ATOM     17  C   UNL     1     -36.343  25.134   4.996  0.00  0.00    -0.074 C 
BRANCH  17  18
ATOM     18  N   UNL     1     -36.353  26.570   5.263  0.00  0.00    +0.381 N 
ATOM     19  H   UNL     1     -35.394  26.914   5.306  0.00  0.00    -0.089 HD
ATOM     20  H   UNL     1     -36.818  26.747   6.153  0.00  0.00    -0.089 HD
ATOM     21  H   UNL     1     -36.854  27.051   4.515  0.00  0.00    -0.089 HD
ENDBRANCH  17  18
ENDBRANCH  16  17
ENDBRANCH  15  16
ENDBRANCH   8  15
TORSDOF 7
ENDMDL
MODEL 4
REMARK VINA RESULT:      -4.6      2.460      3.014
REMARK  Name = 194622
REMARK  7 active torsions:
REMARK  status: ('A' for Active; 'I' for Inactive)
REMARK    1  A    between atoms: C_4  and  C_13
REMARK    2  A    between atoms: C_7  and  C_10
REMARK    3  A    between atoms: C_8  and  S_15
REMARK    4  A    between atoms: C_10  and  O_11
REMARK    5  A    between atoms: S_15  and  C_16
REMARK    6  A    between atoms: C_16  and  C_17
REMARK    7  A    between atoms: C_17  and  N_18
REMARK                            x       y       z     vdW  Elec       q    Type
REMARK                         _______ _______ _______ _____ _____    ______ ____
ROOT
ATOM      1  O   UNL     1     -36.352  23.077   5.418  0.00  0.00    -0.274 OA
ATOM      2  N   UNL     1     -34.918  24.123   3.862  0.00  0.00    -0.254 N 
ATOM      3  C   UNL     1     -34.901  23.608   2.475  0.00  0.00    +0.093 C 
ATOM      4  C   UNL     1     -35.884  22.512   2.969  0.00  0.00    +0.096 C 
ATOM      5  C   UNL     1     -35.314  24.811   1.618  0.00  0.00    +0.055 C 
ATOM      6  C   UNL     1     -35.797  23.200   4.349  0.00  0.00    +0.231 C 
ATOM      7  C   UNL     1     -35.112  25.474   3.856  0.00  0.00    +0.132 C 
ATOM      8  C   UNL     1     -35.320  25.940   2.617  0.00  0.00    +0.025 C 
ENDROOT
BRANCH   7  10
ATOM      9  O   UNL     1     -34.141  26.630   5.692  0.00  0.00    -0.244 OA
ATOM     10  C   UNL     1     -35.132  26.220   5.109  0.00  0.00    +0.352 C 
BRANCH  10  11
ATOM     11  O   UNL     1     -36.408  26.386   5.523  0.00  0.00    -0.476 OA
ATOM     12  H   UNL     1     -36.860  25.681   5.944  0.00  0.00    +0.295 HD
ENDBRANCH  10  11
ENDBRANCH   7  10
BRANCH   4  13
ATOM     13  C   UNL     1     -35.404  21.080   2.949  0.00  0.00    +0.011 C 
ATOM     14  C   UNL     1     -36.311  20.216   2.083  0.00  0.00    +0.001 C 
ENDBRANCH   4  13
BRANCH   8  15
ATOM     15  S   UNL     1     -35.629  27.561   2.153  0.00  0.00    -0.119 S 
BRANCH  15  16
ATOM     16  C   UNL     1     -33.950  28.112   1.769  0.00  0.00    +0.038 C 
BRANCH  16  17
ATOM     17  C   UNL     1     -33.622  29.387   2.536  0.00  0.00    -0.074 C 
BRANCH  17  18
ATOM     18  N   UNL     1     -33.377  29.071   3.940  0.00  0.00    +0.381 N 
ATOM     19  H   UNL     1     -32.703  29.733   4.325  0.00  0.00    -0.089 HD
ATOM     20  H   UNL     1     -33.006  28.124   4.016  0.00  0.00    -0.089 HD
ATOM     21  H   UNL     1     -34.252  29.136   4.461  0.00  0.00    -0.089 HD
ENDBRANCH  17  18
ENDBRANCH  16  17
ENDBRANCH  15  16
ENDBRANCH   8  15
TORSDOF 7
ENDMDL
MODEL 5
REMARK VINA RESULT:      -4.5      2.739      3.785
REMARK  Name = 194622
REMARK  7 active torsions:
REMARK  status: ('A' for Active; 'I' for Inactive)
REMARK    1  A    between atoms: C_4  and  C_13
REMARK    2  A    between atoms: C_7  and  C_10
REMARK    3  A    between atoms: C_8  and  S_15
REMARK    4  A    between atoms: C_10  and  O_11
REMARK    5  A    between atoms: S_15  and  C_16
REMARK    6  A    between atoms: C_16  and  C_17
REMARK    7  A    between atoms: C_17  and  N_18
REMARK                            x       y       z     vdW  Elec       q    Type
REMARK                         _______ _______ _______ _____ _____    ______ ____
ROOT
ATOM      1  O   UNL     1     -35.522  23.661   2.727  0.00  0.00    -0.274 OA
ATOM      2  N   UNL     1     -35.420  25.535   4.158  0.00  0.00    -0.254 N 
ATOM      3  C   UNL     1     -34.874  25.343   5.520  0.00  0.00    +0.093 C 
ATOM      4  C   UNL     1     -34.773  23.835   5.165  0.00  0.00    +0.096 C 
ATOM      5  C   UNL     1     -33.672  26.293   5.585  0.00  0.00    +0.055 C 
ATOM      6  C   UNL     1     -35.334  24.228   3.780  0.00  0.00    +0.231 C 
ATOM      7  C   UNL     1     -34.788  26.579   3.545  0.00  0.00    +0.132 C 
ATOM      8  C   UNL     1     -33.801  27.075   4.303  0.00  0.00    +0.025 C 
ENDROOT
BRANCH   7  10
ATOM      9  O   UNL     1     -34.609  26.642   1.176  0.00  0.00    -0.244 OA
ATOM     10  C   UNL     1     -35.177  26.987   2.200  0.00  0.00    +0.352 C 
BRANCH  10  11
ATOM     11  O   UNL     1     -36.255  27.800   2.263  0.00  0.00    -0.476 OA
ATOM     12  H   UNL     1     -37.006  27.545   2.762  0.00  0.00    +0.295 HD
ENDBRANCH  10  11
ENDBRANCH   7  10
BRANCH   4  13
ATOM     13  C   UNL     1     -35.639  22.872   5.943  0.00  0.00    +0.011 C 
ATOM     14  C   UNL     1     -35.050  21.469   5.915  0.00  0.00    +0.001 C 
ENDBRANCH   4  13
BRANCH   8  15
ATOM     15  S   UNL     1     -32.739  28.366   3.917  0.00  0.00    -0.119 S 
BRANCH  15  16
ATOM     16  C   UNL     1     -31.682  28.362   5.384  0.00  0.00    +0.038 C 
BRANCH  16  17
ATOM     17  C   UNL     1     -31.847  29.663   6.159  0.00  0.00    -0.074 C 
BRANCH  17  18
ATOM     18  N   UNL     1     -31.451  29.465   7.550  0.00  0.00    +0.381 N 
ATOM     19  H   UNL     1     -30.765  30.173   7.812  0.00  0.00    -0.089 HD
ATOM     20  H   UNL     1     -31.042  28.537   7.658  0.00  0.00    -0.089 HD
ATOM     21  H   UNL     1     -32.271  29.547   8.152  0.00  0.00    -0.089 HD
ENDBRANCH  17  18
ENDBRANCH  16  17
ENDBRANCH  15  16
ENDBRANCH   8  15
TORSDOF 7
ENDMDL
MODEL 6
REMARK VINA RESULT:      -4.5      2.888      5.421
REMARK  Name = 194622
REMARK  7 active torsions:
REMARK  status: ('A' for Active; 'I' for Inactive)
REMARK    1  A    between atoms: C_4  and  C_13
REMARK    2  A    between atoms: C_7  and  C_10
REMARK    3  A    between atoms: C_8  and  S_15
REMARK    4  A    between atoms: C_10  and  O_11
REMARK    5  A    between atoms: S_15  and  C_16
REMARK    6  A    between atoms: C_16  and  C_17
REMARK    7  A    between atoms: C_17  and  N_18
REMARK                            x       y       z     vdW  Elec       q    Type
REMARK                         _______ _______ _______ _____ _____    ______ ____
ROOT
ATOM      1  O   UNL     1     -35.994  22.383   5.471  0.00  0.00    -0.274 OA
ATOM      2  N   UNL     1     -36.241  23.501   3.407  0.00  0.00    -0.254 N 
ATOM      3  C   UNL     1     -35.376  24.673   3.141  0.00  0.00    +0.093 C 
ATOM      4  C   UNL     1     -34.835  24.482   4.584  0.00  0.00    +0.096 C 
ATOM      5  C   UNL     1     -34.600  24.293   1.875  0.00  0.00    +0.055 C 
ATOM      6  C   UNL     1     -35.788  23.270   4.672  0.00  0.00    +0.231 C 
ATOM      7  C   UNL     1     -36.165  22.620   2.366  0.00  0.00    +0.132 C 
ATOM      8  C   UNL     1     -35.273  23.013   1.447  0.00  0.00    +0.025 C 
ENDROOT
BRANCH   7  10
ATOM      9  O   UNL     1     -38.067  21.280   1.880  0.00  0.00    -0.244 OA
ATOM     10  C   UNL     1     -36.958  21.397   2.379  0.00  0.00    +0.352 C 
BRANCH  10  11
ATOM     11  O   UNL     1     -36.283  20.420   3.023  0.00  0.00    -0.476 OA
ATOM     12  H   UNL     1     -35.741  20.631   3.758  0.00  0.00    +0.295 HD
ENDBRANCH  10  11
ENDBRANCH   7  10
BRANCH   4  13
ATOM     13  C   UNL     1     -35.116  25.576   5.588  0.00  0.00    +0.011 C 
ATOM     14  C   UNL     1     -33.826  26.262   6.017  0.00  0.00    +0.001 C 
ENDBRANCH   4  13
BRANCH   8  15
ATOM     15  S   UNL     1     -34.842  22.202  -0.001  0.00  0.00    -0.119 S 
BRANCH  15  16
ATOM     16  C   UNL     1     -33.722  20.944   0.658  0.00  0.00    +0.038 C 
BRANCH  16  17
ATOM     17  C   UNL     1     -34.021  19.588   0.032  0.00  0.00    -0.074 C 
BRANCH  17  18
ATOM     18  N   UNL     1     -34.853  18.798   0.935  0.00  0.00    +0.381 N 
ATOM     19  H   UNL     1     -34.833  19.213   1.866  0.00  0.00    -0.089 HD
ATOM     20  H   UNL     1     -34.495  17.844   0.980  0.00  0.00    -0.089 HD
ATOM     21  H   UNL     1     -35.813  18.785   0.589  0.00  0.00    -0.089 HD
ENDBRANCH  17  18
ENDBRANCH  16  17
ENDBRANCH  15  16
ENDBRANCH   8  15
TORSDOF 7
ENDMDL
MODEL 7
REMARK VINA RESULT:      -4.2      3.602      5.204
REMARK  Name = 194622
REMARK  7 active torsions:
REMARK  status: ('A' for Active; 'I' for Inactive)
REMARK    1  A    between atoms: C_4  and  C_13
REMARK    2  A    between atoms: C_7  and  C_10
REMARK    3  A    between atoms: C_8  and  S_15
REMARK    4  A    between atoms: C_10  and  O_11
REMARK    5  A    between atoms: S_15  and  C_16
REMARK    6  A    between atoms: C_16  and  C_17
REMARK    7  A    between atoms: C_17  and  N_18
REMARK                            x       y       z     vdW  Elec       q    Type
REMARK                         _______ _______ _______ _____ _____    ______ ____
ROOT
ATOM      1  O   UNL     1     -33.767  25.056   2.844  0.00  0.00    -0.274 OA
ATOM      2  N   UNL     1     -34.015  26.676   4.543  0.00  0.00    -0.254 N 
ATOM      3  C   UNL     1     -34.212  26.204   5.932  0.00  0.00    +0.093 C 
ATOM      4  C   UNL     1     -34.225  24.767   5.342  0.00  0.00    +0.096 C 
ATOM      5  C   UNL     1     -33.033  26.803   6.708  0.00  0.00    +0.055 C 
ATOM      6  C   UNL     1     -33.995  25.438   3.970  0.00  0.00    +0.231 C 
ATOM      7  C   UNL     1     -32.997  27.584   4.500  0.00  0.00    +0.132 C 
ATOM      8  C   UNL     1     -32.408  27.728   5.694  0.00  0.00    +0.025 C 
ENDROOT
BRANCH   7  10
ATOM      9  O   UNL     1     -31.593  28.026   2.633  0.00  0.00    -0.244 OA
ATOM     10  C   UNL     1     -32.635  28.222   3.239  0.00  0.00    +0.352 C 
BRANCH  10  11
ATOM     11  O   UNL     1     -33.622  29.058   2.848  0.00  0.00    -0.476 OA
ATOM     12  H   UNL     1     -34.519  28.821   2.987  0.00  0.00    +0.295 HD
ENDBRANCH  10  11
ENDBRANCH   7  10
BRANCH   4  13
ATOM     13  C   UNL     1     -35.509  23.978   5.449  0.00  0.00    +0.011 C 
ATOM     14  C   UNL     1     -35.240  22.574   5.972  0.00  0.00    +0.001 C 
ENDBRANCH   4  13
BRANCH   8  15
ATOM     15  S   UNL     1     -31.080  28.739   6.085  0.00  0.00    -0.119 S 
BRANCH  15  16
ATOM     16  C   UNL     1     -31.886  30.358   6.045  0.00  0.00    +0.038 C 
BRANCH  16  17
ATOM     17  C   UNL     1     -31.243  31.243   4.985  0.00  0.00    -0.074 C 
BRANCH  17  18
ATOM     18  N   UNL     1     -30.210  30.495   4.274  0.00  0.00    +0.381 N 
ATOM     19  H   UNL     1     -29.292  30.862   4.523  0.00  0.00    -0.089 HD
ATOM     20  H   UNL     1     -30.353  30.588   3.269  0.00  0.00    -0.089 HD
ATOM     21  H   UNL     1     -30.264  29.510   4.535  0.00  0.00    -0.089 HD
ENDBRANCH  17  18
ENDBRANCH  16  17
ENDBRANCH  15  16
ENDBRANCH   8  15
TORSDOF 7
ENDMDL
MODEL 8
REMARK VINA RESULT:      -4.1      3.091      5.158
REMARK  Name = 194622
REMARK  7 active torsions:
REMARK  status: ('A' for Active; 'I' for Inactive)
REMARK    1  A    between atoms: C_4  and  C_13
REMARK    2  A    between atoms: C_7  and  C_10
REMARK    3  A    between atoms: C_8  and  S_15
REMARK    4  A    between atoms: C_10  and  O_11
REMARK    5  A    between atoms: S_15  and  C_16
REMARK    6  A    between atoms: C_16  and  C_17
REMARK    7  A    between atoms: C_17  and  N_18
REMARK                            x       y       z     vdW  Elec       q    Type
REMARK                         _______ _______ _______ _____ _____    ______ ____
ROOT
ATOM      1  O   UNL     1     -35.432  21.634   3.898  0.00  0.00    -0.274 OA
ATOM      2  N   UNL     1     -37.260  23.054   3.436  0.00  0.00    -0.254 N 
ATOM      3  C   UNL     1     -37.066  24.512   3.591  0.00  0.00    +0.093 C 
ATOM      4  C   UNL     1     -35.642  24.173   4.108  0.00  0.00    +0.096 C 
ATOM      5  C   UNL     1     -37.361  25.086   2.200  0.00  0.00    +0.055 C 
ATOM      6  C   UNL     1     -36.014  22.695   3.859  0.00  0.00    +0.231 C 
ATOM      7  C   UNL     1     -37.786  22.782   2.205  0.00  0.00    +0.132 C 
ATOM      8  C   UNL     1     -37.895  23.888   1.457  0.00  0.00    +0.025 C 
ENDROOT
BRANCH   7  10
ATOM      9  O   UNL     1     -37.357  20.671   1.199  0.00  0.00    -0.244 OA
ATOM     10  C   UNL     1     -38.100  21.409   1.827  0.00  0.00    +0.352 C 
BRANCH  10  11
ATOM     11  O   UNL     1     -39.333  21.082   2.275  0.00  0.00    -0.476 OA
ATOM     12  H   UNL     1     -39.441  20.363   2.867  0.00  0.00    +0.295 HD
ENDBRANCH  10  11
ENDBRANCH   7  10
BRANCH   4  13
ATOM     13  C   UNL     1     -35.321  24.506   5.546  0.00  0.00    +0.011 C 
ATOM     14  C   UNL     1     -34.340  25.668   5.628  0.00  0.00    +0.001 C 
ENDBRANCH   4  13
BRANCH   8  15
ATOM     15  S   UNL     1     -38.478  24.003  -0.152  0.00  0.00    -0.119 S 
BRANCH  15  16
ATOM     16  C   UNL     1     -39.975  24.982   0.119  0.00  0.00    +0.038 C 
BRANCH  16  17
ATOM     17  C   UNL     1     -40.972  24.201   0.966  0.00  0.00    -0.074 C 
BRANCH  17  18
ATOM     18  N   UNL     1     -41.155  22.864   0.409  0.00  0.00    +0.381 N 
ATOM     19  H   UNL     1     -40.429  22.682  -0.283  0.00  0.00    -0.089 HD
ATOM     20  H   UNL     1     -42.071  22.804  -0.034  0.00  0.00    -0.089 HD
ATOM     21  H   UNL     1     -41.093  22.173   1.157  0.00  0.00    -0.089 HD
ENDBRANCH  17  18
ENDBRANCH  16  17
ENDBRANCH  15  16
ENDBRANCH   8  15
TORSDOF 7
ENDMDL
MODEL 9
REMARK VINA RESULT:      -4.0      4.460      5.440
REMARK  Name = 194622
REMARK  7 active torsions:
REMARK  status: ('A' for Active; 'I' for Inactive)
REMARK    1  A    between atoms: C_4  and  C_13
REMARK    2  A    between atoms: C_7  and  C_10
REMARK    3  A    between atoms: C_8  and  S_15
REMARK    4  A    between atoms: C_10  and  O_11
REMARK    5  A    between atoms: S_15  and  C_16
REMARK    6  A    between atoms: C_16  and  C_17
REMARK    7  A    between atoms: C_17  and  N_18
REMARK                            x       y       z     vdW  Elec       q    Type
REMARK                         _______ _______ _______ _____ _____    ______ ____
ROOT
ATOM      1  O   UNL     1     -34.793  18.480  -1.182  0.00  0.00    -0.274 OA
ATOM      2  N   UNL     1     -35.693  19.449   0.774  0.00  0.00    -0.254 N 
ATOM      3  C   UNL     1     -34.752  19.949   1.800  0.00  0.00    +0.093 C 
ATOM      4  C   UNL     1     -33.618  19.386   0.900  0.00  0.00    +0.096 C 
ATOM      5  C   UNL     1     -35.086  21.440   1.929  0.00  0.00    +0.055 C 
ATOM      6  C   UNL     1     -34.741  18.955  -0.069  0.00  0.00    +0.231 C 
ATOM      7  C   UNL     1     -36.600  20.421   0.460  0.00  0.00    +0.132 C 
ATOM      8  C   UNL     1     -36.335  21.571   1.094  0.00  0.00    +0.025 C 
ENDROOT
BRANCH   7  10
ATOM      9  O   UNL     1     -37.601  20.431  -1.696  0.00  0.00    -0.244 OA
ATOM     10  C   UNL     1     -37.658  20.154  -0.508  0.00  0.00    +0.352 C 
BRANCH  10  11
ATOM     11  O   UNL     1     -38.702  19.559   0.108  0.00  0.00    -0.476 OA
ATOM     12  H   UNL     1     -39.029  19.904   0.916  0.00  0.00    +0.295 HD
ENDBRANCH  10  11
ENDBRANCH   7  10
BRANCH   4  13
ATOM     13  C   UNL     1     -32.790  18.247   1.448  0.00  0.00    +0.011 C 
ATOM     14  C   UNL     1     -31.370  18.299   0.902  0.00  0.00    +0.001 C 
ENDBRANCH   4  13
BRANCH   8  15
ATOM     15  S   UNL     1     -37.196  23.049   0.975  0.00  0.00    -0.119 S 
BRANCH  15  16
ATOM     16  C   UNL     1     -38.238  22.933   2.449  0.00  0.00    +0.038 C 
BRANCH  16  17
ATOM     17  C   UNL     1     -39.690  22.698   2.053  0.00  0.00    -0.074 C 
BRANCH  17  18
ATOM     18  N   UNL     1     -40.000  21.273   2.129  0.00  0.00    +0.381 N 
ATOM     19  H   UNL     1     -39.308  20.806   2.715  0.00  0.00    -0.089 HD
ATOM     20  H   UNL     1     -39.980  20.870   1.192  0.00  0.00    -0.089 HD
ATOM     21  H   UNL     1     -40.928  21.148   2.533  0.00  0.00    -0.089 HD
ENDBRANCH  17  18
ENDBRANCH  16  17
ENDBRANCH  15  16
ENDBRANCH   8  15
TORSDOF 7
ENDMDL
