MODEL 1
REMARK VINA RESULT:      -6.9      0.000      0.000
REMARK  Name = 196936
REMARK  9 active torsions:
REMARK  status: ('A' for Active; 'I' for Inactive)
REMARK    1  A    between atoms: C_3  and  C_28
REMARK    2  A    between atoms: C_5  and  O_25
REMARK    3  A    between atoms: C_7  and  C_10
REMARK    4  A    between atoms: C_14  and  C_20
REMARK    5  A    between atoms: C_20  and  S_21
REMARK    6  A    between atoms: S_21  and  C_23
REMARK    7  A    between atoms: C_28  and  O_29
REMARK    8  A    between atoms: O_29  and  C_30
REMARK    9  A    between atoms: C_30  and  C_31
REMARK                            x       y       z     vdW  Elec       q    Type
REMARK                         _______ _______ _______ _____ _____    ______ ____
ROOT
ATOM      1  O   UNL     1     -37.251  25.938   3.814  0.00  0.00    -0.273 OA
ATOM      2  N   UNL     1     -36.307  23.886   4.320  0.00  0.00    -0.268 N 
ATOM      3  C   UNL     1     -35.578  24.326   5.501  0.00  0.00    +0.177 C 
ATOM      4  C   UNL     1     -35.214  23.040   6.229  0.00  0.00    +0.062 C 
ATOM      5  C   UNL     1     -35.082  22.015   5.102  0.00  0.00    +0.132 C 
ATOM      6  C   UNL     1     -36.145  22.450   4.101  0.00  0.00    +0.123 C 
ATOM      7  C   UNL     1     -37.140  24.729   3.601  0.00  0.00    +0.244 C 
ENDROOT
BRANCH   7  10
ATOM      8  O   UNL     1     -40.568  23.388   1.500  0.00  0.00    -0.275 OA
ATOM      9  N   UNL     1     -39.025  24.977   2.198  0.00  0.00    -0.298 N 
ATOM     10  C   UNL     1     -37.928  24.076   2.494  0.00  0.00    +0.149 C 
ATOM     11  C   UNL     1     -37.053  23.784   1.267  0.00  0.00    +0.029 C 
ATOM     12  C   UNL     1     -36.615  25.027   0.465  0.00  0.00    +0.002 C 
ATOM     13  C   UNL     1     -37.124  25.059  -0.984  0.00  0.00    +0.000 C 
ATOM     14  C   UNL     1     -41.080  25.734   1.172  0.00  0.00    +0.088 C 
ATOM     15  C   UNL     1     -38.646  25.031  -1.155  0.00  0.00    +0.000 C 
ATOM     16  C   UNL     1     -40.828  26.052  -0.317  0.00  0.00    +0.010 C 
ATOM     17  C   UNL     1     -39.356  26.306  -0.683  0.00  0.00    +0.001 C 
ATOM     18  C   UNL     1     -40.230  24.559   1.652  0.00  0.00    +0.223 C 
ATOM     19  H   UNL     1     -38.908  25.935   2.396  0.00  0.00    +0.150 HD
BRANCH  14  20
ATOM     20  C   UNL     1     -42.560  25.434   1.406  0.00  0.00    +0.074 C 
BRANCH  20  21
ATOM     21  S   UNL     1     -43.530  26.958   1.311  0.00  0.00    -0.077 S 
BRANCH  21  23
ATOM     22  O   UNL     1     -42.250  28.945   2.492  0.00  0.00    -0.285 OA
ATOM     23  C   UNL     1     -42.819  27.871   2.642  0.00  0.00    +0.199 C 
ATOM     24  C   UNL     1     -42.975  27.204   3.980  0.00  0.00    +0.085 C 
ENDBRANCH  21  23
ENDBRANCH  20  21
ENDBRANCH  14  20
ENDBRANCH   7  10
BRANCH   5  25
ATOM     25  O   UNL     1     -35.322  20.709   5.588  0.00  0.00    -0.383 OA
ATOM     26  H   UNL     1     -35.551  20.126   4.847  0.00  0.00    +0.210 HD
ENDBRANCH   5  25
BRANCH   3  28
ATOM     27  O   UNL     1     -33.509  24.572   4.295  0.00  0.00    -0.248 OA
ATOM     28  C   UNL     1     -34.364  25.061   5.021  0.00  0.00    +0.336 C 
BRANCH  28  29
ATOM     29  O   UNL     1     -34.373  26.331   5.519  0.00  0.00    -0.442 OA
BRANCH  29  30
ATOM     30  C   UNL     1     -33.328  26.635   6.448  0.00  0.00    +0.235 C 
BRANCH  30  31
ATOM     31  C   UNL     1     -32.569  27.832   5.956  0.00  0.00    +0.021 C 
ATOM     32  C   UNL     1     -32.578  28.143   4.601  0.00  0.00    -0.001 C 
ATOM     33  C   UNL     1     -31.863  28.619   6.859  0.00  0.00    -0.001 C 
ATOM     34  C   UNL     1     -31.872  29.257   4.143  0.00  0.00    -0.000 C 
ATOM     35  C   UNL     1     -31.158  29.732   6.401  0.00  0.00    -0.000 C 
ATOM     36  C   UNL     1     -31.162  30.051   5.043  0.00  0.00    -0.000 C 
ENDBRANCH  30  31
ENDBRANCH  29  30
ENDBRANCH  28  29
ENDBRANCH   3  28
TORSDOF 9
ENDMDL
MODEL 2
REMARK VINA RESULT:      -6.9      4.668      8.893
REMARK  Name = 196936
REMARK  9 active torsions:
REMARK  status: ('A' for Active; 'I' for Inactive)
REMARK    1  A    between atoms: C_3  and  C_28
REMARK    2  A    between atoms: C_5  and  O_25
REMARK    3  A    between atoms: C_7  and  C_10
REMARK    4  A    between atoms: C_14  and  C_20
REMARK    5  A    between atoms: C_20  and  S_21
REMARK    6  A    between atoms: S_21  and  C_23
REMARK    7  A    between atoms: C_28  and  O_29
REMARK    8  A    between atoms: O_29  and  C_30
REMARK    9  A    between atoms: C_30  and  C_31
REMARK                            x       y       z     vdW  Elec       q    Type
REMARK                         _______ _______ _______ _____ _____    ______ ____
ROOT
ATOM      1  O   UNL     1     -33.713  25.107   1.978  0.00  0.00    -0.273 OA
ATOM      2  N   UNL     1     -34.903  24.027   3.643  0.00  0.00    -0.268 N 
ATOM      3  C   UNL     1     -34.851  22.699   3.048  0.00  0.00    +0.177 C 
ATOM      4  C   UNL     1     -35.222  21.755   4.183  0.00  0.00    +0.062 C 
ATOM      5  C   UNL     1     -36.150  22.595   5.060  0.00  0.00    +0.132 C 
ATOM      6  C   UNL     1     -35.574  24.001   4.941  0.00  0.00    +0.123 C 
ATOM      7  C   UNL     1     -34.269  25.123   3.077  0.00  0.00    +0.244 C 
ENDROOT
BRANCH   7  10
ATOM      8  O   UNL     1     -32.904  28.043   5.829  0.00  0.00    -0.275 OA
ATOM      9  N   UNL     1     -32.989  26.985   3.762  0.00  0.00    -0.298 N 
ATOM     10  C   UNL     1     -34.303  26.388   3.897  0.00  0.00    +0.149 C 
ATOM     11  C   UNL     1     -35.431  27.327   3.447  0.00  0.00    +0.029 C 
ATOM     12  C   UNL     1     -35.212  28.006   2.079  0.00  0.00    +0.002 C 
ATOM     13  C   UNL     1     -35.131  29.539   2.137  0.00  0.00    +0.000 C 
ATOM     14  C   UNL     1     -31.188  28.542   4.191  0.00  0.00    +0.088 C 
ATOM     15  C   UNL     1     -34.013  30.113   3.013  0.00  0.00    +0.000 C 
ATOM     16  C   UNL     1     -31.533  29.915   3.574  0.00  0.00    +0.010 C 
ATOM     17  C   UNL     1     -32.600  29.875   2.467  0.00  0.00    +0.001 C 
ATOM     18  C   UNL     1     -32.433  27.828   4.714  0.00  0.00    +0.223 C 
ATOM     19  H   UNL     1     -32.464  26.782   2.954  0.00  0.00    +0.150 HD
BRANCH  14  20
ATOM     20  C   UNL     1     -30.173  28.710   5.321  0.00  0.00    +0.074 C 
BRANCH  20  21
ATOM     21  S   UNL     1     -28.554  28.090   4.804  0.00  0.00    -0.077 S 
BRANCH  21  23
ATOM     22  O   UNL     1     -27.666  26.202   6.424  0.00  0.00    -0.285 OA
ATOM     23  C   UNL     1     -27.989  27.378   6.314  0.00  0.00    +0.199 C 
ATOM     24  C   UNL     1     -27.944  28.351   7.459  0.00  0.00    +0.085 C 
ENDBRANCH  21  23
ENDBRANCH  20  21
ENDBRANCH  14  20
ENDBRANCH   7  10
BRANCH   5  25
ATOM     25  O   UNL     1     -36.128  22.130   6.395  0.00  0.00    -0.383 OA
ATOM     26  H   UNL     1     -37.024  21.871   6.662  0.00  0.00    +0.210 HD
ENDBRANCH   5  25
BRANCH   3  28
ATOM     27  O   UNL     1     -36.796  23.457   1.848  0.00  0.00    -0.248 OA
ATOM     28  C   UNL     1     -35.863  22.671   1.943  0.00  0.00    +0.336 C 
BRANCH  28  29
ATOM     29  O   UNL     1     -35.576  21.649   1.088  0.00  0.00    -0.442 OA
BRANCH  29  30
ATOM     30  C   UNL     1     -34.391  21.818   0.302  0.00  0.00    +0.235 C 
BRANCH  30  31
ATOM     31  C   UNL     1     -33.491  20.636   0.512  0.00  0.00    +0.021 C 
ATOM     32  C   UNL     1     -32.215  20.636  -0.042  0.00  0.00    -0.001 C 
ATOM     33  C   UNL     1     -33.941  19.552   1.256  0.00  0.00    -0.001 C 
ATOM     34  C   UNL     1     -31.378  19.537   0.153  0.00  0.00    -0.000 C 
ATOM     35  C   UNL     1     -33.103  18.453   1.451  0.00  0.00    -0.000 C 
ATOM     36  C   UNL     1     -31.822  18.445   0.899  0.00  0.00    -0.000 C 
ENDBRANCH  30  31
ENDBRANCH  29  30
ENDBRANCH  28  29
ENDBRANCH   3  28
TORSDOF 9
ENDMDL
MODEL 3
REMARK VINA RESULT:      -6.7      3.429      5.492
REMARK  Name = 196936
REMARK  9 active torsions:
REMARK  status: ('A' for Active; 'I' for Inactive)
REMARK    1  A    between atoms: C_3  and  C_28
REMARK    2  A    between atoms: C_5  and  O_25
REMARK    3  A    between atoms: C_7  and  C_10
REMARK    4  A    between atoms: C_14  and  C_20
REMARK    5  A    between atoms: C_20  and  S_21
REMARK    6  A    between atoms: S_21  and  C_23
REMARK    7  A    between atoms: C_28  and  O_29
REMARK    8  A    between atoms: O_29  and  C_30
REMARK    9  A    between atoms: C_30  and  C_31
REMARK                            x       y       z     vdW  Elec       q    Type
REMARK                         _______ _______ _______ _____ _____    ______ ____
ROOT
ATOM      1  O   UNL     1     -39.472  26.603   2.684  0.00  0.00    -0.273 OA
ATOM      2  N   UNL     1     -39.712  24.415   1.969  0.00  0.00    -0.268 N 
ATOM      3  C   UNL     1     -38.415  23.945   2.436  0.00  0.00    +0.177 C 
ATOM      4  C   UNL     1     -38.532  22.428   2.434  0.00  0.00    +0.062 C 
ATOM      5  C   UNL     1     -39.529  22.147   1.309  0.00  0.00    +0.132 C 
ATOM      6  C   UNL     1     -40.492  23.325   1.386  0.00  0.00    +0.123 C 
ATOM      7  C   UNL     1     -40.160  25.709   2.189  0.00  0.00    +0.244 C 
ENDROOT
BRANCH   7  10
ATOM      8  O   UNL     1     -44.331  26.311   2.638  0.00  0.00    -0.275 OA
ATOM      9  N   UNL     1     -42.099  26.950   2.717  0.00  0.00    -0.298 N 
ATOM     10  C   UNL     1     -41.581  25.985   1.767  0.00  0.00    +0.149 C 
ATOM     11  C   UNL     1     -41.657  26.481   0.316  0.00  0.00    +0.029 C 
ATOM     12  C   UNL     1     -41.121  27.909   0.083  0.00  0.00    +0.002 C 
ATOM     13  C   UNL     1     -42.171  28.905  -0.432  0.00  0.00    +0.000 C 
ATOM     14  C   UNL     1     -43.741  28.350   3.808  0.00  0.00    +0.088 C 
ATOM     15  C   UNL     1     -43.388  29.115   0.473  0.00  0.00    +0.000 C 
ATOM     16  C   UNL     1     -44.112  29.530   2.883  0.00  0.00    +0.010 C 
ATOM     17  C   UNL     1     -43.077  29.840   1.788  0.00  0.00    +0.001 C 
ATOM     18  C   UNL     1     -43.448  27.079   3.014  0.00  0.00    +0.223 C 
ATOM     19  H   UNL     1     -41.460  27.543   3.176  0.00  0.00    +0.150 HD
BRANCH  14  20
ATOM     20  C   UNL     1     -44.866  28.089   4.809  0.00  0.00    +0.074 C 
BRANCH  20  21
ATOM     21  S   UNL     1     -45.489  29.653   5.471  0.00  0.00    -0.077 S 
BRANCH  21  23
ATOM     22  O   UNL     1     -43.241  30.354   6.668  0.00  0.00    -0.285 OA
ATOM     23  C   UNL     1     -44.369  29.901   6.810  0.00  0.00    +0.199 C 
ATOM     24  C   UNL     1     -44.930  29.499   8.145  0.00  0.00    +0.085 C 
ENDBRANCH  21  23
ENDBRANCH  20  21
ENDBRANCH  14  20
ENDBRANCH   7  10
BRANCH   5  25
ATOM     25  O   UNL     1     -40.188  20.915   1.527  0.00  0.00    -0.383 OA
ATOM     26  H   UNL     1     -39.551  20.262   1.857  0.00  0.00    +0.210 HD
ENDBRANCH   5  25
BRANCH   3  28
ATOM     27  O   UNL     1     -37.555  24.440   0.242  0.00  0.00    -0.248 OA
ATOM     28  C   UNL     1     -37.391  24.430   1.455  0.00  0.00    +0.336 C 
BRANCH  28  29
ATOM     29  O   UNL     1     -36.278  24.844   2.125  0.00  0.00    -0.442 OA
BRANCH  29  30
ATOM     30  C   UNL     1     -35.237  23.869   2.250  0.00  0.00    +0.235 C 
BRANCH  30  31
ATOM     31  C   UNL     1     -35.243  23.323   3.647  0.00  0.00    +0.021 C 
ATOM     32  C   UNL     1     -35.243  21.947   3.848  0.00  0.00    -0.001 C 
ATOM     33  C   UNL     1     -35.250  24.197   4.728  0.00  0.00    -0.001 C 
ATOM     34  C   UNL     1     -35.249  21.439   5.148  0.00  0.00    -0.000 C 
ATOM     35  C   UNL     1     -35.256  23.689   6.028  0.00  0.00    -0.000 C 
ATOM     36  C   UNL     1     -35.256  22.310   6.238  0.00  0.00    -0.000 C 
ENDBRANCH  30  31
ENDBRANCH  29  30
ENDBRANCH  28  29
ENDBRANCH   3  28
TORSDOF 9
ENDMDL
MODEL 4
REMARK VINA RESULT:      -6.7      1.259      1.667
REMARK  Name = 196936
REMARK  9 active torsions:
REMARK  status: ('A' for Active; 'I' for Inactive)
REMARK    1  A    between atoms: C_3  and  C_28
REMARK    2  A    between atoms: C_5  and  O_25
REMARK    3  A    between atoms: C_7  and  C_10
REMARK    4  A    between atoms: C_14  and  C_20
REMARK    5  A    between atoms: C_20  and  S_21
REMARK    6  A    between atoms: S_21  and  C_23
REMARK    7  A    between atoms: C_28  and  O_29
REMARK    8  A    between atoms: O_29  and  C_30
REMARK    9  A    between atoms: C_30  and  C_31
REMARK                            x       y       z     vdW  Elec       q    Type
REMARK                         _______ _______ _______ _____ _____    ______ ____
ROOT
ATOM      1  O   UNL     1     -36.704  26.674   2.605  0.00  0.00    -0.273 OA
ATOM      2  N   UNL     1     -36.286  24.646   3.637  0.00  0.00    -0.268 N 
ATOM      3  C   UNL     1     -35.210  25.117   4.497  0.00  0.00    +0.177 C 
ATOM      4  C   UNL     1     -35.063  24.035   5.558  0.00  0.00    +0.062 C 
ATOM      5  C   UNL     1     -35.490  22.760   4.831  0.00  0.00    +0.132 C 
ATOM      6  C   UNL     1     -36.590  23.239   3.891  0.00  0.00    +0.123 C 
ATOM      7  C   UNL     1     -36.991  25.491   2.794  0.00  0.00    +0.244 C 
ENDROOT
BRANCH   7  10
ATOM      8  O   UNL     1     -41.025  24.370   2.137  0.00  0.00    -0.275 OA
ATOM      9  N   UNL     1     -39.233  25.847   2.141  0.00  0.00    -0.298 N 
ATOM     10  C   UNL     1     -38.165  24.868   2.083  0.00  0.00    +0.149 C 
ATOM     11  C   UNL     1     -37.810  24.461   0.646  0.00  0.00    +0.029 C 
ATOM     12  C   UNL     1     -37.609  25.634  -0.335  0.00  0.00    +0.002 C 
ATOM     13  C   UNL     1     -38.601  25.658  -1.508  0.00  0.00    +0.000 C 
ATOM     14  C   UNL     1     -41.465  26.738   1.867  0.00  0.00    +0.088 C 
ATOM     15  C   UNL     1     -40.081  25.752  -1.124  0.00  0.00    +0.000 C 
ATOM     16  C   UNL     1     -41.744  26.982   0.368  0.00  0.00    +0.010 C 
ATOM     17  C   UNL     1     -40.488  27.098  -0.512  0.00  0.00    +0.001 C 
ATOM     18  C   UNL     1     -40.578  25.513   2.085  0.00  0.00    +0.223 C 
ATOM     19  H   UNL     1     -38.990  26.798   2.224  0.00  0.00    +0.150 HD
BRANCH  14  20
ATOM     20  C   UNL     1     -42.778  26.571   2.630  0.00  0.00    +0.074 C 
BRANCH  20  21
ATOM     21  S   UNL     1     -43.672  28.143   2.688  0.00  0.00    -0.077 S 
BRANCH  21  23
ATOM     22  O   UNL     1     -42.025  28.778   4.654  0.00  0.00    -0.285 OA
ATOM     23  C   UNL     1     -43.190  28.724   4.281  0.00  0.00    +0.199 C 
ATOM     24  C   UNL     1     -44.347  29.147   5.142  0.00  0.00    +0.085 C 
ENDBRANCH  21  23
ENDBRANCH  20  21
ENDBRANCH  14  20
ENDBRANCH   7  10
BRANCH   5  25
ATOM     25  O   UNL     1     -35.968  21.800   5.752  0.00  0.00    -0.383 OA
ATOM     26  H   UNL     1     -35.288  21.123   5.895  0.00  0.00    +0.210 HD
ENDBRANCH   5  25
BRANCH   3  28
ATOM     27  O   UNL     1     -33.832  24.654   2.577  0.00  0.00    -0.248 OA
ATOM     28  C   UNL     1     -33.983  25.235   3.644  0.00  0.00    +0.336 C 
BRANCH  28  29
ATOM     29  O   UNL     1     -33.090  26.073   4.243  0.00  0.00    -0.442 OA
BRANCH  29  30
ATOM     30  C   UNL     1     -32.849  27.306   3.558  0.00  0.00    +0.235 C 
BRANCH  30  31
ATOM     31  C   UNL     1     -32.460  28.354   4.559  0.00  0.00    +0.021 C 
ATOM     32  C   UNL     1     -32.166  27.982   5.866  0.00  0.00    -0.001 C 
ATOM     33  C   UNL     1     -32.397  29.687   4.171  0.00  0.00    -0.001 C 
ATOM     34  C   UNL     1     -31.805  28.957   6.797  0.00  0.00    -0.000 C 
ATOM     35  C   UNL     1     -32.035  30.662   5.101  0.00  0.00    -0.000 C 
ATOM     36  C   UNL     1     -31.740  30.297   6.415  0.00  0.00    -0.000 C 
ENDBRANCH  30  31
ENDBRANCH  29  30
ENDBRANCH  28  29
ENDBRANCH   3  28
TORSDOF 9
ENDMDL
MODEL 5
REMARK VINA RESULT:      -6.7      4.821      9.714
REMARK  Name = 196936
REMARK  9 active torsions:
REMARK  status: ('A' for Active; 'I' for Inactive)
REMARK    1  A    between atoms: C_3  and  C_28
REMARK    2  A    between atoms: C_5  and  O_25
REMARK    3  A    between atoms: C_7  and  C_10
REMARK    4  A    between atoms: C_14  and  C_20
REMARK    5  A    between atoms: C_20  and  S_21
REMARK    6  A    between atoms: S_21  and  C_23
REMARK    7  A    between atoms: C_28  and  O_29
REMARK    8  A    between atoms: O_29  and  C_30
REMARK    9  A    between atoms: C_30  and  C_31
REMARK                            x       y       z     vdW  Elec       q    Type
REMARK                         _______ _______ _______ _____ _____    ______ ____
ROOT
ATOM      1  O   UNL     1     -31.945  26.304   2.737  0.00  0.00    -0.273 OA
ATOM      2  N   UNL     1     -34.158  25.952   3.314  0.00  0.00    -0.268 N 
ATOM      3  C   UNL     1     -34.263  24.611   2.757  0.00  0.00    +0.177 C 
ATOM      4  C   UNL     1     -35.519  24.029   3.389  0.00  0.00    +0.062 C 
ATOM      5  C   UNL     1     -36.401  25.255   3.628  0.00  0.00    +0.132 C 
ATOM      6  C   UNL     1     -35.399  26.350   3.976  0.00  0.00    +0.123 C 
ATOM      7  C   UNL     1     -32.973  26.672   3.308  0.00  0.00    +0.244 C 
ENDROOT
BRANCH   7  10
ATOM      8  O   UNL     1     -32.159  29.423   6.427  0.00  0.00    -0.275 OA
ATOM      9  N   UNL     1     -31.649  28.214   4.510  0.00  0.00    -0.298 N 
ATOM     10  C   UNL     1     -33.005  27.982   4.053  0.00  0.00    +0.149 C 
ATOM     11  C   UNL     1     -33.539  29.123   3.175  0.00  0.00    +0.029 C 
ATOM     12  C   UNL     1     -32.589  29.581   2.048  0.00  0.00    +0.002 C 
ATOM     13  C   UNL     1     -32.129  31.043   2.161  0.00  0.00    +0.000 C 
ATOM     14  C   UNL     1     -29.849  29.306   5.702  0.00  0.00    +0.088 C 
ATOM     15  C   UNL     1     -31.375  31.404   3.444  0.00  0.00    +0.000 C 
ATOM     16  C   UNL     1     -29.516  30.650   5.019  0.00  0.00    +0.010 C 
ATOM     17  C   UNL     1     -29.985  30.765   3.559  0.00  0.00    +0.001 C 
ATOM     18  C   UNL     1     -31.340  28.984   5.623  0.00  0.00    +0.223 C 
ATOM     19  H   UNL     1     -30.909  27.804   4.006  0.00  0.00    +0.150 HD
BRANCH  14  20
ATOM     20  C   UNL     1     -29.400  29.328   7.163  0.00  0.00    +0.074 C 
BRANCH  20  21
ATOM     21  S   UNL     1     -27.671  28.813   7.293  0.00  0.00    -0.077 S 
BRANCH  21  23
ATOM     22  O   UNL     1     -28.397  26.278   7.142  0.00  0.00    -0.285 OA
ATOM     23  C   UNL     1     -27.771  27.189   6.616  0.00  0.00    +0.199 C 
ATOM     24  C   UNL     1     -27.012  27.026   5.329  0.00  0.00    +0.085 C 
ENDBRANCH  21  23
ENDBRANCH  20  21
ENDBRANCH  14  20
ENDBRANCH   7  10
BRANCH   5  25
ATOM     25  O   UNL     1     -37.306  25.016   4.688  0.00  0.00    -0.383 OA
ATOM     26  H   UNL     1     -37.617  24.098   4.646  0.00  0.00    +0.210 HD
ENDBRANCH   5  25
BRANCH   3  28
ATOM     27  O   UNL     1     -35.106  25.599   0.729  0.00  0.00    -0.248 OA
ATOM     28  C   UNL     1     -34.400  24.759   1.272  0.00  0.00    +0.336 C 
BRANCH  28  29
ATOM     29  O   UNL     1     -33.627  23.826   0.647  0.00  0.00    -0.442 OA
BRANCH  29  30
ATOM     30  C   UNL     1     -34.342  22.780  -0.018  0.00  0.00    +0.235 C 
BRANCH  30  31
ATOM     31  C   UNL     1     -33.741  21.459   0.361  0.00  0.00    +0.021 C 
ATOM     32  C   UNL     1     -34.455  20.586   1.175  0.00  0.00    -0.001 C 
ATOM     33  C   UNL     1     -32.476  21.118  -0.105  0.00  0.00    -0.001 C 
ATOM     34  C   UNL     1     -33.896  19.357   1.528  0.00  0.00    -0.000 C 
ATOM     35  C   UNL     1     -31.918  19.889   0.248  0.00  0.00    -0.000 C 
ATOM     36  C   UNL     1     -32.628  19.009   1.064  0.00  0.00    -0.000 C 
ENDBRANCH  30  31
ENDBRANCH  29  30
ENDBRANCH  28  29
ENDBRANCH   3  28
TORSDOF 9
ENDMDL
MODEL 6
REMARK VINA RESULT:      -6.5      3.211      5.653
REMARK  Name = 196936
REMARK  9 active torsions:
REMARK  status: ('A' for Active; 'I' for Inactive)
REMARK    1  A    between atoms: C_3  and  C_28
REMARK    2  A    between atoms: C_5  and  O_25
REMARK    3  A    between atoms: C_7  and  C_10
REMARK    4  A    between atoms: C_14  and  C_20
REMARK    5  A    between atoms: C_20  and  S_21
REMARK    6  A    between atoms: S_21  and  C_23
REMARK    7  A    between atoms: C_28  and  O_29
REMARK    8  A    between atoms: O_29  and  C_30
REMARK    9  A    between atoms: C_30  and  C_31
REMARK                            x       y       z     vdW  Elec       q    Type
REMARK                         _______ _______ _______ _____ _____    ______ ____
ROOT
ATOM      1  O   UNL     1     -34.253  27.231   4.443  0.00  0.00    -0.273 OA
ATOM      2  N   UNL     1     -35.411  27.852   2.537  0.00  0.00    -0.268 N 
ATOM      3  C   UNL     1     -34.466  28.867   2.094  0.00  0.00    +0.177 C 
ATOM      4  C   UNL     1     -34.828  29.118   0.637  0.00  0.00    +0.062 C 
ATOM      5  C   UNL     1     -36.329  28.831   0.585  0.00  0.00    +0.132 C 
ATOM      6  C   UNL     1     -36.507  27.694   1.584  0.00  0.00    +0.123 C 
ATOM      7  C   UNL     1     -35.190  27.068   3.660  0.00  0.00    +0.244 C 
ENDROOT
BRANCH   7  10
ATOM      8  O   UNL     1     -38.138  24.185   2.680  0.00  0.00    -0.275 OA
ATOM      9  N   UNL     1     -35.965  24.988   2.852  0.00  0.00    -0.298 N 
ATOM     10  C   UNL     1     -36.196  25.970   3.894  0.00  0.00    +0.149 C 
ATOM     11  C   UNL     1     -36.075  25.378   5.305  0.00  0.00    +0.029 C 
ATOM     12  C   UNL     1     -34.815  24.521   5.549  0.00  0.00    +0.002 C 
ATOM     13  C   UNL     1     -35.103  23.052   5.894  0.00  0.00    +0.000 C 
ATOM     14  C   UNL     1     -36.365  23.011   1.517  0.00  0.00    +0.088 C 
ATOM     15  C   UNL     1     -35.884  22.262   4.840  0.00  0.00    +0.000 C 
ATOM     16  C   UNL     1     -36.032  21.751   2.345  0.00  0.00    +0.010 C 
ATOM     17  C   UNL     1     -35.103  21.996   3.547  0.00  0.00    +0.001 C 
ATOM     18  C   UNL     1     -36.946  24.123   2.387  0.00  0.00    +0.223 C 
ATOM     19  H   UNL     1     -35.066  24.933   2.454  0.00  0.00    +0.150 HD
BRANCH  14  20
ATOM     20  C   UNL     1     -37.343  22.664   0.396  0.00  0.00    +0.074 C 
BRANCH  20  21
ATOM     21  S   UNL     1     -38.121  21.063   0.718  0.00  0.00    -0.077 S 
BRANCH  21  23
ATOM     22  O   UNL     1     -40.423  21.078   2.015  0.00  0.00    -0.285 OA
ATOM     23  C   UNL     1     -39.759  21.580   1.117  0.00  0.00    +0.199 C 
ATOM     24  C   UNL     1     -40.266  22.696   0.248  0.00  0.00    +0.085 C 
ENDBRANCH  21  23
ENDBRANCH  20  21
ENDBRANCH  14  20
ENDBRANCH   7  10
BRANCH   5  25
ATOM     25  O   UNL     1     -36.717  28.449  -0.719  0.00  0.00    -0.383 OA
ATOM     26  H   UNL     1     -36.478  27.521  -0.869  0.00  0.00    +0.210 HD
ENDBRANCH   5  25
BRANCH   3  28
ATOM     27  O   UNL     1     -35.685  30.793   2.872  0.00  0.00    -0.248 OA
ATOM     28  C   UNL     1     -34.692  30.081   2.944  0.00  0.00    +0.336 C 
BRANCH  28  29
ATOM     29  O   UNL     1     -33.633  30.252   3.785  0.00  0.00    -0.442 OA
BRANCH  29  30
ATOM     30  C   UNL     1     -32.363  29.846   3.265  0.00  0.00    +0.235 C 
BRANCH  30  31
ATOM     31  C   UNL     1     -31.454  29.498   4.407  0.00  0.00    +0.021 C 
ATOM     32  C   UNL     1     -31.836  29.807   5.708  0.00  0.00    -0.001 C 
ATOM     33  C   UNL     1     -30.239  28.872   4.155  0.00  0.00    -0.001 C 
ATOM     34  C   UNL     1     -30.991  29.484   6.771  0.00  0.00    -0.000 C 
ATOM     35  C   UNL     1     -29.395  28.549   5.218  0.00  0.00    -0.000 C 
ATOM     36  C   UNL     1     -29.771  28.855   6.526  0.00  0.00    -0.000 C 
ENDBRANCH  30  31
ENDBRANCH  29  30
ENDBRANCH  28  29
ENDBRANCH   3  28
TORSDOF 9
ENDMDL
MODEL 7
REMARK VINA RESULT:      -6.4      5.061      8.522
REMARK  Name = 196936
REMARK  9 active torsions:
REMARK  status: ('A' for Active; 'I' for Inactive)
REMARK    1  A    between atoms: C_3  and  C_28
REMARK    2  A    between atoms: C_5  and  O_25
REMARK    3  A    between atoms: C_7  and  C_10
REMARK    4  A    between atoms: C_14  and  C_20
REMARK    5  A    between atoms: C_20  and  S_21
REMARK    6  A    between atoms: S_21  and  C_23
REMARK    7  A    between atoms: C_28  and  O_29
REMARK    8  A    between atoms: O_29  and  C_30
REMARK    9  A    between atoms: C_30  and  C_31
REMARK                            x       y       z     vdW  Elec       q    Type
REMARK                         _______ _______ _______ _____ _____    ______ ____
ROOT
ATOM      1  O   UNL     1     -34.367  22.772   0.201  0.00  0.00    -0.273 OA
ATOM      2  N   UNL     1     -33.632  20.639   0.719  0.00  0.00    -0.268 N 
ATOM      3  C   UNL     1     -32.509  20.622  -0.208  0.00  0.00    +0.177 C 
ATOM      4  C   UNL     1     -31.640  19.465   0.262  0.00  0.00    +0.062 C 
ATOM      5  C   UNL     1     -32.642  18.493   0.885  0.00  0.00    +0.132 C 
ATOM      6  C   UNL     1     -33.685  19.412   1.510  0.00  0.00    +0.123 C 
ATOM      7  C   UNL     1     -34.441  21.752   0.889  0.00  0.00    +0.244 C 
ENDROOT
BRANCH   7  10
ATOM      8  O   UNL     1     -36.252  22.547   4.638  0.00  0.00    -0.275 OA
ATOM      9  N   UNL     1     -35.725  23.008   2.422  0.00  0.00    -0.298 N 
ATOM     10  C   UNL     1     -35.465  21.649   1.991  0.00  0.00    +0.149 C 
ATOM     11  C   UNL     1     -36.733  20.921   1.524  0.00  0.00    +0.029 C 
ATOM     12  C   UNL     1     -37.614  21.712   0.535  0.00  0.00    +0.002 C 
ATOM     13  C   UNL     1     -39.027  22.023   1.053  0.00  0.00    +0.000 C 
ATOM     14  C   UNL     1     -36.645  24.782   3.786  0.00  0.00    +0.088 C 
ATOM     15  C   UNL     1     -39.095  22.847   2.342  0.00  0.00    +0.000 C 
ATOM     16  C   UNL     1     -38.160  24.908   3.518  0.00  0.00    +0.010 C 
ATOM     17  C   UNL     1     -38.632  24.301   2.186  0.00  0.00    +0.001 C 
ATOM     18  C   UNL     1     -36.173  23.332   3.696  0.00  0.00    +0.223 C 
ATOM     19  H   UNL     1     -35.577  23.739   1.779  0.00  0.00    +0.150 HD
BRANCH  14  20
ATOM     20  C   UNL     1     -36.301  25.355   5.160  0.00  0.00    +0.074 C 
BRANCH  20  21
ATOM     21  S   UNL     1     -34.511  25.559   5.322  0.00  0.00    -0.077 S 
BRANCH  21  23
ATOM     22  O   UNL     1     -34.675  27.775   3.893  0.00  0.00    -0.285 OA
ATOM     23  C   UNL     1     -34.192  26.653   3.977  0.00  0.00    +0.199 C 
ATOM     24  C   UNL     1     -33.272  26.076   2.938  0.00  0.00    +0.085 C 
ENDBRANCH  21  23
ENDBRANCH  20  21
ENDBRANCH  14  20
ENDBRANCH   7  10
BRANCH   5  25
ATOM     25  O   UNL     1     -32.010  17.681   1.854  0.00  0.00    -0.383 OA
ATOM     26  H   UNL     1     -32.087  18.100   2.727  0.00  0.00    +0.210 HD
ENDBRANCH   5  25
BRANCH   3  28
ATOM     27  O   UNL     1     -32.442  20.537  -2.614  0.00  0.00    -0.248 OA
ATOM     28  C   UNL     1     -33.072  20.379  -1.577  0.00  0.00    +0.336 C 
BRANCH  28  29
ATOM     29  O   UNL     1     -34.367  19.967  -1.471  0.00  0.00    -0.442 OA
BRANCH  29  30
ATOM     30  C   UNL     1     -34.709  18.810  -2.241  0.00  0.00    +0.235 C 
BRANCH  30  31
ATOM     31  C   UNL     1     -35.747  18.019  -1.501  0.00  0.00    +0.021 C 
ATOM     32  C   UNL     1     -35.434  16.751  -1.024  0.00  0.00    -0.001 C 
ATOM     33  C   UNL     1     -37.012  18.560  -1.301  0.00  0.00    -0.001 C 
ATOM     34  C   UNL     1     -36.400  16.015  -0.336  0.00  0.00    -0.000 C 
ATOM     35  C   UNL     1     -37.977  17.823  -0.613  0.00  0.00    -0.000 C 
ATOM     36  C   UNL     1     -37.671  16.551  -0.131  0.00  0.00    -0.000 C 
ENDBRANCH  30  31
ENDBRANCH  29  30
ENDBRANCH  28  29
ENDBRANCH   3  28
TORSDOF 9
ENDMDL
MODEL 8
REMARK VINA RESULT:      -6.4      2.974      9.285
REMARK  Name = 196936
REMARK  9 active torsions:
REMARK  status: ('A' for Active; 'I' for Inactive)
REMARK    1  A    between atoms: C_3  and  C_28
REMARK    2  A    between atoms: C_5  and  O_25
REMARK    3  A    between atoms: C_7  and  C_10
REMARK    4  A    between atoms: C_14  and  C_20
REMARK    5  A    between atoms: C_20  and  S_21
REMARK    6  A    between atoms: S_21  and  C_23
REMARK    7  A    between atoms: C_28  and  O_29
REMARK    8  A    between atoms: O_29  and  C_30
REMARK    9  A    between atoms: C_30  and  C_31
REMARK                            x       y       z     vdW  Elec       q    Type
REMARK                         _______ _______ _______ _____ _____    ______ ____
ROOT
ATOM      1  O   UNL     1     -40.482  22.911   1.851  0.00  0.00    -0.273 OA
ATOM      2  N   UNL     1     -40.386  25.059   0.996  0.00  0.00    -0.268 N 
ATOM      3  C   UNL     1     -41.735  25.451   1.382  0.00  0.00    +0.177 C 
ATOM      4  C   UNL     1     -41.739  26.969   1.278  0.00  0.00    +0.062 C 
ATOM      5  C   UNL     1     -40.721  27.256   0.174  0.00  0.00    +0.132 C 
ATOM      6  C   UNL     1     -39.671  26.168   0.368  0.00  0.00    +0.123 C 
ATOM      7  C   UNL     1     -39.847  23.824   1.321  0.00  0.00    +0.244 C 
ENDROOT
BRANCH   7  10
ATOM      8  O   UNL     1     -35.643  24.037   1.818  0.00  0.00    -0.275 OA
ATOM      9  N   UNL     1     -37.755  23.135   2.174  0.00  0.00    -0.298 N 
ATOM     10  C   UNL     1     -38.392  23.638   0.972  0.00  0.00    +0.149 C 
ATOM     11  C   UNL     1     -38.210  22.703  -0.232  0.00  0.00    +0.029 C 
ATOM     12  C   UNL     1     -38.520  21.217   0.042  0.00  0.00    +0.002 C 
ATOM     13  C   UNL     1     -37.321  20.274  -0.144  0.00  0.00    +0.000 C 
ATOM     14  C   UNL     1     -35.943  22.442   3.618  0.00  0.00    +0.088 C 
ATOM     15  C   UNL     1     -36.106  20.563   0.741  0.00  0.00    +0.000 C 
ATOM     16  C   UNL     1     -35.379  21.091   3.129  0.00  0.00    +0.010 C 
ATOM     17  C   UNL     1     -36.331  20.281   2.232  0.00  0.00    +0.001 C 
ATOM     18  C   UNL     1     -36.408  23.316   2.455  0.00  0.00    +0.223 C 
ATOM     19  H   UNL     1     -38.306  22.641   2.823  0.00  0.00    +0.150 HD
BRANCH  14  20
ATOM     20  C   UNL     1     -34.892  23.187   4.440  0.00  0.00    +0.074 C 
BRANCH  20  21
ATOM     21  S   UNL     1     -35.663  24.539   5.362  0.00  0.00    -0.077 S 
BRANCH  21  23
ATOM     22  O   UNL     1     -34.078  26.465   6.233  0.00  0.00    -0.285 OA
ATOM     23  C   UNL     1     -34.381  25.747   5.288  0.00  0.00    +0.199 C 
ATOM     24  C   UNL     1     -33.694  25.814   3.953  0.00  0.00    +0.085 C 
ENDBRANCH  21  23
ENDBRANCH  20  21
ENDBRANCH  14  20
ENDBRANCH   7  10
BRANCH   5  25
ATOM     25  O   UNL     1     -40.172  28.549   0.330  0.00  0.00    -0.383 OA
ATOM     26  H   UNL     1     -39.220  28.477   0.505  0.00  0.00    +0.210 HD
ENDBRANCH   5  25
BRANCH   3  28
ATOM     27  O   UNL     1     -42.495  24.809  -0.812  0.00  0.00    -0.248 OA
ATOM     28  C   UNL     1     -42.675  24.820   0.399  0.00  0.00    +0.336 C 
BRANCH  28  29
ATOM     29  O   UNL     1     -43.734  24.277   1.064  0.00  0.00    -0.442 OA
BRANCH  29  30
ATOM     30  C   UNL     1     -44.950  25.029   1.003  0.00  0.00    +0.235 C 
BRANCH  30  31
ATOM     31  C   UNL     1     -45.476  25.224   2.394  0.00  0.00    +0.021 C 
ATOM     32  C   UNL     1     -46.496  24.404   2.865  0.00  0.00    -0.001 C 
ATOM     33  C   UNL     1     -44.941  26.222   3.200  0.00  0.00    -0.001 C 
ATOM     34  C   UNL     1     -46.986  24.586   4.159  0.00  0.00    -0.000 C 
ATOM     35  C   UNL     1     -45.430  26.402   4.493  0.00  0.00    -0.000 C 
ATOM     36  C   UNL     1     -46.453  25.585   4.973  0.00  0.00    -0.000 C 
ENDBRANCH  30  31
ENDBRANCH  29  30
ENDBRANCH  28  29
ENDBRANCH   3  28
TORSDOF 9
ENDMDL
MODEL 9
REMARK VINA RESULT:      -6.4      3.458      5.958
REMARK  Name = 196936
REMARK  9 active torsions:
REMARK  status: ('A' for Active; 'I' for Inactive)
REMARK    1  A    between atoms: C_3  and  C_28
REMARK    2  A    between atoms: C_5  and  O_25
REMARK    3  A    between atoms: C_7  and  C_10
REMARK    4  A    between atoms: C_14  and  C_20
REMARK    5  A    between atoms: C_20  and  S_21
REMARK    6  A    between atoms: S_21  and  C_23
REMARK    7  A    between atoms: C_28  and  O_29
REMARK    8  A    between atoms: O_29  and  C_30
REMARK    9  A    between atoms: C_30  and  C_31
REMARK                            x       y       z     vdW  Elec       q    Type
REMARK                         _______ _______ _______ _____ _____    ______ ____
ROOT
ATOM      1  O   UNL     1     -32.718  25.595   3.420  0.00  0.00    -0.273 OA
ATOM      2  N   UNL     1     -33.913  27.540   3.034  0.00  0.00    -0.268 N 
ATOM      3  C   UNL     1     -32.769  28.367   2.675  0.00  0.00    +0.177 C 
ATOM      4  C   UNL     1     -33.375  29.581   1.986  0.00  0.00    +0.062 C 
ATOM      5  C   UNL     1     -34.745  29.724   2.649  0.00  0.00    +0.132 C 
ATOM      6  C   UNL     1     -35.165  28.283   2.910  0.00  0.00    +0.123 C 
ATOM      7  C   UNL     1     -33.794  26.189   3.323  0.00  0.00    +0.244 C 
ENDROOT
BRANCH   7  10
ATOM      8  O   UNL     1     -37.337  24.119   2.260  0.00  0.00    -0.275 OA
ATOM      9  N   UNL     1     -35.053  24.311   2.639  0.00  0.00    -0.298 N 
ATOM     10  C   UNL     1     -35.093  25.452   3.532  0.00  0.00    +0.149 C 
ATOM     11  C   UNL     1     -35.289  25.050   5.001  0.00  0.00    +0.029 C 
ATOM     12  C   UNL     1     -34.361  23.923   5.499  0.00  0.00    +0.002 C 
ATOM     13  C   UNL     1     -35.095  22.652   5.954  0.00  0.00    +0.000 C 
ATOM     14  C   UNL     1     -35.872  22.355   1.475  0.00  0.00    +0.088 C 
ATOM     15  C   UNL     1     -35.962  21.969   4.892  0.00  0.00    +0.000 C 
ATOM     16  C   UNL     1     -36.002  21.179   2.467  0.00  0.00    +0.010 C 
ATOM     17  C   UNL     1     -35.167  21.323   3.750  0.00  0.00    +0.001 C 
ATOM     18  C   UNL     1     -36.191  23.694   2.139  0.00  0.00    +0.223 C 
ATOM     19  H   UNL     1     -34.173  23.956   2.373  0.00  0.00    +0.150 HD
BRANCH  14  20
ATOM     20  C   UNL     1     -36.792  22.139   0.274  0.00  0.00    +0.074 C 
BRANCH  20  21
ATOM     21  S   UNL     1     -37.865  20.710   0.558  0.00  0.00    -0.077 S 
BRANCH  21  23
ATOM     22  O   UNL     1     -40.211  21.147   1.691  0.00  0.00    -0.285 OA
ATOM     23  C   UNL     1     -39.403  21.520   0.851  0.00  0.00    +0.199 C 
ATOM     24  C   UNL     1     -39.632  22.714  -0.033  0.00  0.00    +0.085 C 
ENDBRANCH  21  23
ENDBRANCH  20  21
ENDBRANCH  14  20
ENDBRANCH   7  10
BRANCH   5  25
ATOM     25  O   UNL     1     -35.648  30.386   1.786  0.00  0.00    -0.383 OA
ATOM     26  H   UNL     1     -35.838  29.819   1.021  0.00  0.00    +0.210 HD
ENDBRANCH   5  25
BRANCH   3  28
ATOM     27  O   UNL     1     -32.655  29.018   4.991  0.00  0.00    -0.248 OA
ATOM     28  C   UNL     1     -32.074  28.736   3.951  0.00  0.00    +0.336 C 
BRANCH  28  29
ATOM     29  O   UNL     1     -30.725  28.706   3.760  0.00  0.00    -0.442 OA
BRANCH  29  30
ATOM     30  C   UNL     1     -29.983  29.714   4.453  0.00  0.00    +0.235 C 
BRANCH  30  31
ATOM     31  C   UNL     1     -29.150  29.065   5.519  0.00  0.00    +0.021 C 
ATOM     32  C   UNL     1     -28.503  27.863   5.249  0.00  0.00    -0.001 C 
ATOM     33  C   UNL     1     -29.033  29.668   6.765  0.00  0.00    -0.001 C 
ATOM     34  C   UNL     1     -27.729  27.259   6.241  0.00  0.00    -0.000 C 
ATOM     35  C   UNL     1     -28.259  29.064   7.756  0.00  0.00    -0.000 C 
ATOM     36  C   UNL     1     -27.607  27.859   7.494  0.00  0.00    -0.000 C 
ENDBRANCH  30  31
ENDBRANCH  29  30
ENDBRANCH  28  29
ENDBRANCH   3  28
TORSDOF 9
ENDMDL
