MODEL 1
REMARK VINA RESULT:      -6.3      0.000      0.000
REMARK  Name = 191017
REMARK  9 active torsions:
REMARK  status: ('A' for Active; 'I' for Inactive)
REMARK    1  A    between atoms: N_4  and  C_20
REMARK    2  A    between atoms: C_20  and  C_21
REMARK    3  A    between atoms: C_21  and  O_22
REMARK    4  A    between atoms: C_21  and  C_24
REMARK    5  A    between atoms: C_24  and  O_25
REMARK    6  A    between atoms: C_24  and  C_27
REMARK    7  A    between atoms: C_27  and  O_28
REMARK    8  A    between atoms: C_27  and  C_30
REMARK    9  A    between atoms: C_30  and  O_31
REMARK                            x       y       z     vdW  Elec       q    Type
REMARK                         _______ _______ _______ _____ _____    ______ ____
ROOT
ATOM      1 BR   UNL     1     -32.209  18.859   0.743  0.00  0.00    -0.050 Br
ATOM      2  O   UNL     1     -40.746  20.944   0.584  0.00  0.00    -0.266 OA
ATOM      3  O   UNL     1     -39.937  24.742   3.044  0.00  0.00    -0.193 OA
ATOM      4  N   UNL     1     -36.266  22.059   2.017  0.00  0.00    -0.270 N 
ATOM      5  N   UNL     1     -38.111  20.376   0.679  0.00  0.00    -0.396 NA
ATOM      6  N   UNL     1     -38.140  23.436   2.546  0.00  0.00    -0.303 NA
ATOM      7  N   UNL     1     -40.357  22.872   1.830  0.00  0.00    -0.196 N 
ATOM      8  C   UNL     1     -35.805  20.886   1.378  0.00  0.00    +0.150 C 
ATOM      9  C   UNL     1     -37.616  22.383   1.990  0.00  0.00    +0.232 C 
ATOM     10  C   UNL     1     -36.743  20.065   0.719  0.00  0.00    +0.131 C 
ATOM     11  C   UNL     1     -38.542  21.447   1.262  0.00  0.00    +0.230 C 
ATOM     12  C   UNL     1     -34.455  20.488   1.362  0.00  0.00    +0.007 C 
ATOM     13  C   UNL     1     -36.325  18.892   0.072  0.00  0.00    +0.026 C 
ATOM     14  C   UNL     1     -34.984  18.519   0.069  0.00  0.00    -0.014 C 
ATOM     15  C   UNL     1     -34.050  19.317   0.714  0.00  0.00    +0.028 C 
ATOM     16  C   UNL     1     -40.009  21.713   1.178  0.00  0.00    +0.293 C 
ATOM     17  C   UNL     1     -39.486  23.731   2.501  0.00  0.00    +0.273 C 
ATOM     18  C   UNL     1     -34.602  17.259  -0.638  0.00  0.00    +0.032 C 
ATOM     19  H   UNL     1     -41.310  23.119   1.822  0.00  0.00    +0.169 HD
ENDROOT
BRANCH   4  20
ATOM     20  C   UNL     1     -35.286  22.904   2.698  0.00  0.00    +0.126 C 
BRANCH  20  21
ATOM     21  C   UNL     1     -35.165  22.489   4.169  0.00  0.00    +0.159 C 
BRANCH  21  22
ATOM     22  O   UNL     1     -36.456  22.093   4.636  0.00  0.00    -0.380 OA
ATOM     23  H   UNL     1     -36.357  21.507   5.403  0.00  0.00    +0.211 HD
ENDBRANCH  21  22
BRANCH  21  24
ATOM     24  C   UNL     1     -34.626  23.622   5.063  0.00  0.00    +0.168 C 
BRANCH  24  25
ATOM     25  O   UNL     1     -35.279  23.584   6.331  0.00  0.00    -0.379 OA
ATOM     26  H   UNL     1     -35.561  24.480   6.576  0.00  0.00    +0.211 HD
ENDBRANCH  24  25
BRANCH  24  27
ATOM     27  C   UNL     1     -34.823  25.020   4.449  0.00  0.00    +0.169 C 
BRANCH  27  28
ATOM     28  O   UNL     1     -33.629  25.785   4.634  0.00  0.00    -0.379 OA
ATOM     29  H   UNL     1     -33.062  25.344   5.285  0.00  0.00    +0.211 HD
ENDBRANCH  27  28
BRANCH  27  30
ATOM     30  C   UNL     1     -35.987  25.777   5.088  0.00  0.00    +0.169 C 
BRANCH  30  31
ATOM     31  O   UNL     1     -37.202  25.106   4.764  0.00  0.00    -0.379 OA
ATOM     32  H   UNL     1     -37.281  25.028   3.801  0.00  0.00    +0.211 HD
ENDBRANCH  30  31
ENDBRANCH  27  30
ENDBRANCH  24  27
ENDBRANCH  21  24
ENDBRANCH  20  21
ENDBRANCH   4  20
TORSDOF 9
ENDMDL
MODEL 2
REMARK VINA RESULT:      -6.0      3.837      7.078
REMARK  Name = 191017
REMARK  9 active torsions:
REMARK  status: ('A' for Active; 'I' for Inactive)
REMARK    1  A    between atoms: N_4  and  C_20
REMARK    2  A    between atoms: C_20  and  C_21
REMARK    3  A    between atoms: C_21  and  O_22
REMARK    4  A    between atoms: C_21  and  C_24
REMARK    5  A    between atoms: C_24  and  O_25
REMARK    6  A    between atoms: C_24  and  C_27
REMARK    7  A    between atoms: C_27  and  O_28
REMARK    8  A    between atoms: C_27  and  C_30
REMARK    9  A    between atoms: C_30  and  O_31
REMARK                            x       y       z     vdW  Elec       q    Type
REMARK                         _______ _______ _______ _____ _____    ______ ____
ROOT
ATOM      1 BR   UNL     1     -38.408  28.149  -1.528  0.00  0.00    -0.050 Br
ATOM      2  O   UNL     1     -34.096  26.395   5.928  0.00  0.00    -0.266 OA
ATOM      3  O   UNL     1     -35.924  22.180   6.077  0.00  0.00    -0.193 OA
ATOM      4  N   UNL     1     -37.141  24.894   2.487  0.00  0.00    -0.270 N 
ATOM      5  N   UNL     1     -35.453  26.854   3.643  0.00  0.00    -0.396 NA
ATOM      6  N   UNL     1     -36.522  23.501   4.322  0.00  0.00    -0.303 NA
ATOM      7  N   UNL     1     -35.011  24.256   6.022  0.00  0.00    -0.196 N 
ATOM      8  C   UNL     1     -36.999  26.151   1.859  0.00  0.00    +0.150 C 
ATOM      9  C   UNL     1     -36.459  24.622   3.666  0.00  0.00    +0.232 C 
ATOM     10  C   UNL     1     -36.153  27.110   2.453  0.00  0.00    +0.131 C 
ATOM     11  C   UNL     1     -35.579  25.706   4.226  0.00  0.00    +0.230 C 
ATOM     12  C   UNL     1     -37.657  26.503   0.665  0.00  0.00    +0.007 C 
ATOM     13  C   UNL     1     -35.984  28.370   1.859  0.00  0.00    +0.026 C 
ATOM     14  C   UNL     1     -36.645  28.695   0.678  0.00  0.00    -0.014 C 
ATOM     15  C   UNL     1     -37.481  27.762   0.082  0.00  0.00    +0.028 C 
ATOM     16  C   UNL     1     -34.804  25.506   5.487  0.00  0.00    +0.293 C 
ATOM     17  C   UNL     1     -35.831  23.261   5.490  0.00  0.00    +0.273 C 
ATOM     18  C   UNL     1     -36.424  30.052   0.095  0.00  0.00    +0.032 C 
ATOM     19  H   UNL     1     -34.536  24.045   6.857  0.00  0.00    +0.169 HD
ENDROOT
BRANCH   4  20
ATOM     20  C   UNL     1     -38.021  23.906   1.864  0.00  0.00    +0.126 C 
BRANCH  20  21
ATOM     21  C   UNL     1     -37.196  22.918   1.032  0.00  0.00    +0.159 C 
BRANCH  21  22
ATOM     22  O   UNL     1     -37.391  23.214  -0.351  0.00  0.00    -0.380 OA
ATOM     23  H   UNL     1     -37.301  22.401  -0.873  0.00  0.00    +0.211 HD
ENDBRANCH  21  22
BRANCH  21  24
ATOM     24  C   UNL     1     -37.584  21.450   1.297  0.00  0.00    +0.168 C 
BRANCH  24  25
ATOM     25  O   UNL     1     -38.195  21.340   2.581  0.00  0.00    -0.379 OA
ATOM     26  H   UNL     1     -37.515  21.404   3.270  0.00  0.00    +0.211 HD
ENDBRANCH  24  25
BRANCH  24  27
ATOM     27  C   UNL     1     -36.382  20.489   1.240  0.00  0.00    +0.169 C 
BRANCH  27  28
ATOM     28  O   UNL     1     -36.835  19.157   1.495  0.00  0.00    -0.379 OA
ATOM     29  H   UNL     1     -37.126  18.751   0.664  0.00  0.00    +0.211 HD
ENDBRANCH  27  28
BRANCH  27  30
ATOM     30  C   UNL     1     -35.308  20.840   2.269  0.00  0.00    +0.169 C 
BRANCH  30  31
ATOM     31  O   UNL     1     -35.791  20.508   3.567  0.00  0.00    -0.379 OA
ATOM     32  H   UNL     1     -36.750  20.646   3.600  0.00  0.00    +0.211 HD
ENDBRANCH  30  31
ENDBRANCH  27  30
ENDBRANCH  24  27
ENDBRANCH  21  24
ENDBRANCH  20  21
ENDBRANCH   4  20
TORSDOF 9
ENDMDL
MODEL 3
REMARK VINA RESULT:      -5.9      2.446      4.929
REMARK  Name = 191017
REMARK  9 active torsions:
REMARK  status: ('A' for Active; 'I' for Inactive)
REMARK    1  A    between atoms: N_4  and  C_20
REMARK    2  A    between atoms: C_20  and  C_21
REMARK    3  A    between atoms: C_21  and  O_22
REMARK    4  A    between atoms: C_21  and  C_24
REMARK    5  A    between atoms: C_24  and  O_25
REMARK    6  A    between atoms: C_24  and  C_27
REMARK    7  A    between atoms: C_27  and  O_28
REMARK    8  A    between atoms: C_27  and  C_30
REMARK    9  A    between atoms: C_30  and  O_31
REMARK                            x       y       z     vdW  Elec       q    Type
REMARK                         _______ _______ _______ _____ _____    ______ ____
ROOT
ATOM      1 BR   UNL     1     -38.182  20.491  -1.959  0.00  0.00    -0.050 Br
ATOM      2  O   UNL     1     -34.594  21.856   5.948  0.00  0.00    -0.266 OA
ATOM      3  O   UNL     1     -36.009  26.229   5.914  0.00  0.00    -0.193 OA
ATOM      4  N   UNL     1     -37.072  23.627   2.195  0.00  0.00    -0.270 N 
ATOM      5  N   UNL     1     -35.722  21.519   3.521  0.00  0.00    -0.396 NA
ATOM      6  N   UNL     1     -36.531  24.963   4.095  0.00  0.00    -0.303 NA
ATOM      7  N   UNL     1     -35.301  24.074   5.950  0.00  0.00    -0.196 N 
ATOM      8  C   UNL     1     -36.980  22.359   1.578  0.00  0.00    +0.150 C 
ATOM      9  C   UNL     1     -36.503  23.838   3.444  0.00  0.00    +0.232 C 
ATOM     10  C   UNL     1     -36.303  21.327   2.258  0.00  0.00    +0.131 C 
ATOM     11  C   UNL     1     -35.800  22.676   4.093  0.00  0.00    +0.230 C 
ATOM     12  C   UNL     1     -37.529  22.067   0.315  0.00  0.00    +0.007 C 
ATOM     13  C   UNL     1     -36.190  20.053   1.679  0.00  0.00    +0.026 C 
ATOM     14  C   UNL     1     -36.741  19.787   0.429  0.00  0.00    -0.014 C 
ATOM     15  C   UNL     1     -37.410  20.795  -0.252  0.00  0.00    +0.028 C 
ATOM     16  C   UNL     1     -35.159  22.807   5.436  0.00  0.00    +0.293 C 
ATOM     17  C   UNL     1     -35.956  25.141   5.335  0.00  0.00    +0.273 C 
ATOM     18  C   UNL     1     -36.588  18.412  -0.134  0.00  0.00    +0.032 C 
ATOM     19  H   UNL     1     -34.904  24.243   6.834  0.00  0.00    +0.169 HD
ENDROOT
BRANCH   4  20
ATOM     20  C   UNL     1     -37.776  24.692   1.482  0.00  0.00    +0.126 C 
BRANCH  20  21
ATOM     21  C   UNL     1     -39.280  24.610   1.765  0.00  0.00    +0.159 C 
BRANCH  21  22
ATOM     22  O   UNL     1     -39.985  24.790   0.536  0.00  0.00    -0.380 OA
ATOM     23  H   UNL     1     -40.806  24.274   0.555  0.00  0.00    +0.211 HD
ENDBRANCH  21  22
BRANCH  21  24
ATOM     24  C   UNL     1     -39.752  25.669   2.781  0.00  0.00    +0.168 C 
BRANCH  24  25
ATOM     25  O   UNL     1     -39.762  25.105   4.092  0.00  0.00    -0.379 OA
ATOM     26  H   UNL     1     -40.674  24.884   4.342  0.00  0.00    +0.211 HD
ENDBRANCH  24  25
BRANCH  24  27
ATOM     27  C   UNL     1     -41.156  26.219   2.471  0.00  0.00    +0.169 C 
BRANCH  27  28
ATOM     28  O   UNL     1     -41.031  27.391   1.662  0.00  0.00    -0.379 OA
ATOM     29  H   UNL     1     -41.138  27.153   0.729  0.00  0.00    +0.211 HD
ENDBRANCH  27  28
BRANCH  27  30
ATOM     30  C   UNL     1     -41.931  26.583   3.737  0.00  0.00    +0.169 C 
BRANCH  30  31
ATOM     31  O   UNL     1     -41.253  27.647   4.398  0.00  0.00    -0.379 OA
ATOM     32  H   UNL     1     -40.841  27.313   5.210  0.00  0.00    +0.211 HD
ENDBRANCH  30  31
ENDBRANCH  27  30
ENDBRANCH  24  27
ENDBRANCH  21  24
ENDBRANCH  20  21
ENDBRANCH   4  20
TORSDOF 9
ENDMDL
MODEL 4
REMARK VINA RESULT:      -5.8      3.377      6.613
REMARK  Name = 191017
REMARK  9 active torsions:
REMARK  status: ('A' for Active; 'I' for Inactive)
REMARK    1  A    between atoms: N_4  and  C_20
REMARK    2  A    between atoms: C_20  and  C_21
REMARK    3  A    between atoms: C_21  and  O_22
REMARK    4  A    between atoms: C_21  and  C_24
REMARK    5  A    between atoms: C_24  and  O_25
REMARK    6  A    between atoms: C_24  and  C_27
REMARK    7  A    between atoms: C_27  and  O_28
REMARK    8  A    between atoms: C_27  and  C_30
REMARK    9  A    between atoms: C_30  and  O_31
REMARK                            x       y       z     vdW  Elec       q    Type
REMARK                         _______ _______ _______ _____ _____    ______ ____
ROOT
ATOM      1 BR   UNL     1     -40.687  25.142  -1.423  0.00  0.00    -0.050 Br
ATOM      2  O   UNL     1     -35.345  26.406   5.441  0.00  0.00    -0.266 OA
ATOM      3  O   UNL     1     -34.963  21.869   6.070  0.00  0.00    -0.193 OA
ATOM      4  N   UNL     1     -37.656  23.302   2.545  0.00  0.00    -0.270 N 
ATOM      5  N   UNL     1     -36.977  25.933   3.346  0.00  0.00    -0.396 NA
ATOM      6  N   UNL     1     -36.279  22.563   4.347  0.00  0.00    -0.303 NA
ATOM      7  N   UNL     1     -35.139  24.112   5.777  0.00  0.00    -0.196 N 
ATOM      8  C   UNL     1     -38.181  24.405   1.836  0.00  0.00    +0.150 C 
ATOM      9  C   UNL     1     -36.813  23.507   3.630  0.00  0.00    +0.232 C 
ATOM     10  C   UNL     1     -37.828  25.704   2.254  0.00  0.00    +0.131 C 
ATOM     11  C   UNL     1     -36.493  24.929   4.002  0.00  0.00    +0.230 C 
ATOM     12  C   UNL     1     -39.041  24.280   0.729  0.00  0.00    +0.007 C 
ATOM     13  C   UNL     1     -38.328  26.826   1.575  0.00  0.00    +0.026 C 
ATOM     14  C   UNL     1     -39.177  26.678   0.483  0.00  0.00    -0.014 C 
ATOM     15  C   UNL     1     -39.533  25.405   0.060  0.00  0.00    +0.028 C 
ATOM     16  C   UNL     1     -35.594  25.249   5.152  0.00  0.00    +0.293 C 
ATOM     17  C   UNL     1     -35.445  22.799   5.419  0.00  0.00    +0.273 C 
ATOM     18  C   UNL     1     -39.676  27.911  -0.198  0.00  0.00    +0.032 C 
ATOM     19  H   UNL     1     -34.540  24.237   6.548  0.00  0.00    +0.169 HD
ENDROOT
BRANCH   4  20
ATOM     20  C   UNL     1     -38.027  21.958   2.104  0.00  0.00    +0.126 C 
BRANCH  20  21
ATOM     21  C   UNL     1     -37.009  21.440   1.082  0.00  0.00    +0.159 C 
BRANCH  21  22
ATOM     22  O   UNL     1     -37.702  21.116  -0.125  0.00  0.00    -0.380 OA
ATOM     23  H   UNL     1     -38.561  20.720   0.091  0.00  0.00    +0.211 HD
ENDBRANCH  21  22
BRANCH  21  24
ATOM     24  C   UNL     1     -36.248  20.196   1.580  0.00  0.00    +0.168 C 
BRANCH  24  25
ATOM     25  O   UNL     1     -36.787  19.773   2.832  0.00  0.00    -0.379 OA
ATOM     26  H   UNL     1     -37.297  18.958   2.705  0.00  0.00    +0.211 HD
ENDBRANCH  24  25
BRANCH  24  27
ATOM     27  C   UNL     1     -34.738  20.443   1.753  0.00  0.00    +0.169 C 
BRANCH  27  28
ATOM     28  O   UNL     1     -34.360  21.587   0.983  0.00  0.00    -0.379 OA
ATOM     29  H   UNL     1     -35.148  22.112   0.778  0.00  0.00    +0.211 HD
ENDBRANCH  27  28
BRANCH  27  30
ATOM     30  C   UNL     1     -33.898  19.251   1.293  0.00  0.00    +0.169 C 
BRANCH  30  31
ATOM     31  O   UNL     1     -34.772  18.220   0.844  0.00  0.00    -0.379 OA
ATOM     32  H   UNL     1     -35.092  17.713   1.607  0.00  0.00    +0.211 HD
ENDBRANCH  30  31
ENDBRANCH  27  30
ENDBRANCH  24  27
ENDBRANCH  21  24
ENDBRANCH  20  21
ENDBRANCH   4  20
TORSDOF 9
ENDMDL
MODEL 5
REMARK VINA RESULT:      -5.8      2.345      4.269
REMARK  Name = 191017
REMARK  9 active torsions:
REMARK  status: ('A' for Active; 'I' for Inactive)
REMARK    1  A    between atoms: N_4  and  C_20
REMARK    2  A    between atoms: C_20  and  C_21
REMARK    3  A    between atoms: C_21  and  O_22
REMARK    4  A    between atoms: C_21  and  C_24
REMARK    5  A    between atoms: C_24  and  O_25
REMARK    6  A    between atoms: C_24  and  C_27
REMARK    7  A    between atoms: C_27  and  O_28
REMARK    8  A    between atoms: C_27  and  C_30
REMARK    9  A    between atoms: C_30  and  O_31
REMARK                            x       y       z     vdW  Elec       q    Type
REMARK                         _______ _______ _______ _____ _____    ______ ____
ROOT
ATOM      1 BR   UNL     1     -35.297  20.294  -2.564  0.00  0.00    -0.050 Br
ATOM      2  O   UNL     1     -35.371  21.590   6.129  0.00  0.00    -0.266 OA
ATOM      3  O   UNL     1     -36.280  26.055   5.527  0.00  0.00    -0.193 OA
ATOM      4  N   UNL     1     -35.840  23.444   1.690  0.00  0.00    -0.270 N 
ATOM      5  N   UNL     1     -35.366  21.276   3.450  0.00  0.00    -0.396 NA
ATOM      6  N   UNL     1     -36.066  24.785   3.650  0.00  0.00    -0.303 NA
ATOM      7  N   UNL     1     -35.831  23.854   5.846  0.00  0.00    -0.196 N 
ATOM      8  C   UNL     1     -35.592  22.158   1.162  0.00  0.00    +0.150 C 
ATOM      9  C   UNL     1     -35.850  23.645   3.064  0.00  0.00    +0.232 C 
ATOM     10  C   UNL     1     -35.359  21.095   2.058  0.00  0.00    +0.131 C 
ATOM     11  C   UNL     1     -35.591  22.450   3.942  0.00  0.00    +0.230 C 
ATOM     12  C   UNL     1     -35.565  21.875  -0.217  0.00  0.00    +0.007 C 
ATOM     13  C   UNL     1     -35.110  19.802   1.573  0.00  0.00    +0.026 C 
ATOM     14  C   UNL     1     -35.088  19.546   0.205  0.00  0.00    -0.014 C 
ATOM     15  C   UNL     1     -35.315  20.583  -0.689  0.00  0.00    +0.028 C 
ATOM     16  C   UNL     1     -35.583  22.567   5.432  0.00  0.00    +0.293 C 
ATOM     17  C   UNL     1     -36.069  24.952   5.018  0.00  0.00    +0.273 C 
ATOM     18  C   UNL     1     -34.818  18.149  -0.249  0.00  0.00    +0.032 C 
ATOM     19  H   UNL     1     -35.842  24.016   6.816  0.00  0.00    +0.169 HD
ENDROOT
BRANCH   4  20
ATOM     20  C   UNL     1     -36.081  24.540   0.753  0.00  0.00    +0.126 C 
BRANCH  20  21
ATOM     21  C   UNL     1     -37.588  24.747   0.560  0.00  0.00    +0.159 C 
BRANCH  21  22
ATOM     22  O   UNL     1     -37.891  24.608  -0.828  0.00  0.00    -0.380 OA
ATOM     23  H   UNL     1     -37.070  24.638  -1.344  0.00  0.00    +0.211 HD
ENDBRANCH  21  22
BRANCH  21  24
ATOM     24  C   UNL     1     -38.064  26.129   1.049  0.00  0.00    +0.168 C 
BRANCH  24  25
ATOM     25  O   UNL     1     -36.956  26.864   1.565  0.00  0.00    -0.379 OA
ATOM     26  H   UNL     1     -36.269  26.936   0.882  0.00  0.00    +0.211 HD
ENDBRANCH  24  25
BRANCH  24  27
ATOM     27  C   UNL     1     -39.148  26.042   2.140  0.00  0.00    +0.169 C 
BRANCH  27  28
ATOM     28  O   UNL     1     -38.606  26.515   3.375  0.00  0.00    -0.379 OA
ATOM     29  H   UNL     1     -37.640  26.551   3.312  0.00  0.00    +0.211 HD
ENDBRANCH  27  28
BRANCH  27  30
ATOM     30  C   UNL     1     -39.650  24.613   2.347  0.00  0.00    +0.169 C 
BRANCH  30  31
ATOM     31  O   UNL     1     -39.250  24.170   3.640  0.00  0.00    -0.379 OA
ATOM     32  H   UNL     1     -39.168  23.203   3.640  0.00  0.00    +0.211 HD
ENDBRANCH  30  31
ENDBRANCH  27  30
ENDBRANCH  24  27
ENDBRANCH  21  24
ENDBRANCH  20  21
ENDBRANCH   4  20
TORSDOF 9
ENDMDL
MODEL 6
REMARK VINA RESULT:      -5.7      4.180      7.758
REMARK  Name = 191017
REMARK  9 active torsions:
REMARK  status: ('A' for Active; 'I' for Inactive)
REMARK    1  A    between atoms: N_4  and  C_20
REMARK    2  A    between atoms: C_20  and  C_21
REMARK    3  A    between atoms: C_21  and  O_22
REMARK    4  A    between atoms: C_21  and  C_24
REMARK    5  A    between atoms: C_24  and  O_25
REMARK    6  A    between atoms: C_24  and  C_27
REMARK    7  A    between atoms: C_27  and  O_28
REMARK    8  A    between atoms: C_27  and  C_30
REMARK    9  A    between atoms: C_30  and  O_31
REMARK                            x       y       z     vdW  Elec       q    Type
REMARK                         _______ _______ _______ _____ _____    ______ ____
ROOT
ATOM      1 BR   UNL     1     -37.208  30.289  -1.225  0.00  0.00    -0.050 Br
ATOM      2  O   UNL     1     -33.710  26.635   5.963  0.00  0.00    -0.266 OA
ATOM      3  O   UNL     1     -36.292  22.875   5.395  0.00  0.00    -0.193 OA
ATOM      4  N   UNL     1     -36.788  26.282   2.252  0.00  0.00    -0.270 N 
ATOM      5  N   UNL     1     -34.832  27.685   3.746  0.00  0.00    -0.396 NA
ATOM      6  N   UNL     1     -36.539  24.535   3.857  0.00  0.00    -0.303 NA
ATOM      7  N   UNL     1     -35.010  24.722   5.694  0.00  0.00    -0.196 N 
ATOM      8  C   UNL     1     -36.380  27.569   1.835  0.00  0.00    +0.150 C 
ATOM      9  C   UNL     1     -36.233  25.710   3.390  0.00  0.00    +0.232 C 
ATOM     10  C   UNL     1     -35.406  28.247   2.595  0.00  0.00    +0.131 C 
ATOM     11  C   UNL     1     -35.200  26.508   4.137  0.00  0.00    +0.230 C 
ATOM     12  C   UNL     1     -36.896  28.217   0.696  0.00  0.00    +0.007 C 
ATOM     13  C   UNL     1     -34.974  29.527   2.213  0.00  0.00    +0.026 C 
ATOM     14  C   UNL     1     -35.497  30.147   1.083  0.00  0.00    -0.014 C 
ATOM     15  C   UNL     1     -36.458  29.492   0.325  0.00  0.00    +0.028 C 
ATOM     16  C   UNL     1     -34.546  25.975   5.369  0.00  0.00    +0.293 C 
ATOM     17  C   UNL     1     -35.969  23.994   4.990  0.00  0.00    +0.273 C 
ATOM     18  C   UNL     1     -34.998  31.509   0.728  0.00  0.00    +0.032 C 
ATOM     19  H   UNL     1     -34.628  24.299   6.496  0.00  0.00    +0.169 HD
ENDROOT
BRANCH   4  20
ATOM     20  C   UNL     1     -37.799  25.587   1.458  0.00  0.00    +0.126 C 
BRANCH  20  21
ATOM     21  C   UNL     1     -39.192  25.825   2.055  0.00  0.00    +0.159 C 
BRANCH  21  22
ATOM     22  O   UNL     1     -39.053  26.634   3.223  0.00  0.00    -0.380 OA
ATOM     23  H   UNL     1     -39.738  26.393   3.867  0.00  0.00    +0.211 HD
ENDBRANCH  21  22
BRANCH  21  24
ATOM     24  C   UNL     1     -39.910  24.513   2.426  0.00  0.00    +0.168 C 
BRANCH  24  25
ATOM     25  O   UNL     1     -39.550  24.128   3.752  0.00  0.00    -0.379 OA
ATOM     26  H   UNL     1     -40.246  24.406   4.370  0.00  0.00    +0.211 HD
ENDBRANCH  24  25
BRANCH  24  27
ATOM     27  C   UNL     1     -39.577  23.352   1.470  0.00  0.00    +0.169 C 
BRANCH  27  28
ATOM     28  O   UNL     1     -40.717  23.079   0.652  0.00  0.00    -0.379 OA
ATOM     29  H   UNL     1     -41.331  23.828   0.694  0.00  0.00    +0.211 HD
ENDBRANCH  27  28
BRANCH  27  30
ATOM     30  C   UNL     1     -39.200  22.073   2.218  0.00  0.00    +0.169 C 
BRANCH  30  31
ATOM     31  O   UNL     1     -37.874  22.211   2.720  0.00  0.00    -0.379 OA
ATOM     32  H   UNL     1     -37.404  22.888   2.210  0.00  0.00    +0.211 HD
ENDBRANCH  30  31
ENDBRANCH  27  30
ENDBRANCH  24  27
ENDBRANCH  21  24
ENDBRANCH  20  21
ENDBRANCH   4  20
TORSDOF 9
ENDMDL
MODEL 7
REMARK VINA RESULT:      -5.5      4.852      7.809
REMARK  Name = 191017
REMARK  9 active torsions:
REMARK  status: ('A' for Active; 'I' for Inactive)
REMARK    1  A    between atoms: N_4  and  C_20
REMARK    2  A    between atoms: C_20  and  C_21
REMARK    3  A    between atoms: C_21  and  O_22
REMARK    4  A    between atoms: C_21  and  C_24
REMARK    5  A    between atoms: C_24  and  O_25
REMARK    6  A    between atoms: C_24  and  C_27
REMARK    7  A    between atoms: C_27  and  O_28
REMARK    8  A    between atoms: C_27  and  C_30
REMARK    9  A    between atoms: C_30  and  O_31
REMARK                            x       y       z     vdW  Elec       q    Type
REMARK                         _______ _______ _______ _____ _____    ______ ____
ROOT
ATOM      1 BR   UNL     1     -38.110  29.559  -1.246  0.00  0.00    -0.050 Br
ATOM      2  O   UNL     1     -33.217  26.381   5.328  0.00  0.00    -0.266 OA
ATOM      3  O   UNL     1     -36.124  22.864   5.886  0.00  0.00    -0.193 OA
ATOM      4  N   UNL     1     -37.133  25.938   2.529  0.00  0.00    -0.270 N 
ATOM      5  N   UNL     1     -34.773  27.290   3.321  0.00  0.00    -0.396 NA
ATOM      6  N   UNL     1     -36.622  24.362   4.245  0.00  0.00    -0.303 NA
ATOM      7  N   UNL     1     -34.677  24.593   5.627  0.00  0.00    -0.196 N 
ATOM      8  C   UNL     1     -36.750  27.123   1.862  0.00  0.00    +0.150 C 
ATOM      9  C   UNL     1     -36.358  25.440   3.569  0.00  0.00    +0.232 C 
ATOM     10  C   UNL     1     -35.571  27.777   2.274  0.00  0.00    +0.131 C 
ATOM     11  C   UNL     1     -35.117  26.207   3.938  0.00  0.00    +0.230 C 
ATOM     12  C   UNL     1     -37.483  27.690   0.802  0.00  0.00    +0.007 C 
ATOM     13  C   UNL     1     -35.156  28.956   1.636  0.00  0.00    +0.026 C 
ATOM     14  C   UNL     1     -35.897  29.499   0.590  0.00  0.00    -0.014 C 
ATOM     15  C   UNL     1     -37.060  28.865   0.174  0.00  0.00    +0.028 C 
ATOM     16  C   UNL     1     -34.219  25.748   5.040  0.00  0.00    +0.293 C 
ATOM     17  C   UNL     1     -35.831  23.893   5.273  0.00  0.00    +0.273 C 
ATOM     18  C   UNL     1     -35.403  30.755  -0.049  0.00  0.00    +0.032 C 
ATOM     19  H   UNL     1     -34.141  24.224   6.366  0.00  0.00    +0.169 HD
ENDROOT
BRANCH   4  20
ATOM     20  C   UNL     1     -38.357  25.266   2.095  0.00  0.00    +0.126 C 
BRANCH  20  21
ATOM     21  C   UNL     1     -39.532  25.684   2.988  0.00  0.00    +0.159 C 
BRANCH  21  22
ATOM     22  O   UNL     1     -39.684  24.711   4.023  0.00  0.00    -0.380 OA
ATOM     23  H   UNL     1     -40.541  24.267   3.926  0.00  0.00    +0.211 HD
ENDBRANCH  21  22
BRANCH  21  24
ATOM     24  C   UNL     1     -40.855  25.808   2.209  0.00  0.00    +0.168 C 
BRANCH  24  25
ATOM     25  O   UNL     1     -40.579  26.044   0.829  0.00  0.00    -0.379 OA
ATOM     26  H   UNL     1     -39.892  26.725   0.749  0.00  0.00    +0.211 HD
ENDBRANCH  24  25
BRANCH  24  27
ATOM     27  C   UNL     1     -41.757  26.942   2.731  0.00  0.00    +0.169 C 
BRANCH  27  28
ATOM     28  O   UNL     1     -41.350  27.292   4.056  0.00  0.00    -0.379 OA
ATOM     29  H   UNL     1     -41.144  26.486   4.554  0.00  0.00    +0.211 HD
ENDBRANCH  27  28
BRANCH  27  30
ATOM     30  C   UNL     1     -43.232  26.541   2.768  0.00  0.00    +0.169 C 
BRANCH  30  31
ATOM     31  O   UNL     1     -43.497  25.669   1.673  0.00  0.00    -0.379 OA
ATOM     32  H   UNL     1     -42.901  25.883   0.938  0.00  0.00    +0.211 HD
ENDBRANCH  30  31
ENDBRANCH  27  30
ENDBRANCH  24  27
ENDBRANCH  21  24
ENDBRANCH  20  21
ENDBRANCH   4  20
TORSDOF 9
ENDMDL
MODEL 8
REMARK VINA RESULT:      -5.4      3.375      6.175
REMARK  Name = 191017
REMARK  9 active torsions:
REMARK  status: ('A' for Active; 'I' for Inactive)
REMARK    1  A    between atoms: N_4  and  C_20
REMARK    2  A    between atoms: C_20  and  C_21
REMARK    3  A    between atoms: C_21  and  O_22
REMARK    4  A    between atoms: C_21  and  C_24
REMARK    5  A    between atoms: C_24  and  O_25
REMARK    6  A    between atoms: C_24  and  C_27
REMARK    7  A    between atoms: C_27  and  O_28
REMARK    8  A    between atoms: C_27  and  C_30
REMARK    9  A    between atoms: C_30  and  O_31
REMARK                            x       y       z     vdW  Elec       q    Type
REMARK                         _______ _______ _______ _____ _____    ______ ____
ROOT
ATOM      1 BR   UNL     1     -34.019  23.286  -3.230  0.00  0.00    -0.050 Br
ATOM      2  O   UNL     1     -35.534  26.416   4.843  0.00  0.00    -0.266 OA
ATOM      3  O   UNL     1     -35.892  22.146   6.508  0.00  0.00    -0.193 OA
ATOM      4  N   UNL     1     -35.014  22.578   1.950  0.00  0.00    -0.270 N 
ATOM      5  N   UNL     1     -35.075  25.375   2.397  0.00  0.00    -0.396 NA
ATOM      6  N   UNL     1     -35.463  22.351   4.282  0.00  0.00    -0.303 NA
ATOM      7  N   UNL     1     -35.720  24.262   5.706  0.00  0.00    -0.196 N 
ATOM      8  C   UNL     1     -34.800  23.463   0.870  0.00  0.00    +0.150 C 
ATOM      9  C   UNL     1     -35.254  23.078   3.224  0.00  0.00    +0.232 C 
ATOM     10  C   UNL     1     -34.836  24.850   1.118  0.00  0.00    +0.131 C 
ATOM     11  C   UNL     1     -35.273  24.573   3.392  0.00  0.00    +0.230 C 
ATOM     12  C   UNL     1     -34.552  23.036  -0.448  0.00  0.00    +0.007 C 
ATOM     13  C   UNL     1     -34.628  25.762   0.071  0.00  0.00    +0.026 C 
ATOM     14  C   UNL     1     -34.384  25.316  -1.224  0.00  0.00    -0.014 C 
ATOM     15  C   UNL     1     -34.346  23.953  -1.484  0.00  0.00    +0.028 C 
ATOM     16  C   UNL     1     -35.521  25.202   4.724  0.00  0.00    +0.293 C 
ATOM     17  C   UNL     1     -35.699  22.877   5.534  0.00  0.00    +0.273 C 
ATOM     18  C   UNL     1     -34.169  26.335  -2.295  0.00  0.00    +0.032 C 
ATOM     19  H   UNL     1     -35.891  24.596   6.616  0.00  0.00    +0.169 HD
ENDROOT
BRANCH   4  20
ATOM     20  C   UNL     1     -34.975  21.141   1.683  0.00  0.00    +0.126 C 
BRANCH  20  21
ATOM     21  C   UNL     1     -36.401  20.590   1.567  0.00  0.00    +0.159 C 
BRANCH  21  22
ATOM     22  O   UNL     1     -36.707  19.867   2.760  0.00  0.00    -0.380 OA
ATOM     23  H   UNL     1     -37.350  19.169   2.560  0.00  0.00    +0.211 HD
ENDBRANCH  21  22
BRANCH  21  24
ATOM     24  C   UNL     1     -36.581  19.661   0.350  0.00  0.00    +0.168 C 
BRANCH  24  25
ATOM     25  O   UNL     1     -37.085  18.398   0.781  0.00  0.00    -0.379 OA
ATOM     26  H   UNL     1     -37.146  18.387   1.750  0.00  0.00    +0.211 HD
ENDBRANCH  24  25
BRANCH  24  27
ATOM     27  C   UNL     1     -35.273  19.429  -0.429  0.00  0.00    +0.169 C 
BRANCH  27  28
ATOM     28  O   UNL     1     -35.450  19.863  -1.780  0.00  0.00    -0.379 OA
ATOM     29  H   UNL     1     -34.870  19.349  -2.362  0.00  0.00    +0.211 HD
ENDBRANCH  27  28
BRANCH  27  30
ATOM     30  C   UNL     1     -34.857  17.958  -0.443  0.00  0.00    +0.169 C 
BRANCH  30  31
ATOM     31  O   UNL     1     -34.190  17.659   0.779  0.00  0.00    -0.379 OA
ATOM     32  H   UNL     1     -33.575  18.377   0.995  0.00  0.00    +0.211 HD
ENDBRANCH  30  31
ENDBRANCH  27  30
ENDBRANCH  24  27
ENDBRANCH  21  24
ENDBRANCH  20  21
ENDBRANCH   4  20
TORSDOF 9
ENDMDL
MODEL 9
REMARK VINA RESULT:      -5.3      3.887      7.015
REMARK  Name = 191017
REMARK  9 active torsions:
REMARK  status: ('A' for Active; 'I' for Inactive)
REMARK    1  A    between atoms: N_4  and  C_20
REMARK    2  A    between atoms: C_20  and  C_21
REMARK    3  A    between atoms: C_21  and  O_22
REMARK    4  A    between atoms: C_21  and  C_24
REMARK    5  A    between atoms: C_24  and  O_25
REMARK    6  A    between atoms: C_24  and  C_27
REMARK    7  A    between atoms: C_27  and  O_28
REMARK    8  A    between atoms: C_27  and  C_30
REMARK    9  A    between atoms: C_30  and  O_31
REMARK                            x       y       z     vdW  Elec       q    Type
REMARK                         _______ _______ _______ _____ _____    ______ ____
ROOT
ATOM      1 BR   UNL     1     -32.117  30.187   3.626  0.00  0.00    -0.050 Br
ATOM      2  O   UNL     1     -35.290  22.515   6.511  0.00  0.00    -0.266 OA
ATOM      3  O   UNL     1     -37.280  21.727   2.443  0.00  0.00    -0.193 OA
ATOM      4  N   UNL     1     -34.889  25.703   2.900  0.00  0.00    -0.270 N 
ATOM      5  N   UNL     1     -34.353  24.854   5.549  0.00  0.00    -0.396 NA
ATOM      6  N   UNL     1     -36.114  23.670   2.660  0.00  0.00    -0.303 NA
ATOM      7  N   UNL     1     -36.306  22.097   4.459  0.00  0.00    -0.196 N 
ATOM      8  C   UNL     1     -34.111  26.520   3.751  0.00  0.00    +0.150 C 
ATOM      9  C   UNL     1     -35.389  24.492   3.361  0.00  0.00    +0.232 C 
ATOM     10  C   UNL     1     -33.859  26.075   5.065  0.00  0.00    +0.131 C 
ATOM     11  C   UNL     1     -35.067  24.101   4.778  0.00  0.00    +0.230 C 
ATOM     12  C   UNL     1     -33.571  27.759   3.359  0.00  0.00    +0.007 C 
ATOM     13  C   UNL     1     -33.089  26.857   5.940  0.00  0.00    +0.026 C 
ATOM     14  C   UNL     1     -32.565  28.079   5.531  0.00  0.00    -0.014 C 
ATOM     15  C   UNL     1     -32.806  28.530   4.240  0.00  0.00    +0.028 C 
ATOM     16  C   UNL     1     -35.559  22.817   5.361  0.00  0.00    +0.293 C 
ATOM     17  C   UNL     1     -36.596  22.474   3.147  0.00  0.00    +0.273 C 
ATOM     18  C   UNL     1     -31.754  28.865   6.508  0.00  0.00    +0.032 C 
ATOM     19  H   UNL     1     -36.669  21.236   4.767  0.00  0.00    +0.169 HD
ENDROOT
BRANCH   4  20
ATOM     20  C   UNL     1     -35.146  26.172   1.539  0.00  0.00    +0.126 C 
BRANCH  20  21
ATOM     21  C   UNL     1     -36.531  25.706   1.075  0.00  0.00    +0.159 C 
BRANCH  21  22
ATOM     22  O   UNL     1     -36.440  25.301  -0.291  0.00  0.00    -0.380 OA
ATOM     23  H   UNL     1     -35.933  24.475  -0.350  0.00  0.00    +0.211 HD
ENDBRANCH  21  22
BRANCH  21  24
ATOM     24  C   UNL     1     -37.603  26.806   1.208  0.00  0.00    +0.168 C 
BRANCH  24  25
ATOM     25  O   UNL     1     -37.023  27.973   1.789  0.00  0.00    -0.379 OA
ATOM     26  H   UNL     1     -36.731  27.773   2.693  0.00  0.00    +0.211 HD
ENDBRANCH  24  25
BRANCH  24  27
ATOM     27  C   UNL     1     -38.806  26.374   2.068  0.00  0.00    +0.169 C 
BRANCH  27  28
ATOM     28  O   UNL     1     -38.418  26.362   3.443  0.00  0.00    -0.379 OA
ATOM     29  H   UNL     1     -37.850  25.595   3.612  0.00  0.00    +0.211 HD
ENDBRANCH  27  28
BRANCH  27  30
ATOM     30  C   UNL     1     -39.315  24.981   1.696  0.00  0.00    +0.169 C 
BRANCH  30  31
ATOM     31  O   UNL     1     -39.291  24.159   2.860  0.00  0.00    -0.379 OA
ATOM     32  H   UNL     1     -38.432  24.249   3.301  0.00  0.00    +0.211 HD
ENDBRANCH  30  31
ENDBRANCH  27  30
ENDBRANCH  24  27
ENDBRANCH  21  24
ENDBRANCH  20  21
ENDBRANCH   4  20
TORSDOF 9
ENDMDL
