MODEL 1
REMARK VINA RESULT:      -4.8      0.000      0.000
REMARK  Name = 194061
REMARK  14 active torsions:
REMARK  status: ('A' for Active; 'I' for Inactive)
REMARK    1  A    between atoms: C_1  and  S_2
REMARK    2  A    between atoms: C_1  and  C_8
REMARK    3  A    between atoms: C_1  and  C_15
REMARK    4  A    between atoms: S_2  and  C_4
REMARK    5  A    between atoms: C_4  and  C_5
REMARK    6  A    between atoms: C_5  and  C_6
REMARK    7  A    between atoms: C_8  and  S_9
REMARK    8  A    between atoms: S_9  and  C_11
REMARK    9  A    between atoms: C_11  and  C_12
REMARK   10  A    between atoms: C_12  and  C_13
REMARK   11  A    between atoms: C_15  and  O_16
REMARK   12  A    between atoms: O_16  and  C_18
REMARK   13  A    between atoms: C_18  and  C_19
REMARK   14  A    between atoms: C_19  and  C_20
REMARK                            x       y       z     vdW  Elec       q    Type
REMARK                         _______ _______ _______ _____ _____    ______ ____
ROOT
ATOM      1  C   UNL     1     -36.727  22.255   1.974  0.00  0.00    +0.109 C 
ENDROOT
BRANCH   1   2
ATOM      2  S   UNL     1     -35.241  21.797   0.997  0.00  0.00    -0.073 S 
BRANCH   2   4
ATOM      3  O   UNL     1     -35.002  20.071   2.986  0.00  0.00    -0.285 OA
ATOM      4  C   UNL     1     -34.825  20.280   1.793  0.00  0.00    +0.199 C 
BRANCH   4   5
ATOM      5  C   UNL     1     -34.227  19.274   0.830  0.00  0.00    +0.076 C 
BRANCH   5   6
ATOM      6  C   UNL     1     -33.007  18.570   1.422  0.00  0.00    +0.009 C 
ATOM      7  C   UNL     1     -31.738  18.922   0.664  0.00  0.00    +0.000 C 
ENDBRANCH   5   6
ENDBRANCH   4   5
ENDBRANCH   2   4
ENDBRANCH   1   2
BRANCH   1   8
ATOM      8  C   UNL     1     -37.880  22.683   1.056  0.00  0.00    +0.080 C 
BRANCH   8   9
ATOM      9  S   UNL     1     -39.500  22.048   1.597  0.00  0.00    -0.076 S 
BRANCH   9  11
ATOM     10  O   UNL     1     -41.350  23.849   1.034  0.00  0.00    -0.285 OA
ATOM     11  C   UNL     1     -40.391  23.565   1.742  0.00  0.00    +0.199 C 
BRANCH  11  12
ATOM     12  C   UNL     1     -39.840  24.464   2.831  0.00  0.00    +0.076 C 
BRANCH  12  13
ATOM     13  C   UNL     1     -40.141  25.938   2.564  0.00  0.00    +0.009 C 
ATOM     14  C   UNL     1     -41.282  26.440   3.433  0.00  0.00    +0.000 C 
ENDBRANCH  12  13
ENDBRANCH  11  12
ENDBRANCH   9  11
ENDBRANCH   8   9
ENDBRANCH   1   8
BRANCH   1  15
ATOM     15  C   UNL     1     -36.360  23.395   2.931  0.00  0.00    +0.220 C 
BRANCH  15  16
ATOM     16  O   UNL     1     -36.800  23.085   4.258  0.00  0.00    -0.448 OA
BRANCH  16  18
ATOM     17  O   UNL     1     -35.855  22.427   6.257  0.00  0.00    -0.250 OA
ATOM     18  C   UNL     1     -35.822  23.060   5.210  0.00  0.00    +0.317 C 
BRANCH  18  19
ATOM     19  C   UNL     1     -34.680  23.945   4.763  0.00  0.00    +0.110 C 
BRANCH  19  20
ATOM     20  C   UNL     1     -34.593  25.227   5.586  0.00  0.00    +0.012 C 
ATOM     21  C   UNL     1     -35.909  25.988   5.574  0.00  0.00    +0.001 C 
ENDBRANCH  19  20
ENDBRANCH  18  19
ENDBRANCH  16  18
ENDBRANCH  15  16
ENDBRANCH   1  15
TORSDOF 14
ENDMDL
MODEL 2
REMARK VINA RESULT:      -4.7      4.900      7.201
REMARK  Name = 194061
REMARK  14 active torsions:
REMARK  status: ('A' for Active; 'I' for Inactive)
REMARK    1  A    between atoms: C_1  and  S_2
REMARK    2  A    between atoms: C_1  and  C_8
REMARK    3  A    between atoms: C_1  and  C_15
REMARK    4  A    between atoms: S_2  and  C_4
REMARK    5  A    between atoms: C_4  and  C_5
REMARK    6  A    between atoms: C_5  and  C_6
REMARK    7  A    between atoms: C_8  and  S_9
REMARK    8  A    between atoms: S_9  and  C_11
REMARK    9  A    between atoms: C_11  and  C_12
REMARK   10  A    between atoms: C_12  and  C_13
REMARK   11  A    between atoms: C_15  and  O_16
REMARK   12  A    between atoms: O_16  and  C_18
REMARK   13  A    between atoms: C_18  and  C_19
REMARK   14  A    between atoms: C_19  and  C_20
REMARK                            x       y       z     vdW  Elec       q    Type
REMARK                         _______ _______ _______ _____ _____    ______ ____
ROOT
ATOM      1  C   UNL     1     -34.859  26.930   3.605  0.00  0.00    +0.109 C 
ENDROOT
BRANCH   1   2
ATOM      2  S   UNL     1     -35.365  25.288   2.956  0.00  0.00    -0.073 S 
BRANCH   2   4
ATOM      3  O   UNL     1     -37.669  24.723   4.126  0.00  0.00    -0.285 OA
ATOM      4  C   UNL     1     -36.453  24.787   4.250  0.00  0.00    +0.199 C 
BRANCH   4   5
ATOM      5  C   UNL     1     -35.706  24.448   5.525  0.00  0.00    +0.076 C 
BRANCH   5   6
ATOM      6  C   UNL     1     -34.912  23.150   5.395  0.00  0.00    +0.009 C 
ATOM      7  C   UNL     1     -35.409  22.092   6.368  0.00  0.00    +0.000 C 
ENDBRANCH   5   6
ENDBRANCH   4   5
ENDBRANCH   2   4
ENDBRANCH   1   2
BRANCH   1   8
ATOM      8  C   UNL     1     -35.299  28.056   2.659  0.00  0.00    +0.080 C 
BRANCH   8   9
ATOM      9  S   UNL     1     -33.906  29.045   2.025  0.00  0.00    -0.076 S 
BRANCH   9  11
ATOM     10  O   UNL     1     -35.035  30.675   3.772  0.00  0.00    -0.285 OA
ATOM     11  C   UNL     1     -34.152  30.539   2.934  0.00  0.00    +0.199 C 
BRANCH  11  12
ATOM     12  C   UNL     1     -33.155  31.618   2.563  0.00  0.00    +0.076 C 
BRANCH  12  13
ATOM     13  C   UNL     1     -32.010  31.710   3.570  0.00  0.00    +0.009 C 
ATOM     14  C   UNL     1     -30.752  31.038   3.048  0.00  0.00    +0.000 C 
ENDBRANCH  12  13
ENDBRANCH  11  12
ENDBRANCH   9  11
ENDBRANCH   8   9
ENDBRANCH   1   8
BRANCH   1  15
ATOM     15  C   UNL     1     -33.336  26.948   3.779  0.00  0.00    +0.220 C 
BRANCH  15  16
ATOM     16  O   UNL     1     -32.976  26.353   5.030  0.00  0.00    -0.448 OA
BRANCH  16  18
ATOM     17  O   UNL     1     -32.913  27.036   7.233  0.00  0.00    -0.250 OA
ATOM     18  C   UNL     1     -32.708  27.229   6.042  0.00  0.00    +0.317 C 
BRANCH  18  19
ATOM     19  C   UNL     1     -32.113  28.489   5.454  0.00  0.00    +0.110 C 
BRANCH  19  20
ATOM     20  C   UNL     1     -31.677  29.475   6.535  0.00  0.00    +0.012 C 
ATOM     21  C   UNL     1     -30.171  29.449   6.740  0.00  0.00    +0.001 C 
ENDBRANCH  19  20
ENDBRANCH  18  19
ENDBRANCH  16  18
ENDBRANCH  15  16
ENDBRANCH   1  15
TORSDOF 14
ENDMDL
MODEL 3
REMARK VINA RESULT:      -4.7      4.029      5.394
REMARK  Name = 194061
REMARK  14 active torsions:
REMARK  status: ('A' for Active; 'I' for Inactive)
REMARK    1  A    between atoms: C_1  and  S_2
REMARK    2  A    between atoms: C_1  and  C_8
REMARK    3  A    between atoms: C_1  and  C_15
REMARK    4  A    between atoms: S_2  and  C_4
REMARK    5  A    between atoms: C_4  and  C_5
REMARK    6  A    between atoms: C_5  and  C_6
REMARK    7  A    between atoms: C_8  and  S_9
REMARK    8  A    between atoms: S_9  and  C_11
REMARK    9  A    between atoms: C_11  and  C_12
REMARK   10  A    between atoms: C_12  and  C_13
REMARK   11  A    between atoms: C_15  and  O_16
REMARK   12  A    between atoms: O_16  and  C_18
REMARK   13  A    between atoms: C_18  and  C_19
REMARK   14  A    between atoms: C_19  and  C_20
REMARK                            x       y       z     vdW  Elec       q    Type
REMARK                         _______ _______ _______ _____ _____    ______ ____
ROOT
ATOM      1  C   UNL     1     -36.772  26.185   2.650  0.00  0.00    +0.109 C 
ENDROOT
BRANCH   1   2
ATOM      2  S   UNL     1     -36.313  24.604   1.837  0.00  0.00    -0.073 S 
BRANCH   2   4
ATOM      3  O   UNL     1     -38.308  23.879   3.413  0.00  0.00    -0.285 OA
ATOM      4  C   UNL     1     -37.378  23.505   2.712  0.00  0.00    +0.199 C 
BRANCH   4   5
ATOM      5  C   UNL     1     -37.006  22.052   2.492  0.00  0.00    +0.076 C 
BRANCH   5   6
ATOM      6  C   UNL     1     -35.502  21.870   2.297  0.00  0.00    +0.009 C 
ATOM      7  C   UNL     1     -35.112  20.401   2.306  0.00  0.00    +0.000 C 
ENDBRANCH   5   6
ENDBRANCH   4   5
ENDBRANCH   2   4
ENDBRANCH   1   2
BRANCH   1   8
ATOM      8  C   UNL     1     -37.018  27.288   1.612  0.00  0.00    +0.080 C 
BRANCH   8   9
ATOM      9  S   UNL     1     -35.521  28.247   1.217  0.00  0.00    -0.076 S 
BRANCH   9  11
ATOM     10  O   UNL     1     -37.102  30.363   1.162  0.00  0.00    -0.285 OA
ATOM     11  C   UNL     1     -36.080  29.871   1.625  0.00  0.00    +0.199 C 
BRANCH  11  12
ATOM     12  C   UNL     1     -35.161  30.575   2.604  0.00  0.00    +0.076 C 
BRANCH  12  13
ATOM     13  C   UNL     1     -34.684  31.925   2.070  0.00  0.00    +0.009 C 
ATOM     14  C   UNL     1     -33.281  32.252   2.554  0.00  0.00    +0.000 C 
ENDBRANCH  12  13
ENDBRANCH  11  12
ENDBRANCH   9  11
ENDBRANCH   8   9
ENDBRANCH   1   8
BRANCH   1  15
ATOM     15  C   UNL     1     -35.648  26.597   3.607  0.00  0.00    +0.220 C 
BRANCH  15  16
ATOM     16  O   UNL     1     -35.848  25.996   4.891  0.00  0.00    -0.448 OA
BRANCH  16  18
ATOM     17  O   UNL     1     -33.980  26.201   6.229  0.00  0.00    -0.250 OA
ATOM     18  C   UNL     1     -34.718  25.542   5.510  0.00  0.00    +0.317 C 
BRANCH  18  19
ATOM     19  C   UNL     1     -34.522  24.084   5.161  0.00  0.00    +0.110 C 
BRANCH  19  20
ATOM     20  C   UNL     1     -35.515  23.182   5.889  0.00  0.00    +0.012 C 
ATOM     21  C   UNL     1     -35.000  21.757   5.998  0.00  0.00    +0.001 C 
ENDBRANCH  19  20
ENDBRANCH  18  19
ENDBRANCH  16  18
ENDBRANCH  15  16
ENDBRANCH   1  15
TORSDOF 14
ENDMDL
MODEL 4
REMARK VINA RESULT:      -4.6      1.858      6.519
REMARK  Name = 194061
REMARK  14 active torsions:
REMARK  status: ('A' for Active; 'I' for Inactive)
REMARK    1  A    between atoms: C_1  and  S_2
REMARK    2  A    between atoms: C_1  and  C_8
REMARK    3  A    between atoms: C_1  and  C_15
REMARK    4  A    between atoms: S_2  and  C_4
REMARK    5  A    between atoms: C_4  and  C_5
REMARK    6  A    between atoms: C_5  and  C_6
REMARK    7  A    between atoms: C_8  and  S_9
REMARK    8  A    between atoms: S_9  and  C_11
REMARK    9  A    between atoms: C_11  and  C_12
REMARK   10  A    between atoms: C_12  and  C_13
REMARK   11  A    between atoms: C_15  and  O_16
REMARK   12  A    between atoms: O_16  and  C_18
REMARK   13  A    between atoms: C_18  and  C_19
REMARK   14  A    between atoms: C_19  and  C_20
REMARK                            x       y       z     vdW  Elec       q    Type
REMARK                         _______ _______ _______ _____ _____    ______ ____
ROOT
ATOM      1  C   UNL     1     -35.955  22.593   2.392  0.00  0.00    +0.109 C 
ENDROOT
BRANCH   1   2
ATOM      2  S   UNL     1     -35.452  24.329   2.718  0.00  0.00    -0.073 S 
BRANCH   2   4
ATOM      3  O   UNL     1     -36.902  24.979   4.832  0.00  0.00    -0.285 OA
ATOM      4  C   UNL     1     -35.881  24.441   4.425  0.00  0.00    +0.199 C 
BRANCH   4   5
ATOM      5  C   UNL     1     -34.841  23.797   5.319  0.00  0.00    +0.076 C 
BRANCH   5   6
ATOM      6  C   UNL     1     -35.444  22.710   6.207  0.00  0.00    +0.009 C 
ATOM      7  C   UNL     1     -35.066  21.320   5.722  0.00  0.00    +0.000 C 
ENDBRANCH   5   6
ENDBRANCH   4   5
ENDBRANCH   2   4
ENDBRANCH   1   2
BRANCH   1   8
ATOM      8  C   UNL     1     -35.772  22.235   0.911  0.00  0.00    +0.080 C 
BRANCH   8   9
ATOM      9  S   UNL     1     -34.187  21.406   0.564  0.00  0.00    -0.076 S 
BRANCH   9  11
ATOM     10  O   UNL     1     -35.768  19.338   1.017  0.00  0.00    -0.285 OA
ATOM     11  C   UNL     1     -34.613  19.744   0.980  0.00  0.00    +0.199 C 
BRANCH  11  12
ATOM     12  C   UNL     1     -33.398  18.889   1.281  0.00  0.00    +0.076 C 
BRANCH  12  13
ATOM     13  C   UNL     1     -32.130  19.453   0.642  0.00  0.00    +0.009 C 
ATOM     14  C   UNL     1     -31.041  18.397   0.537  0.00  0.00    +0.000 C 
ENDBRANCH  12  13
ENDBRANCH  11  12
ENDBRANCH   9  11
ENDBRANCH   8   9
ENDBRANCH   1   8
BRANCH   1  15
ATOM     15  C   UNL     1     -37.420  22.414   2.805  0.00  0.00    +0.220 C 
BRANCH  15  16
ATOM     16  O   UNL     1     -38.094  21.560   1.876  0.00  0.00    -0.448 OA
BRANCH  16  18
ATOM     17  O   UNL     1     -40.365  21.172   1.998  0.00  0.00    -0.250 OA
ATOM     18  C   UNL     1     -39.409  21.854   1.654  0.00  0.00    +0.317 C 
BRANCH  18  19
ATOM     19  C   UNL     1     -39.498  23.168   0.911  0.00  0.00    +0.110 C 
BRANCH  19  20
ATOM     20  C   UNL     1     -40.592  24.071   1.474  0.00  0.00    +0.012 C 
ATOM     21  C   UNL     1     -40.068  24.949   2.598  0.00  0.00    +0.001 C 
ENDBRANCH  19  20
ENDBRANCH  18  19
ENDBRANCH  16  18
ENDBRANCH  15  16
ENDBRANCH   1  15
TORSDOF 14
ENDMDL
MODEL 5
REMARK VINA RESULT:      -4.6      4.308      6.008
REMARK  Name = 194061
REMARK  14 active torsions:
REMARK  status: ('A' for Active; 'I' for Inactive)
REMARK    1  A    between atoms: C_1  and  S_2
REMARK    2  A    between atoms: C_1  and  C_8
REMARK    3  A    between atoms: C_1  and  C_15
REMARK    4  A    between atoms: S_2  and  C_4
REMARK    5  A    between atoms: C_4  and  C_5
REMARK    6  A    between atoms: C_5  and  C_6
REMARK    7  A    between atoms: C_8  and  S_9
REMARK    8  A    between atoms: S_9  and  C_11
REMARK    9  A    between atoms: C_11  and  C_12
REMARK   10  A    between atoms: C_12  and  C_13
REMARK   11  A    between atoms: C_15  and  O_16
REMARK   12  A    between atoms: O_16  and  C_18
REMARK   13  A    between atoms: C_18  and  C_19
REMARK   14  A    between atoms: C_19  and  C_20
REMARK                            x       y       z     vdW  Elec       q    Type
REMARK                         _______ _______ _______ _____ _____    ______ ____
ROOT
ATOM      1  C   UNL     1     -33.992  27.249   3.731  0.00  0.00    +0.109 C 
ENDROOT
BRANCH   1   2
ATOM      2  S   UNL     1     -33.945  25.509   4.316  0.00  0.00    -0.073 S 
BRANCH   2   4
ATOM      3  O   UNL     1     -36.124  26.397   5.522  0.00  0.00    -0.285 OA
ATOM      4  C   UNL     1     -35.524  25.420   5.095  0.00  0.00    +0.199 C 
BRANCH   4   5
ATOM      5  C   UNL     1     -36.044  23.998   5.171  0.00  0.00    +0.076 C 
BRANCH   5   6
ATOM      6  C   UNL     1     -34.925  22.993   5.430  0.00  0.00    +0.009 C 
ATOM      7  C   UNL     1     -35.377  21.884   6.366  0.00  0.00    +0.000 C 
ENDBRANCH   5   6
ENDBRANCH   4   5
ENDBRANCH   2   4
ENDBRANCH   1   2
BRANCH   1   8
ATOM      8  C   UNL     1     -34.165  27.314   2.208  0.00  0.00    +0.080 C 
BRANCH   8   9
ATOM      9  S   UNL     1     -35.836  27.830   1.697  0.00  0.00    -0.076 S 
BRANCH   9  11
ATOM     10  O   UNL     1     -36.050  25.204   1.497  0.00  0.00    -0.285 OA
ATOM     11  C   UNL     1     -36.645  26.261   1.666  0.00  0.00    +0.199 C 
BRANCH  11  12
ATOM     12  C   UNL     1     -38.143  26.373   1.873  0.00  0.00    +0.076 C 
BRANCH  12  13
ATOM     13  C   UNL     1     -38.646  25.408   2.944  0.00  0.00    +0.009 C 
ATOM     14  C   UNL     1     -40.156  25.486   3.100  0.00  0.00    +0.000 C 
ENDBRANCH  12  13
ENDBRANCH  11  12
ENDBRANCH   9  11
ENDBRANCH   8   9
ENDBRANCH   1   8
BRANCH   1  15
ATOM     15  C   UNL     1     -32.695  27.950   4.149  0.00  0.00    +0.220 C 
BRANCH  15  16
ATOM     16  O   UNL     1     -32.632  28.063   5.575  0.00  0.00    -0.448 OA
BRANCH  16  18
ATOM     17  O   UNL     1     -30.367  27.772   5.903  0.00  0.00    -0.250 OA
ATOM     18  C   UNL     1     -31.408  28.389   6.085  0.00  0.00    +0.317 C 
BRANCH  18  19
ATOM     19  C   UNL     1     -31.543  29.643   6.918  0.00  0.00    +0.110 C 
BRANCH  19  20
ATOM     20  C   UNL     1     -31.974  30.844   6.080  0.00  0.00    +0.012 C 
ATOM     21  C   UNL     1     -30.921  31.211   5.047  0.00  0.00    +0.001 C 
ENDBRANCH  19  20
ENDBRANCH  18  19
ENDBRANCH  16  18
ENDBRANCH  15  16
ENDBRANCH   1  15
TORSDOF 14
ENDMDL
MODEL 6
REMARK VINA RESULT:      -4.6      3.851      6.457
REMARK  Name = 194061
REMARK  14 active torsions:
REMARK  status: ('A' for Active; 'I' for Inactive)
REMARK    1  A    between atoms: C_1  and  S_2
REMARK    2  A    between atoms: C_1  and  C_8
REMARK    3  A    between atoms: C_1  and  C_15
REMARK    4  A    between atoms: S_2  and  C_4
REMARK    5  A    between atoms: C_4  and  C_5
REMARK    6  A    between atoms: C_5  and  C_6
REMARK    7  A    between atoms: C_8  and  S_9
REMARK    8  A    between atoms: S_9  and  C_11
REMARK    9  A    between atoms: C_11  and  C_12
REMARK   10  A    between atoms: C_12  and  C_13
REMARK   11  A    between atoms: C_15  and  O_16
REMARK   12  A    between atoms: O_16  and  C_18
REMARK   13  A    between atoms: C_18  and  C_19
REMARK   14  A    between atoms: C_19  and  C_20
REMARK                            x       y       z     vdW  Elec       q    Type
REMARK                         _______ _______ _______ _____ _____    ______ ____
ROOT
ATOM      1  C   UNL     1     -35.092  26.706   3.121  0.00  0.00    +0.109 C 
ENDROOT
BRANCH   1   2
ATOM      2  S   UNL     1     -34.005  25.596   2.142  0.00  0.00    -0.073 S 
BRANCH   2   4
ATOM      3  O   UNL     1     -36.354  24.739   1.281  0.00  0.00    -0.285 OA
ATOM      4  C   UNL     1     -35.206  24.436   1.577  0.00  0.00    +0.199 C 
BRANCH   4   5
ATOM      5  C   UNL     1     -34.649  23.028   1.501  0.00  0.00    +0.076 C 
BRANCH   5   6
ATOM      6  C   UNL     1     -35.642  21.991   2.022  0.00  0.00    +0.009 C 
ATOM      7  C   UNL     1     -35.040  20.595   2.024  0.00  0.00    +0.000 C 
ENDBRANCH   5   6
ENDBRANCH   4   5
ENDBRANCH   2   4
ENDBRANCH   1   2
BRANCH   1   8
ATOM      8  C   UNL     1     -34.818  28.179   2.789  0.00  0.00    +0.080 C 
BRANCH   8   9
ATOM      9  S   UNL     1     -33.048  28.546   2.564  0.00  0.00    -0.076 S 
BRANCH   9  11
ATOM     10  O   UNL     1     -33.221  30.518   4.314  0.00  0.00    -0.285 OA
ATOM     11  C   UNL     1     -32.725  29.428   4.060  0.00  0.00    +0.199 C 
BRANCH  11  12
ATOM     12  C   UNL     1     -31.777  28.686   4.981  0.00  0.00    +0.076 C 
BRANCH  12  13
ATOM     13  C   UNL     1     -31.664  29.359   6.347  0.00  0.00    +0.009 C 
ATOM     14  C   UNL     1     -30.217  29.449   6.806  0.00  0.00    +0.000 C 
ENDBRANCH  12  13
ENDBRANCH  11  12
ENDBRANCH   9  11
ENDBRANCH   8   9
ENDBRANCH   1   8
BRANCH   1  15
ATOM     15  C   UNL     1     -34.857  26.445   4.612  0.00  0.00    +0.220 C 
BRANCH  15  16
ATOM     16  O   UNL     1     -36.033  25.886   5.207  0.00  0.00    -0.448 OA
BRANCH  16  18
ATOM     17  O   UNL     1     -37.232  24.062   4.461  0.00  0.00    -0.250 OA
ATOM     18  C   UNL     1     -36.236  24.557   4.971  0.00  0.00    +0.317 C 
BRANCH  18  19
ATOM     19  C   UNL     1     -35.024  23.785   5.442  0.00  0.00    +0.110 C 
BRANCH  19  20
ATOM     20  C   UNL     1     -35.409  22.587   6.307  0.00  0.00    +0.012 C 
ATOM     21  C   UNL     1     -35.054  21.273   5.631  0.00  0.00    +0.001 C 
ENDBRANCH  19  20
ENDBRANCH  18  19
ENDBRANCH  16  18
ENDBRANCH  15  16
ENDBRANCH   1  15
TORSDOF 14
ENDMDL
MODEL 7
REMARK VINA RESULT:      -4.6      1.676      1.837
REMARK  Name = 194061
REMARK  14 active torsions:
REMARK  status: ('A' for Active; 'I' for Inactive)
REMARK    1  A    between atoms: C_1  and  S_2
REMARK    2  A    between atoms: C_1  and  C_8
REMARK    3  A    between atoms: C_1  and  C_15
REMARK    4  A    between atoms: S_2  and  C_4
REMARK    5  A    between atoms: C_4  and  C_5
REMARK    6  A    between atoms: C_5  and  C_6
REMARK    7  A    between atoms: C_8  and  S_9
REMARK    8  A    between atoms: S_9  and  C_11
REMARK    9  A    between atoms: C_11  and  C_12
REMARK   10  A    between atoms: C_12  and  C_13
REMARK   11  A    between atoms: C_15  and  O_16
REMARK   12  A    between atoms: O_16  and  C_18
REMARK   13  A    between atoms: C_18  and  C_19
REMARK   14  A    between atoms: C_19  and  C_20
REMARK                            x       y       z     vdW  Elec       q    Type
REMARK                         _______ _______ _______ _____ _____    ______ ____
ROOT
ATOM      1  C   UNL     1     -36.649  21.846   2.028  0.00  0.00    +0.109 C 
ENDROOT
BRANCH   1   2
ATOM      2  S   UNL     1     -35.701  21.521   0.489  0.00  0.00    -0.073 S 
BRANCH   2   4
ATOM      3  O   UNL     1     -36.062  18.922   0.163  0.00  0.00    -0.285 OA
ATOM      4  C   UNL     1     -35.393  19.798   0.695  0.00  0.00    +0.199 C 
BRANCH   4   5
ATOM      5  C   UNL     1     -34.208  19.533   1.603  0.00  0.00    +0.076 C 
BRANCH   5   6
ATOM      6  C   UNL     1     -32.904  19.400   0.819  0.00  0.00    +0.009 C 
ATOM      7  C   UNL     1     -32.117  18.174   1.250  0.00  0.00    +0.000 C 
ENDBRANCH   5   6
ENDBRANCH   4   5
ENDBRANCH   2   4
ENDBRANCH   1   2
BRANCH   1   8
ATOM      8  C   UNL     1     -37.735  22.905   1.793  0.00  0.00    +0.080 C 
BRANCH   8   9
ATOM      9  S   UNL     1     -37.074  24.486   1.173  0.00  0.00    -0.076 S 
BRANCH   9  11
ATOM     10  O   UNL     1     -37.775  26.825   2.182  0.00  0.00    -0.285 OA
ATOM     11  C   UNL     1     -37.927  25.611   2.233  0.00  0.00    +0.199 C 
BRANCH  11  12
ATOM     12  C   UNL     1     -38.861  24.908   3.199  0.00  0.00    +0.076 C 
BRANCH  12  13
ATOM     13  C   UNL     1     -40.298  25.410   3.073  0.00  0.00    +0.009 C 
ATOM     14  C   UNL     1     -40.898  25.052   1.723  0.00  0.00    +0.000 C 
ENDBRANCH  12  13
ENDBRANCH  11  12
ENDBRANCH   9  11
ENDBRANCH   8   9
ENDBRANCH   1   8
BRANCH   1  15
ATOM     15  C   UNL     1     -35.679  22.313   3.120  0.00  0.00    +0.220 C 
BRANCH  15  16
ATOM     16  O   UNL     1     -36.406  22.717   4.285  0.00  0.00    -0.448 OA
BRANCH  16  18
ATOM     17  O   UNL     1     -35.807  22.499   6.502  0.00  0.00    -0.250 OA
ATOM     18  C   UNL     1     -35.647  22.980   5.389  0.00  0.00    +0.317 C 
BRANCH  18  19
ATOM     19  C   UNL     1     -34.566  23.969   5.015  0.00  0.00    +0.110 C 
BRANCH  19  20
ATOM     20  C   UNL     1     -34.704  25.284   5.778  0.00  0.00    +0.012 C 
ATOM     21  C   UNL     1     -36.019  25.978   5.461  0.00  0.00    +0.001 C 
ENDBRANCH  19  20
ENDBRANCH  18  19
ENDBRANCH  16  18
ENDBRANCH  15  16
ENDBRANCH   1  15
TORSDOF 14
ENDMDL
MODEL 8
REMARK VINA RESULT:      -4.6      4.281      6.630
REMARK  Name = 194061
REMARK  14 active torsions:
REMARK  status: ('A' for Active; 'I' for Inactive)
REMARK    1  A    between atoms: C_1  and  S_2
REMARK    2  A    between atoms: C_1  and  C_8
REMARK    3  A    between atoms: C_1  and  C_15
REMARK    4  A    between atoms: S_2  and  C_4
REMARK    5  A    between atoms: C_4  and  C_5
REMARK    6  A    between atoms: C_5  and  C_6
REMARK    7  A    between atoms: C_8  and  S_9
REMARK    8  A    between atoms: S_9  and  C_11
REMARK    9  A    between atoms: C_11  and  C_12
REMARK   10  A    between atoms: C_12  and  C_13
REMARK   11  A    between atoms: C_15  and  O_16
REMARK   12  A    between atoms: O_16  and  C_18
REMARK   13  A    between atoms: C_18  and  C_19
REMARK   14  A    between atoms: C_19  and  C_20
REMARK                            x       y       z     vdW  Elec       q    Type
REMARK                         _______ _______ _______ _____ _____    ______ ____
ROOT
ATOM      1  C   UNL     1     -34.384  27.299   3.509  0.00  0.00    +0.109 C 
ENDROOT
BRANCH   1   2
ATOM      2  S   UNL     1     -33.940  25.890   4.600  0.00  0.00    -0.073 S 
BRANCH   2   4
ATOM      3  O   UNL     1     -36.218  26.417   5.836  0.00  0.00    -0.285 OA
ATOM      4  C   UNL     1     -35.521  25.561   5.308  0.00  0.00    +0.199 C 
BRANCH   4   5
ATOM      5  C   UNL     1     -35.909  24.101   5.184  0.00  0.00    +0.076 C 
BRANCH   5   6
ATOM      6  C   UNL     1     -34.799  23.171   5.668  0.00  0.00    +0.009 C 
ATOM      7  C   UNL     1     -35.357  21.844   6.157  0.00  0.00    +0.000 C 
ENDBRANCH   5   6
ENDBRANCH   4   5
ENDBRANCH   2   4
ENDBRANCH   1   2
BRANCH   1   8
ATOM      8  C   UNL     1     -34.847  26.806   2.131  0.00  0.00    +0.080 C 
BRANCH   8   9
ATOM      9  S   UNL     1     -33.958  25.318   1.567  0.00  0.00    -0.076 S 
BRANCH   9  11
ATOM     10  O   UNL     1     -36.458  24.467   1.648  0.00  0.00    -0.285 OA
ATOM     11  C   UNL     1     -35.277  24.145   1.591  0.00  0.00    +0.199 C 
BRANCH  11  12
ATOM     12  C   UNL     1     -34.785  22.713   1.531  0.00  0.00    +0.076 C 
BRANCH  12  13
ATOM     13  C   UNL     1     -35.699  21.761   2.299  0.00  0.00    +0.009 C 
ATOM     14  C   UNL     1     -35.167  20.338   2.279  0.00  0.00    +0.000 C 
ENDBRANCH  12  13
ENDBRANCH  11  12
ENDBRANCH   9  11
ENDBRANCH   8   9
ENDBRANCH   1   8
BRANCH   1  15
ATOM     15  C   UNL     1     -33.166  28.218   3.362  0.00  0.00    +0.220 C 
BRANCH  15  16
ATOM     16  O   UNL     1     -32.912  28.901   4.594  0.00  0.00    -0.448 OA
BRANCH  16  18
ATOM     17  O   UNL     1     -32.403  30.832   3.440  0.00  0.00    -0.250 OA
ATOM     18  C   UNL     1     -32.444  30.178   4.473  0.00  0.00    +0.317 C 
BRANCH  18  19
ATOM     19  C   UNL     1     -31.980  30.660   5.828  0.00  0.00    +0.110 C 
BRANCH  19  20
ATOM     20  C   UNL     1     -31.591  29.504   6.746  0.00  0.00    +0.012 C 
ATOM     21  C   UNL     1     -30.083  29.372   6.869  0.00  0.00    +0.001 C 
ENDBRANCH  19  20
ENDBRANCH  18  19
ENDBRANCH  16  18
ENDBRANCH  15  16
ENDBRANCH   1  15
TORSDOF 14
ENDMDL
MODEL 9
REMARK VINA RESULT:      -4.6      5.517      9.414
REMARK  Name = 194061
REMARK  14 active torsions:
REMARK  status: ('A' for Active; 'I' for Inactive)
REMARK    1  A    between atoms: C_1  and  S_2
REMARK    2  A    between atoms: C_1  and  C_8
REMARK    3  A    between atoms: C_1  and  C_15
REMARK    4  A    between atoms: S_2  and  C_4
REMARK    5  A    between atoms: C_4  and  C_5
REMARK    6  A    between atoms: C_5  and  C_6
REMARK    7  A    between atoms: C_8  and  S_9
REMARK    8  A    between atoms: S_9  and  C_11
REMARK    9  A    between atoms: C_11  and  C_12
REMARK   10  A    between atoms: C_12  and  C_13
REMARK   11  A    between atoms: C_15  and  O_16
REMARK   12  A    between atoms: O_16  and  C_18
REMARK   13  A    between atoms: C_18  and  C_19
REMARK   14  A    between atoms: C_19  and  C_20
REMARK                            x       y       z     vdW  Elec       q    Type
REMARK                         _______ _______ _______ _____ _____    ______ ____
ROOT
ATOM      1  C   UNL     1     -34.466  28.339   3.476  0.00  0.00    +0.109 C 
ENDROOT
BRANCH   1   2
ATOM      2  S   UNL     1     -35.099  29.267   2.024  0.00  0.00    -0.073 S 
BRANCH   2   4
ATOM      3  O   UNL     1     -35.374  31.005   3.998  0.00  0.00    -0.285 OA
ATOM      4  C   UNL     1     -35.421  30.823   2.789  0.00  0.00    +0.199 C 
BRANCH   4   5
ATOM      5  C   UNL     1     -35.760  31.898   1.776  0.00  0.00    +0.076 C 
BRANCH   5   6
ATOM      6  C   UNL     1     -37.188  31.761   1.252  0.00  0.00    +0.009 C 
ATOM      7  C   UNL     1     -38.080  32.881   1.763  0.00  0.00    +0.000 C 
ENDBRANCH   5   6
ENDBRANCH   4   5
ENDBRANCH   2   4
ENDBRANCH   1   2
BRANCH   1   8
ATOM      8  C   UNL     1     -32.955  28.098   3.361  0.00  0.00    +0.080 C 
BRANCH   8   9
ATOM      9  S   UNL     1     -31.959  29.367   4.207  0.00  0.00    -0.076 S 
BRANCH   9  11
ATOM     10  O   UNL     1     -32.128  27.452   6.020  0.00  0.00    -0.285 OA
ATOM     11  C   UNL     1     -31.733  28.586   5.774  0.00  0.00    +0.199 C 
BRANCH  11  12
ATOM     12  C   UNL     1     -31.000  29.468   6.765  0.00  0.00    +0.076 C 
BRANCH  12  13
ATOM     13  C   UNL     1     -29.514  29.589   6.433  0.00  0.00    +0.009 C 
ATOM     14  C   UNL     1     -28.654  29.494   7.683  0.00  0.00    +0.000 C 
ENDBRANCH  12  13
ENDBRANCH  11  12
ENDBRANCH   9  11
ENDBRANCH   8   9
ENDBRANCH   1   8
BRANCH   1  15
ATOM     15  C   UNL     1     -35.212  27.004   3.577  0.00  0.00    +0.220 C 
BRANCH  15  16
ATOM     16  O   UNL     1     -35.054  26.448   4.886  0.00  0.00    -0.448 OA
BRANCH  16  18
ATOM     17  O   UNL     1     -33.511  24.746   4.666  0.00  0.00    -0.250 OA
ATOM     18  C   UNL     1     -34.637  25.148   4.926  0.00  0.00    +0.317 C 
BRANCH  18  19
ATOM     19  C   UNL     1     -35.798  24.275   5.344  0.00  0.00    +0.110 C 
BRANCH  19  20
ATOM     20  C   UNL     1     -35.521  22.794   5.095  0.00  0.00    +0.012 C 
ATOM     21  C   UNL     1     -35.208  22.060   6.388  0.00  0.00    +0.001 C 
ENDBRANCH  19  20
ENDBRANCH  18  19
ENDBRANCH  16  18
ENDBRANCH  15  16
ENDBRANCH   1  15
TORSDOF 14
ENDMDL
