MODEL 1
REMARK VINA RESULT:      -7.8      0.000      0.000
REMARK  Name = 5488988
REMARK  5 active torsions:
REMARK  status: ('A' for Active; 'I' for Inactive)
REMARK    1  A    between atoms: C_5  and  O_33
REMARK    2  A    between atoms: C_6  and  O_35
REMARK    3  A    between atoms: C_11  and  O_37
REMARK    4  A    between atoms: C_15  and  O_39
REMARK    5  A    between atoms: C_26  and  O_41
REMARK                            x       y       z     vdW  Elec       q    Type
REMARK                         _______ _______ _______ _____ _____    ______ ____
ROOT
ATOM      1  O   UNL     1     -38.907  24.318   2.305  0.00  0.00    -0.286 OA
ATOM      2  O   UNL     1     -35.244  20.465   2.822  0.00  0.00    -0.286 OA
ATOM      3  O   UNL     1     -36.494  14.997  -0.092  0.00  0.00    -0.270 OA
ATOM      4  N   UNL     1     -37.382  14.043  -1.990  0.00  0.00    -0.284 N 
ATOM      5  C   UNL     1     -40.337  20.835  -1.191  0.00  0.00    +0.168 C 
ATOM      6  C   UNL     1     -39.929  20.015  -2.422  0.00  0.00    +0.164 C 
ATOM      7  C   UNL     1     -39.216  20.947  -0.179  0.00  0.00    +0.010 C 
ATOM      8  C   UNL     1     -38.276  19.901  -0.039  0.00  0.00    +0.035 C 
ATOM      9  C   UNL     1     -39.205  18.738  -2.052  0.00  0.00    +0.010 C 
ATOM     10  C   UNL     1     -38.396  18.693  -0.894  0.00  0.00    +0.035 C 
ATOM     11  C   UNL     1     -37.251  20.069   0.911  0.00  0.00    +0.137 C 
ATOM     12  C   UNL     1     -39.146  22.089   0.636  0.00  0.00    +0.002 C 
ATOM     13  C   UNL     1     -37.177  21.218   1.714  0.00  0.00    +0.076 C 
ATOM     14  C   UNL     1     -38.128  22.224   1.581  0.00  0.00    +0.045 C 
ATOM     15  C   UNL     1     -37.749  17.478  -0.595  0.00  0.00    +0.138 C 
ATOM     16  C   UNL     1     -39.327  17.616  -2.891  0.00  0.00    -0.001 C 
ATOM     17  C   UNL     1     -38.669  16.425  -2.585  0.00  0.00    +0.008 C 
ATOM     18  C   UNL     1     -37.884  16.361  -1.431  0.00  0.00    +0.087 C 
ATOM     19  C   UNL     1     -38.068  23.435   2.424  0.00  0.00    +0.199 C 
ATOM     20  C   UNL     1     -36.085  21.348   2.703  0.00  0.00    +0.199 C 
ATOM     21  C   UNL     1     -36.977  23.567   3.412  0.00  0.00    +0.075 C 
ATOM     22  C   UNL     1     -36.020  22.559   3.546  0.00  0.00    +0.045 C 
ATOM     23  C   UNL     1     -38.795  15.251  -3.451  0.00  0.00    +0.010 C 
ATOM     24  C   UNL     1     -37.190  15.089  -1.099  0.00  0.00    +0.252 C 
ATOM     25  C   UNL     1     -38.156  14.117  -3.128  0.00  0.00    +0.028 C 
ATOM     26  C   UNL     1     -36.906  24.709   4.217  0.00  0.00    +0.133 C 
ATOM     27  C   UNL     1     -34.991  22.694   4.485  0.00  0.00    +0.003 C 
ATOM     28  C   UNL     1     -35.879  24.840   5.153  0.00  0.00    +0.012 C 
ATOM     29  C   UNL     1     -34.924  23.835   5.287  0.00  0.00    -0.001 C 
ATOM     30  C   UNL     1     -38.232  12.875  -3.958  0.00  0.00    +0.047 C 
ATOM     31  C   UNL     1     -35.783  26.051   6.023  0.00  0.00    +0.034 C 
ATOM     32  H   UNL     1     -36.934  13.189  -1.796  0.00  0.00    +0.155 HD
ENDROOT
BRANCH   5  33
ATOM     33  O   UNL     1     -41.486  20.237  -0.591  0.00  0.00    -0.346 OA
ATOM     34  C   UNL     1     -42.686  20.713  -1.182  0.00  0.00    +0.175 C 
ENDBRANCH   5  33
BRANCH   6  35
ATOM     35  O   UNL     1     -39.095  20.820  -3.255  0.00  0.00    -0.377 OA
ATOM     36  H   UNL     1     -38.272  20.345  -3.446  0.00  0.00    +0.211 HD
ENDBRANCH   6  35
BRANCH  11  37
ATOM     37  O   UNL     1     -36.115  19.300   0.849  0.00  0.00    -0.505 OA
ATOM     38  H   UNL     1     -36.168  18.408   0.567  0.00  0.00    +0.292 HD
ENDBRANCH  11  37
BRANCH  15  39
ATOM     39  O   UNL     1     -37.252  17.235   0.659  0.00  0.00    -0.505 OA
ATOM     40  H   UNL     1     -37.159  17.938   1.271  0.00  0.00    +0.292 HD
ENDBRANCH  15  39
BRANCH  26  41
ATOM     41  O   UNL     1     -37.818  25.721   4.123  0.00  0.00    -0.506 OA
ATOM     42  H   UNL     1     -38.706  25.530   3.893  0.00  0.00    +0.292 HD
ENDBRANCH  26  41
TORSDOF 5
ENDMDL
MODEL 2
REMARK VINA RESULT:      -7.8      3.535      6.677
REMARK  Name = 5488988
REMARK  5 active torsions:
REMARK  status: ('A' for Active; 'I' for Inactive)
REMARK    1  A    between atoms: C_5  and  O_33
REMARK    2  A    between atoms: C_6  and  O_35
REMARK    3  A    between atoms: C_11  and  O_37
REMARK    4  A    between atoms: C_15  and  O_39
REMARK    5  A    between atoms: C_26  and  O_41
REMARK                            x       y       z     vdW  Elec       q    Type
REMARK                         _______ _______ _______ _____ _____    ______ ____
ROOT
ATOM      1  O   UNL     1     -40.473  26.927   3.408  0.00  0.00    -0.286 OA
ATOM      2  O   UNL     1     -41.450  22.822   0.133  0.00  0.00    -0.286 OA
ATOM      3  O   UNL     1     -36.524  19.119  -1.273  0.00  0.00    -0.270 OA
ATOM      4  N   UNL     1     -34.620  18.133  -0.435  0.00  0.00    -0.284 N 
ATOM      5  C   UNL     1     -36.220  24.066   3.777  0.00  0.00    +0.168 C 
ATOM      6  C   UNL     1     -35.629  22.687   4.101  0.00  0.00    +0.164 C 
ATOM      7  C   UNL     1     -37.522  23.966   3.010  0.00  0.00    +0.010 C 
ATOM      8  C   UNL     1     -37.746  22.886   2.125  0.00  0.00    +0.035 C 
ATOM      9  C   UNL     1     -35.657  21.752   2.911  0.00  0.00    +0.010 C 
ATOM     10  C   UNL     1     -36.696  21.850   1.957  0.00  0.00    +0.035 C 
ATOM     11  C   UNL     1     -38.980  22.843   1.450  0.00  0.00    +0.137 C 
ATOM     12  C   UNL     1     -38.485  24.977   3.167  0.00  0.00    +0.002 C 
ATOM     13  C   UNL     1     -39.945  23.848   1.620  0.00  0.00    +0.076 C 
ATOM     14  C   UNL     1     -39.695  24.917   2.474  0.00  0.00    +0.045 C 
ATOM     15  C   UNL     1     -36.669  20.958   0.867  0.00  0.00    +0.138 C 
ATOM     16  C   UNL     1     -34.655  20.772   2.789  0.00  0.00    -0.001 C 
ATOM     17  C   UNL     1     -34.652  19.889   1.709  0.00  0.00    +0.008 C 
ATOM     18  C   UNL     1     -35.662  19.991   0.748  0.00  0.00    +0.087 C 
ATOM     19  C   UNL     1     -40.697  25.986   2.657  0.00  0.00    +0.199 C 
ATOM     20  C   UNL     1     -41.225  23.763   0.884  0.00  0.00    +0.199 C 
ATOM     21  C   UNL     1     -41.977  25.903   1.923  0.00  0.00    +0.075 C 
ATOM     22  C   UNL     1     -42.231  24.829   1.067  0.00  0.00    +0.045 C 
ATOM     23  C   UNL     1     -33.611  18.870   1.573  0.00  0.00    +0.010 C 
ATOM     24  C   UNL     1     -35.654  19.056  -0.409  0.00  0.00    +0.252 C 
ATOM     25  C   UNL     1     -33.631  18.039   0.521  0.00  0.00    +0.028 C 
ATOM     26  C   UNL     1     -42.936  26.907   2.089  0.00  0.00    +0.133 C 
ATOM     27  C   UNL     1     -43.446  24.760   0.377  0.00  0.00    +0.003 C 
ATOM     28  C   UNL     1     -44.147  26.835   1.398  0.00  0.00    +0.012 C 
ATOM     29  C   UNL     1     -44.401  25.764   0.544  0.00  0.00    -0.001 C 
ATOM     30  C   UNL     1     -32.605  16.971   0.308  0.00  0.00    +0.047 C 
ATOM     31  C   UNL     1     -45.187  27.896   1.559  0.00  0.00    +0.034 C 
ATOM     32  H   UNL     1     -34.590  17.501  -1.189  0.00  0.00    +0.155 HD
ENDROOT
BRANCH   5  33
ATOM     33  O   UNL     1     -35.265  24.821   3.032  0.00  0.00    -0.346 OA
ATOM     34  C   UNL     1     -34.112  25.110   3.810  0.00  0.00    +0.175 C 
ENDBRANCH   5  33
BRANCH   6  35
ATOM     35  O   UNL     1     -36.363  22.115   5.184  0.00  0.00    -0.377 OA
ATOM     36  H   UNL     1     -37.306  22.086   4.957  0.00  0.00    +0.211 HD
ENDBRANCH   6  35
BRANCH  11  37
ATOM     37  O   UNL     1     -39.419  21.672   0.883  0.00  0.00    -0.505 OA
ATOM     38  H   UNL     1     -38.950  21.294   0.166  0.00  0.00    +0.292 HD
ENDBRANCH  11  37
BRANCH  15  39
ATOM     39  O   UNL     1     -37.404  21.205  -0.263  0.00  0.00    -0.505 OA
ATOM     40  H   UNL     1     -37.026  21.061  -1.109  0.00  0.00    +0.292 HD
ENDBRANCH  15  39
BRANCH  26  41
ATOM     41  O   UNL     1     -42.734  27.976   2.914  0.00  0.00    -0.506 OA
ATOM     42  H   UNL     1     -43.451  28.535   3.140  0.00  0.00    +0.292 HD
ENDBRANCH  26  41
TORSDOF 5
ENDMDL
MODEL 3
REMARK VINA RESULT:      -7.7      5.400      9.390
REMARK  Name = 5488988
REMARK  5 active torsions:
REMARK  status: ('A' for Active; 'I' for Inactive)
REMARK    1  A    between atoms: C_5  and  O_33
REMARK    2  A    between atoms: C_6  and  O_35
REMARK    3  A    between atoms: C_11  and  O_37
REMARK    4  A    between atoms: C_15  and  O_39
REMARK    5  A    between atoms: C_26  and  O_41
REMARK                            x       y       z     vdW  Elec       q    Type
REMARK                         _______ _______ _______ _____ _____    ______ ____
ROOT
ATOM      1  O   UNL     1     -38.233  21.251  -0.696  0.00  0.00    -0.286 OA
ATOM      2  O   UNL     1     -37.833  23.769   3.998  0.00  0.00    -0.286 OA
ATOM      3  O   UNL     1     -41.692  28.698   4.875  0.00  0.00    -0.270 OA
ATOM      4  N   UNL     1     -43.814  29.508   4.503  0.00  0.00    -0.284 N 
ATOM      5  C   UNL     1     -42.381  24.282  -0.610  0.00  0.00    +0.168 C 
ATOM      6  C   UNL     1     -43.658  24.683   0.140  0.00  0.00    +0.164 C 
ATOM      7  C   UNL     1     -41.224  24.014   0.329  0.00  0.00    +0.010 C 
ATOM      8  C   UNL     1     -41.123  24.715   1.553  0.00  0.00    +0.035 C 
ATOM      9  C   UNL     1     -43.396  25.711   1.221  0.00  0.00    +0.010 C 
ATOM     10  C   UNL     1     -42.161  25.714   1.910  0.00  0.00    +0.035 C 
ATOM     11  C   UNL     1     -40.031  24.412   2.388  0.00  0.00    +0.137 C 
ATOM     12  C   UNL     1     -40.241  23.084  -0.049  0.00  0.00    +0.002 C 
ATOM     13  C   UNL     1     -39.058  23.473   2.013  0.00  0.00    +0.076 C 
ATOM     14  C   UNL     1     -39.161  22.814   0.792  0.00  0.00    +0.045 C 
ATOM     15  C   UNL     1     -41.969  26.695   2.902  0.00  0.00    +0.138 C 
ATOM     16  C   UNL     1     -44.406  26.634   1.545  0.00  0.00    -0.001 C 
ATOM     17  C   UNL     1     -44.202  27.590   2.539  0.00  0.00    +0.008 C 
ATOM     18  C   UNL     1     -42.978  27.618   3.212  0.00  0.00    +0.087 C 
ATOM     19  C   UNL     1     -38.141  21.829   0.380  0.00  0.00    +0.199 C 
ATOM     20  C   UNL     1     -37.926  23.192   2.921  0.00  0.00    +0.199 C 
ATOM     21  C   UNL     1     -37.008  21.547   1.286  0.00  0.00    +0.075 C 
ATOM     22  C   UNL     1     -36.905  22.205   2.513  0.00  0.00    +0.045 C 
ATOM     23  C   UNL     1     -45.247  28.557   2.879  0.00  0.00    +0.010 C 
ATOM     24  C   UNL     1     -42.756  28.643   4.266  0.00  0.00    +0.252 C 
ATOM     25  C   UNL     1     -45.020  29.469   3.836  0.00  0.00    +0.028 C 
ATOM     26  C   UNL     1     -36.036  20.614   0.909  0.00  0.00    +0.133 C 
ATOM     27  C   UNL     1     -35.829  21.930   3.364  0.00  0.00    +0.003 C 
ATOM     28  C   UNL     1     -34.963  20.343   1.760  0.00  0.00    +0.012 C 
ATOM     29  C   UNL     1     -34.859  21.000   2.984  0.00  0.00    -0.001 C 
ATOM     30  C   UNL     1     -46.034  30.492   4.242  0.00  0.00    +0.047 C 
ATOM     31  C   UNL     1     -33.912  19.352   1.380  0.00  0.00    +0.034 C 
ATOM     32  H   UNL     1     -43.696  30.197   5.196  0.00  0.00    +0.155 HD
ENDROOT
BRANCH   5  33
ATOM     33  O   UNL     1     -42.037  25.316  -1.534  0.00  0.00    -0.346 OA
ATOM     34  C   UNL     1     -43.028  25.462  -2.540  0.00  0.00    +0.175 C 
ENDBRANCH   5  33
BRANCH   6  35
ATOM     35  O   UNL     1     -44.240  23.513   0.715  0.00  0.00    -0.377 OA
ATOM     36  H   UNL     1     -43.580  23.057   1.260  0.00  0.00    +0.211 HD
ENDBRANCH   6  35
BRANCH  11  37
ATOM     37  O   UNL     1     -40.059  24.756   3.717  0.00  0.00    -0.505 OA
ATOM     38  H   UNL     1     -40.486  24.198   4.337  0.00  0.00    +0.292 HD
ENDBRANCH  11  37
BRANCH  15  39
ATOM     39  O   UNL     1     -40.713  27.000   3.357  0.00  0.00    -0.505 OA
ATOM     40  H   UNL     1     -40.594  27.692   3.978  0.00  0.00    +0.292 HD
ENDBRANCH  15  39
BRANCH  26  41
ATOM     41  O   UNL     1     -36.093  19.945  -0.279  0.00  0.00    -0.506 OA
ATOM     42  H   UNL     1     -35.557  20.219  -0.997  0.00  0.00    +0.292 HD
ENDBRANCH  26  41
TORSDOF 5
ENDMDL
MODEL 4
REMARK VINA RESULT:      -7.6      7.753     12.626
REMARK  Name = 5488988
REMARK  5 active torsions:
REMARK  status: ('A' for Active; 'I' for Inactive)
REMARK    1  A    between atoms: C_5  and  O_33
REMARK    2  A    between atoms: C_6  and  O_35
REMARK    3  A    between atoms: C_11  and  O_37
REMARK    4  A    between atoms: C_15  and  O_39
REMARK    5  A    between atoms: C_26  and  O_41
REMARK                            x       y       z     vdW  Elec       q    Type
REMARK                         _______ _______ _______ _____ _____    ______ ____
ROOT
ATOM      1  O   UNL     1     -32.207  34.828   1.917  0.00  0.00    -0.286 OA
ATOM      2  O   UNL     1     -36.993  32.506   1.429  0.00  0.00    -0.286 OA
ATOM      3  O   UNL     1     -37.162  26.236   2.211  0.00  0.00    -0.270 OA
ATOM      4  N   UNL     1     -36.316  24.474   3.426  0.00  0.00    -0.284 N 
ATOM      5  C   UNL     1     -31.424  30.085   3.734  0.00  0.00    +0.168 C 
ATOM      6  C   UNL     1     -31.850  29.018   4.751  0.00  0.00    +0.164 C 
ATOM      7  C   UNL     1     -32.608  30.838   3.163  0.00  0.00    +0.010 C 
ATOM      8  C   UNL     1     -33.858  30.193   3.015  0.00  0.00    +0.035 C 
ATOM      9  C   UNL     1     -33.022  28.191   4.265  0.00  0.00    +0.010 C 
ATOM     10  C   UNL     1     -34.000  28.774   3.426  0.00  0.00    +0.035 C 
ATOM     11  C   UNL     1     -34.922  30.949   2.488  0.00  0.00    +0.137 C 
ATOM     12  C   UNL     1     -32.435  32.171   2.755  0.00  0.00    +0.002 C 
ATOM     13  C   UNL     1     -34.748  32.285   2.094  0.00  0.00    +0.076 C 
ATOM     14  C   UNL     1     -33.504  32.893   2.222  0.00  0.00    +0.045 C 
ATOM     15  C   UNL     1     -35.066  27.957   3.000  0.00  0.00    +0.138 C 
ATOM     16  C   UNL     1     -33.136  26.854   4.685  0.00  0.00    -0.001 C 
ATOM     17  C   UNL     1     -34.205  26.065   4.263  0.00  0.00    +0.008 C 
ATOM     18  C   UNL     1     -35.167  26.623   3.416  0.00  0.00    +0.087 C 
ATOM     19  C   UNL     1     -33.304  34.296   1.805  0.00  0.00    +0.199 C 
ATOM     20  C   UNL     1     -35.894  33.037   1.541  0.00  0.00    +0.199 C 
ATOM     21  C   UNL     1     -34.448  35.049   1.252  0.00  0.00    +0.075 C 
ATOM     22  C   UNL     1     -35.699  34.441   1.125  0.00  0.00    +0.045 C 
ATOM     23  C   UNL     1     -34.328  24.671   4.693  0.00  0.00    +0.010 C 
ATOM     24  C   UNL     1     -36.302  25.779   2.957  0.00  0.00    +0.252 C 
ATOM     25  C   UNL     1     -35.364  23.934   4.266  0.00  0.00    +0.028 C 
ATOM     26  C   UNL     1     -34.274  36.380   0.855  0.00  0.00    +0.133 C 
ATOM     27  C   UNL     1     -36.776  35.165   0.601  0.00  0.00    +0.003 C 
ATOM     28  C   UNL     1     -35.350  37.097   0.331  0.00  0.00    +0.012 C 
ATOM     29  C   UNL     1     -36.598  36.491   0.204  0.00  0.00    -0.001 C 
ATOM     30  C   UNL     1     -35.563  22.504   4.657  0.00  0.00    +0.047 C 
ATOM     31  C   UNL     1     -35.189  38.518  -0.100  0.00  0.00    +0.034 C 
ATOM     32  H   UNL     1     -37.056  23.893   3.140  0.00  0.00    +0.155 HD
ENDROOT
BRANCH   5  33
ATOM     33  O   UNL     1     -30.682  29.463   2.685  0.00  0.00    -0.346 OA
ATOM     34  C   UNL     1     -29.498  28.855   3.179  0.00  0.00    +0.175 C 
ENDBRANCH   5  33
BRANCH   6  35
ATOM     35  O   UNL     1     -32.188  29.661   5.979  0.00  0.00    -0.377 OA
ATOM     36  H   UNL     1     -32.896  30.306   5.824  0.00  0.00    +0.211 HD
ENDBRANCH   6  35
BRANCH  11  37
ATOM     37  O   UNL     1     -36.219  30.532   2.659  0.00  0.00    -0.505 OA
ATOM     38  H   UNL     1     -36.803  30.508   1.927  0.00  0.00    +0.292 HD
ENDBRANCH  11  37
BRANCH  15  39
ATOM     39  O   UNL     1     -35.842  28.315   1.928  0.00  0.00    -0.505 OA
ATOM     40  H   UNL     1     -36.657  28.755   2.066  0.00  0.00    +0.292 HD
ENDBRANCH  15  39
BRANCH  26  41
ATOM     41  O   UNL     1     -33.071  37.017   0.959  0.00  0.00    -0.506 OA
ATOM     42  H   UNL     1     -33.004  37.811   1.452  0.00  0.00    +0.292 HD
ENDBRANCH  26  41
TORSDOF 5
ENDMDL
MODEL 5
REMARK VINA RESULT:      -7.6      3.565      8.755
REMARK  Name = 5488988
REMARK  5 active torsions:
REMARK  status: ('A' for Active; 'I' for Inactive)
REMARK    1  A    between atoms: C_5  and  O_33
REMARK    2  A    between atoms: C_6  and  O_35
REMARK    3  A    between atoms: C_11  and  O_37
REMARK    4  A    between atoms: C_15  and  O_39
REMARK    5  A    between atoms: C_26  and  O_41
REMARK                            x       y       z     vdW  Elec       q    Type
REMARK                         _______ _______ _______ _____ _____    ______ ____
ROOT
ATOM      1  O   UNL     1     -33.041  18.623   1.901  0.00  0.00    -0.286 OA
ATOM      2  O   UNL     1     -37.116  19.349  -1.475  0.00  0.00    -0.286 OA
ATOM      3  O   UNL     1     -41.665  23.305   0.427  0.00  0.00    -0.270 OA
ATOM      4  N   UNL     1     -42.093  25.279   1.532  0.00  0.00    -0.284 N 
ATOM      5  C   UNL     1     -35.517  22.673   3.871  0.00  0.00    +0.168 C 
ATOM      6  C   UNL     1     -36.047  24.091   3.626  0.00  0.00    +0.164 C 
ATOM      7  C   UNL     1     -35.711  21.772   2.669  0.00  0.00    +0.010 C 
ATOM      8  C   UNL     1     -36.814  21.965   1.806  0.00  0.00    +0.035 C 
ATOM      9  C   UNL     1     -37.416  24.093   2.979  0.00  0.00    +0.010 C 
ATOM     10  C   UNL     1     -37.778  23.057   2.087  0.00  0.00    +0.035 C 
ATOM     11  C   UNL     1     -36.934  21.102   0.700  0.00  0.00    +0.137 C 
ATOM     12  C   UNL     1     -34.798  20.727   2.446  0.00  0.00    +0.002 C 
ATOM     13  C   UNL     1     -36.012  20.068   0.473  0.00  0.00    +0.076 C 
ATOM     14  C   UNL     1     -34.949  19.878   1.348  0.00  0.00    +0.045 C 
ATOM     15  C   UNL     1     -39.066  23.107   1.517  0.00  0.00    +0.138 C 
ATOM     16  C   UNL     1     -38.301  25.151   3.254  0.00  0.00    -0.001 C 
ATOM     17  C   UNL     1     -39.567  25.189   2.671  0.00  0.00    +0.008 C 
ATOM     18  C   UNL     1     -39.945  24.160   1.804  0.00  0.00    +0.087 C 
ATOM     19  C   UNL     1     -33.975  18.789   1.127  0.00  0.00    +0.199 C 
ATOM     20  C   UNL     1     -36.182  19.184  -0.700  0.00  0.00    +0.199 C 
ATOM     21  C   UNL     1     -34.143  17.905  -0.044  0.00  0.00    +0.075 C 
ATOM     22  C   UNL     1     -35.209  18.096  -0.927  0.00  0.00    +0.045 C 
ATOM     23  C   UNL     1     -40.495  26.285   2.956  0.00  0.00    +0.010 C 
ATOM     24  C   UNL     1     -41.298  24.194   1.189  0.00  0.00    +0.252 C 
ATOM     25  C   UNL     1     -41.708  26.291   2.385  0.00  0.00    +0.028 C 
ATOM     26  C   UNL     1     -33.227  16.871  -0.268  0.00  0.00    +0.133 C 
ATOM     27  C   UNL     1     -35.358  17.252  -2.033  0.00  0.00    +0.003 C 
ATOM     28  C   UNL     1     -33.380  16.031  -1.372  0.00  0.00    +0.012 C 
ATOM     29  C   UNL     1     -34.443  16.221  -2.253  0.00  0.00    -0.001 C 
ATOM     30  C   UNL     1     -42.714  27.372   2.624  0.00  0.00    +0.047 C 
ATOM     31  C   UNL     1     -32.416  14.920  -1.632  0.00  0.00    +0.034 C 
ATOM     32  H   UNL     1     -42.993  25.328   1.139  0.00  0.00    +0.155 HD
ENDROOT
BRANCH   5  33
ATOM     33  O   UNL     1     -36.171  22.119   5.013  0.00  0.00    -0.346 OA
ATOM     34  C   UNL     1     -35.327  22.143   6.155  0.00  0.00    +0.175 C 
ENDBRANCH   5  33
BRANCH   6  35
ATOM     35  O   UNL     1     -35.119  24.793   2.800  0.00  0.00    -0.377 OA
ATOM     36  H   UNL     1     -34.789  24.200   2.107  0.00  0.00    +0.211 HD
ENDBRANCH   6  35
BRANCH  11  37
ATOM     37  O   UNL     1     -37.732  21.445  -0.363  0.00  0.00    -0.505 OA
ATOM     38  H   UNL     1     -37.893  22.348  -0.556  0.00  0.00    +0.292 HD
ENDBRANCH  11  37
BRANCH  15  39
ATOM     39  O   UNL     1     -39.625  21.994   0.944  0.00  0.00    -0.505 OA
ATOM     40  H   UNL     1     -40.512  21.763   1.137  0.00  0.00    +0.292 HD
ENDBRANCH  15  39
BRANCH  26  41
ATOM     41  O   UNL     1     -32.171  16.644   0.566  0.00  0.00    -0.506 OA
ATOM     42  H   UNL     1     -31.369  17.115   0.444  0.00  0.00    +0.292 HD
ENDBRANCH  26  41
TORSDOF 5
ENDMDL
MODEL 6
REMARK VINA RESULT:      -7.4      7.781     13.258
REMARK  Name = 5488988
REMARK  5 active torsions:
REMARK  status: ('A' for Active; 'I' for Inactive)
REMARK    1  A    between atoms: C_5  and  O_33
REMARK    2  A    between atoms: C_6  and  O_35
REMARK    3  A    between atoms: C_11  and  O_37
REMARK    4  A    between atoms: C_15  and  O_39
REMARK    5  A    between atoms: C_26  and  O_41
REMARK                            x       y       z     vdW  Elec       q    Type
REMARK                         _______ _______ _______ _____ _____    ______ ____
ROOT
ATOM      1  O   UNL     1     -37.169  25.936   1.565  0.00  0.00    -0.286 OA
ATOM      2  O   UNL     1     -33.268  27.790   4.708  0.00  0.00    -0.286 OA
ATOM      3  O   UNL     1     -30.999  33.515   3.280  0.00  0.00    -0.270 OA
ATOM      4  N   UNL     1     -31.558  35.626   2.551  0.00  0.00    -0.284 N 
ATOM      5  C   UNL     1     -36.825  30.889   0.244  0.00  0.00    +0.168 C 
ATOM      6  C   UNL     1     -36.871  32.347   0.720  0.00  0.00    +0.164 C 
ATOM      7  C   UNL     1     -36.114  29.986   1.229  0.00  0.00    +0.010 C 
ATOM      8  C   UNL     1     -35.064  30.492   2.029  0.00  0.00    +0.035 C 
ATOM      9  C   UNL     1     -35.537  32.824   1.252  0.00  0.00    +0.010 C 
ATOM     10  C   UNL     1     -34.666  31.916   1.896  0.00  0.00    +0.035 C 
ATOM     11  C   UNL     1     -34.450  29.606   2.935  0.00  0.00    +0.137 C 
ATOM     12  C   UNL     1     -36.493  28.636   1.312  0.00  0.00    +0.002 C 
ATOM     13  C   UNL     1     -34.841  28.261   3.024  0.00  0.00    +0.076 C 
ATOM     14  C   UNL     1     -35.858  27.775   2.209  0.00  0.00    +0.045 C 
ATOM     15  C   UNL     1     -33.435  32.413   2.367  0.00  0.00    +0.138 C 
ATOM     16  C   UNL     1     -35.196  34.183   1.123  0.00  0.00    -0.001 C 
ATOM     17  C   UNL     1     -33.978  34.659   1.607  0.00  0.00    +0.008 C 
ATOM     18  C   UNL     1     -33.099  33.766   2.226  0.00  0.00    +0.087 C 
ATOM     19  C   UNL     1     -36.275  26.361   2.286  0.00  0.00    +0.199 C 
ATOM     20  C   UNL     1     -34.163  27.366   3.986  0.00  0.00    +0.199 C 
ATOM     21  C   UNL     1     -35.599  25.465   3.247  0.00  0.00    +0.075 C 
ATOM     22  C   UNL     1     -34.579  25.951   4.068  0.00  0.00    +0.045 C 
ATOM     23  C   UNL     1     -33.615  36.071   1.473  0.00  0.00    +0.010 C 
ATOM     24  C   UNL     1     -31.796  34.272   2.734  0.00  0.00    +0.252 C 
ATOM     25  C   UNL     1     -32.434  36.499   1.943  0.00  0.00    +0.028 C 
ATOM     26  C   UNL     1     -35.984  24.123   3.332  0.00  0.00    +0.133 C 
ATOM     27  C   UNL     1     -33.946  25.094   4.975  0.00  0.00    +0.003 C 
ATOM     28  C   UNL     1     -35.350  23.271   4.238  0.00  0.00    +0.012 C 
ATOM     29  C   UNL     1     -34.332  23.756   5.057  0.00  0.00    -0.001 C 
ATOM     30  C   UNL     1     -31.987  37.923   1.845  0.00  0.00    +0.047 C 
ATOM     31  C   UNL     1     -35.744  21.834   4.347  0.00  0.00    +0.034 C 
ATOM     32  H   UNL     1     -30.703  35.988   2.878  0.00  0.00    +0.155 HD
ENDROOT
BRANCH   5  33
ATOM     33  O   UNL     1     -36.181  30.833  -1.030  0.00  0.00    -0.346 OA
ATOM     34  C   UNL     1     -36.897  31.577  -2.005  0.00  0.00    +0.175 C 
ENDBRANCH   5  33
BRANCH   6  35
ATOM     35  O   UNL     1     -37.869  32.468   1.733  0.00  0.00    -0.377 OA
ATOM     36  H   UNL     1     -37.833  31.694   2.317  0.00  0.00    +0.211 HD
ENDBRANCH   6  35
BRANCH  11  37
ATOM     37  O   UNL     1     -33.706  30.091   3.982  0.00  0.00    -0.505 OA
ATOM     38  H   UNL     1     -32.777  30.174   3.898  0.00  0.00    +0.292 HD
ENDBRANCH  11  37
BRANCH  15  39
ATOM     39  O   UNL     1     -32.402  31.564   2.670  0.00  0.00    -0.505 OA
ATOM     40  H   UNL     1     -32.263  31.293   3.556  0.00  0.00    +0.292 HD
ENDBRANCH  15  39
BRANCH  26  41
ATOM     41  O   UNL     1     -36.975  23.602   2.551  0.00  0.00    -0.506 OA
ATOM     42  H   UNL     1     -37.794  23.358   2.935  0.00  0.00    +0.292 HD
ENDBRANCH  26  41
TORSDOF 5
ENDMDL
MODEL 7
REMARK VINA RESULT:      -7.4      6.869     10.257
REMARK  Name = 5488988
REMARK  5 active torsions:
REMARK  status: ('A' for Active; 'I' for Inactive)
REMARK    1  A    between atoms: C_5  and  O_33
REMARK    2  A    between atoms: C_6  and  O_35
REMARK    3  A    between atoms: C_11  and  O_37
REMARK    4  A    between atoms: C_15  and  O_39
REMARK    5  A    between atoms: C_26  and  O_41
REMARK                            x       y       z     vdW  Elec       q    Type
REMARK                         _______ _______ _______ _____ _____    ______ ____
ROOT
ATOM      1  O   UNL     1     -37.032  32.652  -0.703  0.00  0.00    -0.286 OA
ATOM      2  O   UNL     1     -33.536  31.512   3.172  0.00  0.00    -0.286 OA
ATOM      3  O   UNL     1     -34.214  25.900   6.000  0.00  0.00    -0.270 OA
ATOM      4  N   UNL     1     -34.725  23.681   5.665  0.00  0.00    -0.284 N 
ATOM      5  C   UNL     1     -37.774  27.637   0.137  0.00  0.00    +0.168 C 
ATOM      6  C   UNL     1     -37.140  26.241   0.192  0.00  0.00    +0.164 C 
ATOM      7  C   UNL     1     -36.866  28.703   0.715  0.00  0.00    +0.010 C 
ATOM      8  C   UNL     1     -35.970  28.384   1.761  0.00  0.00    +0.035 C 
ATOM      9  C   UNL     1     -36.500  25.948   1.533  0.00  0.00    +0.010 C 
ATOM     10  C   UNL     1     -35.926  26.997   2.287  0.00  0.00    +0.035 C 
ATOM     11  C   UNL     1     -35.144  29.416   2.247  0.00  0.00    +0.137 C 
ATOM     12  C   UNL     1     -36.951  30.014   0.216  0.00  0.00    +0.002 C 
ATOM     13  C   UNL     1     -35.223  30.721   1.737  0.00  0.00    +0.076 C 
ATOM     14  C   UNL     1     -36.130  31.020   0.726  0.00  0.00    +0.045 C 
ATOM     15  C   UNL     1     -35.349  26.669   3.530  0.00  0.00    +0.138 C 
ATOM     16  C   UNL     1     -36.462  24.621   1.996  0.00  0.00    -0.001 C 
ATOM     17  C   UNL     1     -35.875  24.314   3.224  0.00  0.00    +0.008 C 
ATOM     18  C   UNL     1     -35.323  25.345   3.988  0.00  0.00    +0.087 C 
ATOM     19  C   UNL     1     -36.231  32.391   0.185  0.00  0.00    +0.199 C 
ATOM     20  C   UNL     1     -34.339  31.772   2.283  0.00  0.00    +0.199 C 
ATOM     21  C   UNL     1     -35.347  33.443   0.729  0.00  0.00    +0.075 C 
ATOM     22  C   UNL     1     -34.434  33.144   1.742  0.00  0.00    +0.045 C 
ATOM     23  C   UNL     1     -35.835  22.935   3.714  0.00  0.00    +0.010 C 
ATOM     24  C   UNL     1     -34.705  25.019   5.301  0.00  0.00    +0.252 C 
ATOM     25  C   UNL     1     -35.269  22.670   4.901  0.00  0.00    +0.028 C 
ATOM     26  C   UNL     1     -35.430  34.746   0.225  0.00  0.00    +0.133 C 
ATOM     27  C   UNL     1     -33.602  34.148   2.250  0.00  0.00    +0.003 C 
ATOM     28  C   UNL     1     -34.599  35.744   0.735  0.00  0.00    +0.012 C 
ATOM     29  C   UNL     1     -33.688  35.446   1.745  0.00  0.00    -0.001 C 
ATOM     30  C   UNL     1     -35.188  21.291   5.474  0.00  0.00    +0.047 C 
ATOM     31  C   UNL     1     -34.669  37.142   0.212  0.00  0.00    +0.034 C 
ATOM     32  H   UNL     1     -34.323  23.435   6.529  0.00  0.00    +0.155 HD
ENDROOT
BRANCH   5  33
ATOM     33  O   UNL     1     -39.017  27.615   0.841  0.00  0.00    -0.346 OA
ATOM     34  C   UNL     1     -39.928  26.699   0.252  0.00  0.00    +0.175 C 
ENDBRANCH   5  33
BRANCH   6  35
ATOM     35  O   UNL     1     -36.163  26.139  -0.843  0.00  0.00    -0.377 OA
ATOM     36  H   UNL     1     -35.793  27.016  -1.027  0.00  0.00    +0.211 HD
ENDBRANCH   6  35
BRANCH  11  37
ATOM     37  O   UNL     1     -34.018  29.117   2.973  0.00  0.00    -0.505 OA
ATOM     38  H   UNL     1     -33.173  29.363   2.651  0.00  0.00    +0.292 HD
ENDBRANCH  11  37
BRANCH  15  39
ATOM     39  O   UNL     1     -35.099  27.636   4.468  0.00  0.00    -0.505 OA
ATOM     40  H   UNL     1     -34.879  28.506   4.196  0.00  0.00    +0.292 HD
ENDBRANCH  15  39
BRANCH  26  41
ATOM     41  O   UNL     1     -36.307  35.086  -0.764  0.00  0.00    -0.506 OA
ATOM     42  H   UNL     1     -36.058  34.993  -1.663  0.00  0.00    +0.292 HD
ENDBRANCH  26  41
TORSDOF 5
ENDMDL
MODEL 8
REMARK VINA RESULT:      -7.3      6.743     13.111
REMARK  Name = 5488988
REMARK  5 active torsions:
REMARK  status: ('A' for Active; 'I' for Inactive)
REMARK    1  A    between atoms: C_5  and  O_33
REMARK    2  A    between atoms: C_6  and  O_35
REMARK    3  A    between atoms: C_11  and  O_37
REMARK    4  A    between atoms: C_15  and  O_39
REMARK    5  A    between atoms: C_26  and  O_41
REMARK                            x       y       z     vdW  Elec       q    Type
REMARK                         _______ _______ _______ _____ _____    ______ ____
ROOT
ATOM      1  O   UNL     1     -35.292  24.224   4.262  0.00  0.00    -0.286 OA
ATOM      2  O   UNL     1     -37.472  27.825   0.973  0.00  0.00    -0.286 OA
ATOM      3  O   UNL     1     -35.337  33.752   1.490  0.00  0.00    -0.270 OA
ATOM      4  N   UNL     1     -33.467  35.048   1.838  0.00  0.00    -0.284 N 
ATOM      5  C   UNL     1     -32.207  28.305   4.746  0.00  0.00    +0.168 C 
ATOM      6  C   UNL     1     -31.302  29.317   4.031  0.00  0.00    +0.164 C 
ATOM      7  C   UNL     1     -33.453  27.986   3.947  0.00  0.00    +0.010 C 
ATOM      8  C   UNL     1     -34.030  28.966   3.105  0.00  0.00    +0.035 C 
ATOM      9  C   UNL     1     -32.076  30.489   3.467  0.00  0.00    +0.010 C 
ATOM     10  C   UNL     1     -33.402  30.308   3.011  0.00  0.00    +0.035 C 
ATOM     11  C   UNL     1     -35.181  28.605   2.380  0.00  0.00    +0.137 C 
ATOM     12  C   UNL     1     -34.042  26.717   4.080  0.00  0.00    +0.002 C 
ATOM     13  C   UNL     1     -35.758  27.332   2.506  0.00  0.00    +0.076 C 
ATOM     14  C   UNL     1     -35.192  26.391   3.359  0.00  0.00    +0.045 C 
ATOM     15  C   UNL     1     -34.078  31.433   2.500  0.00  0.00    +0.138 C 
ATOM     16  C   UNL     1     -31.448  31.744   3.378  0.00  0.00    -0.001 C 
ATOM     17  C   UNL     1     -32.129  32.844   2.857  0.00  0.00    +0.008 C 
ATOM     18  C   UNL     1     -33.447  32.682   2.423  0.00  0.00    +0.087 C 
ATOM     19  C   UNL     1     -35.792  25.050   3.508  0.00  0.00    +0.199 C 
ATOM     20  C   UNL     1     -36.970  27.000   1.727  0.00  0.00    +0.199 C 
ATOM     21  C   UNL     1     -37.003  24.716   2.731  0.00  0.00    +0.075 C 
ATOM     22  C   UNL     1     -37.572  25.658   1.871  0.00  0.00    +0.045 C 
ATOM     23  C   UNL     1     -31.482  34.155   2.765  0.00  0.00    +0.010 C 
ATOM     24  C   UNL     1     -34.177  33.858   1.877  0.00  0.00    +0.252 C 
ATOM     25  C   UNL     1     -32.164  35.196   2.265  0.00  0.00    +0.028 C 
ATOM     26  C   UNL     1     -37.582  23.449   2.859  0.00  0.00    +0.133 C 
ATOM     27  C   UNL     1     -38.720  25.332   1.139  0.00  0.00    +0.003 C 
ATOM     28  C   UNL     1     -38.727  23.128   2.129  0.00  0.00    +0.012 C 
ATOM     29  C   UNL     1     -39.294  24.067   1.271  0.00  0.00    -0.001 C 
ATOM     30  C   UNL     1     -31.578  36.566   2.137  0.00  0.00    +0.047 C 
ATOM     31  C   UNL     1     -39.362  21.781   2.250  0.00  0.00    +0.034 C 
ATOM     32  H   UNL     1     -33.924  35.843   1.481  0.00  0.00    +0.155 HD
ENDROOT
BRANCH   5  33
ATOM     33  O   UNL     1     -32.562  28.820   6.030  0.00  0.00    -0.346 OA
ATOM     34  C   UNL     1     -31.417  29.250   6.750  0.00  0.00    +0.175 C 
ENDBRANCH   5  33
BRANCH   6  35
ATOM     35  O   UNL     1     -30.603  28.648   2.982  0.00  0.00    -0.377 OA
ATOM     36  H   UNL     1     -29.689  28.971   2.943  0.00  0.00    +0.211 HD
ENDBRANCH   6  35
BRANCH  11  37
ATOM     37  O   UNL     1     -35.572  29.342   1.290  0.00  0.00    -0.505 OA
ATOM     38  H   UNL     1     -35.877  30.220   1.402  0.00  0.00    +0.292 HD
ENDBRANCH  11  37
BRANCH  15  39
ATOM     39  O   UNL     1     -35.443  31.439   2.375  0.00  0.00    -0.505 OA
ATOM     40  H   UNL     1     -35.905  32.252   2.316  0.00  0.00    +0.292 HD
ENDBRANCH  15  39
BRANCH  26  41
ATOM     41  O   UNL     1     -37.063  22.495   3.686  0.00  0.00    -0.506 OA
ATOM     42  H   UNL     1     -36.885  22.699   4.584  0.00  0.00    +0.292 HD
ENDBRANCH  26  41
TORSDOF 5
ENDMDL
MODEL 9
REMARK VINA RESULT:      -7.3      6.262      8.640
REMARK  Name = 5488988
REMARK  5 active torsions:
REMARK  status: ('A' for Active; 'I' for Inactive)
REMARK    1  A    between atoms: C_5  and  O_33
REMARK    2  A    between atoms: C_6  and  O_35
REMARK    3  A    between atoms: C_11  and  O_37
REMARK    4  A    between atoms: C_15  and  O_39
REMARK    5  A    between atoms: C_26  and  O_41
REMARK                            x       y       z     vdW  Elec       q    Type
REMARK                         _______ _______ _______ _____ _____    ______ ____
ROOT
ATOM      1  O   UNL     1     -46.119  28.139   1.984  0.00  0.00    -0.286 OA
ATOM      2  O   UNL     1     -41.659  28.490   4.902  0.00  0.00    -0.286 OA
ATOM      3  O   UNL     1     -37.443  23.840   4.153  0.00  0.00    -0.270 OA
ATOM      4  N   UNL     1     -36.456  22.433   2.622  0.00  0.00    -0.284 N 
ATOM      5  C   UNL     1     -43.044  24.592  -0.105  0.00  0.00    +0.168 C 
ATOM      6  C   UNL     1     -41.689  24.301  -0.763  0.00  0.00    +0.164 C 
ATOM      7  C   UNL     1     -42.927  25.582   1.035  0.00  0.00    +0.010 C 
ATOM      8  C   UNL     1     -41.747  25.637   1.813  0.00  0.00    +0.035 C 
ATOM      9  C   UNL     1     -40.593  24.055   0.252  0.00  0.00    +0.010 C 
ATOM     10  C   UNL     1     -40.625  24.716   1.502  0.00  0.00    +0.035 C 
ATOM     11  C   UNL     1     -41.695  26.586   2.851  0.00  0.00    +0.137 C 
ATOM     12  C   UNL     1     -44.017  26.421   1.325  0.00  0.00    +0.002 C 
ATOM     13  C   UNL     1     -42.781  27.430   3.128  0.00  0.00    +0.076 C 
ATOM     14  C   UNL     1     -43.943  27.343   2.369  0.00  0.00    +0.045 C 
ATOM     15  C   UNL     1     -39.583  24.446   2.410  0.00  0.00    +0.138 C 
ATOM     16  C   UNL     1     -39.536  23.189  -0.080  0.00  0.00    -0.001 C 
ATOM     17  C   UNL     1     -38.506  22.944   0.829  0.00  0.00    +0.008 C 
ATOM     18  C   UNL     1     -38.538  23.574   2.075  0.00  0.00    +0.087 C 
ATOM     19  C   UNL     1     -45.097  28.220   2.653  0.00  0.00    +0.199 C 
ATOM     20  C   UNL     1     -42.681  28.409   4.232  0.00  0.00    +0.199 C 
ATOM     21  C   UNL     1     -44.999  29.198   3.756  0.00  0.00    +0.075 C 
ATOM     22  C   UNL     1     -43.832  29.289   4.518  0.00  0.00    +0.045 C 
ATOM     23  C   UNL     1     -37.405  22.040   0.492  0.00  0.00    +0.010 C 
ATOM     24  C   UNL     1     -37.445  23.306   3.048  0.00  0.00    +0.252 C 
ATOM     25  C   UNL     1     -36.432  21.819   1.388  0.00  0.00    +0.028 C 
ATOM     26  C   UNL     1     -46.084  30.037   4.036  0.00  0.00    +0.133 C 
ATOM     27  C   UNL     1     -43.751  30.220   5.560  0.00  0.00    +0.003 C 
ATOM     28  C   UNL     1     -45.998  30.963   5.077  0.00  0.00    +0.012 C 
ATOM     29  C   UNL     1     -44.835  31.054   5.837  0.00  0.00    -0.001 C 
ATOM     30  C   UNL     1     -35.273  20.911   1.123  0.00  0.00    +0.047 C 
ATOM     31  C   UNL     1     -47.144  31.868   5.395  0.00  0.00    +0.034 C 
ATOM     32  H   UNL     1     -35.719  22.237   3.245  0.00  0.00    +0.155 HD
ENDROOT
BRANCH   5  33
ATOM     33  O   UNL     1     -43.610  23.367   0.362  0.00  0.00    -0.346 OA
ATOM     34  C   UNL     1     -44.755  23.005  -0.396  0.00  0.00    +0.175 C 
ENDBRANCH   5  33
BRANCH   6  35
ATOM     35  O   UNL     1     -41.337  25.403  -1.598  0.00  0.00    -0.377 OA
ATOM     36  H   UNL     1     -41.664  26.227  -1.204  0.00  0.00    +0.211 HD
ENDBRANCH   6  35
BRANCH  11  37
ATOM     37  O   UNL     1     -40.488  26.954   3.392  0.00  0.00    -0.505 OA
ATOM     38  H   UNL     1     -39.757  26.371   3.348  0.00  0.00    +0.292 HD
ENDBRANCH  11  37
BRANCH  15  39
ATOM     39  O   UNL     1     -39.713  24.747   3.741  0.00  0.00    -0.505 OA
ATOM     40  H   UNL     1     -38.968  24.703   4.307  0.00  0.00    +0.292 HD
ENDBRANCH  15  39
BRANCH  26  41
ATOM     41  O   UNL     1     -47.245  29.985   3.320  0.00  0.00    -0.506 OA
ATOM     42  H   UNL     1     -47.851  29.285   3.461  0.00  0.00    +0.292 HD
ENDBRANCH  26  41
TORSDOF 5
ENDMDL
