MODEL 1
REMARK VINA RESULT:      -5.3      0.000      0.000
REMARK  Name = 195887
REMARK  9 active torsions:
REMARK  status: ('A' for Active; 'I' for Inactive)
REMARK    1  A    between atoms: C_2  and  O_7
REMARK    2  A    between atoms: C_3  and  O_9
REMARK    3  A    between atoms: C_4  and  O_11
REMARK    4  A    between atoms: C_5  and  C_19
REMARK    5  A    between atoms: C_6  and  O_13
REMARK    6  A    between atoms: O_13  and  C_14
REMARK    7  A    between atoms: C_14  and  O_16
REMARK    8  A    between atoms: O_16  and  C_17
REMARK    9  A    between atoms: C_19  and  O_20
REMARK                            x       y       z     vdW  Elec       q    Type
REMARK                         _______ _______ _______ _____ _____    ______ ____
ROOT
ATOM      1  O   UNL     1     -35.159  24.096   5.518  0.00  0.00    -0.326 OA
ATOM      2  C   UNL     1     -37.053  24.015   3.361  0.00  0.00    +0.172 C 
ATOM      3  C   UNL     1     -36.131  22.840   3.687  0.00  0.00    +0.169 C 
ATOM      4  C   UNL     1     -36.489  25.328   3.902  0.00  0.00    +0.196 C 
ATOM      5  C   UNL     1     -35.751  22.843   5.168  0.00  0.00    +0.176 C 
ATOM      6  C   UNL     1     -36.061  25.189   5.363  0.00  0.00    +0.267 C 
ENDROOT
BRANCH   2   7
ATOM      7  O   UNL     1     -37.175  24.099   1.939  0.00  0.00    -0.379 OA
ATOM      8  H   UNL     1     -36.628  24.828   1.610  0.00  0.00    +0.211 HD
ENDBRANCH   2   7
BRANCH   3   9
ATOM      9  O   UNL     1     -36.794  21.618   3.374  0.00  0.00    -0.379 OA
ATOM     10  H   UNL     1     -36.854  21.520   2.410  0.00  0.00    +0.211 HD
ENDBRANCH   3   9
BRANCH   4  11
ATOM     11  O   UNL     1     -37.491  26.342   3.825  0.00  0.00    -0.378 OA
ATOM     12  H   UNL     1     -37.245  27.083   4.401  0.00  0.00    +0.211 HD
ENDBRANCH   4  11
BRANCH   6  13
ATOM     13  O   UNL     1     -35.419  26.403   5.750  0.00  0.00    -0.304 OA
BRANCH  13  14
ATOM     14  C   UNL     1     -34.046  26.450   5.361  0.00  0.00    +0.237 C 
ATOM     15  C   UNL     1     -33.187  26.752   6.582  0.00  0.00    +0.067 C 
BRANCH  14  16
ATOM     16  O   UNL     1     -33.816  27.509   4.422  0.00  0.00    -0.330 OA
BRANCH  16  17
ATOM     17  C   UNL     1     -32.771  27.201   3.510  0.00  0.00    +0.145 C 
ATOM     18  C   UNL     1     -33.040  25.881   2.873  0.00  0.00    +0.035 C 
ENDBRANCH  16  17
ENDBRANCH  14  16
ENDBRANCH  13  14
ENDBRANCH   6  13
BRANCH   5  19
ATOM     19  C   UNL     1     -34.738  21.750   5.496  0.00  0.00    +0.169 C 
BRANCH  19  20
ATOM     20  O   UNL     1     -35.447  20.574   5.812  0.00  0.00    -0.379 OA
ATOM     21  H   UNL     1     -35.465  19.989   5.039  0.00  0.00    +0.211 HD
ENDBRANCH  19  20
ENDBRANCH   5  19
TORSDOF 9
ENDMDL
MODEL 2
REMARK VINA RESULT:      -5.2      2.303      3.818
REMARK  Name = 195887
REMARK  9 active torsions:
REMARK  status: ('A' for Active; 'I' for Inactive)
REMARK    1  A    between atoms: C_2  and  O_7
REMARK    2  A    between atoms: C_3  and  O_9
REMARK    3  A    between atoms: C_4  and  O_11
REMARK    4  A    between atoms: C_5  and  C_19
REMARK    5  A    between atoms: C_6  and  O_13
REMARK    6  A    between atoms: O_13  and  C_14
REMARK    7  A    between atoms: C_14  and  O_16
REMARK    8  A    between atoms: O_16  and  C_17
REMARK    9  A    between atoms: C_19  and  O_20
REMARK                            x       y       z     vdW  Elec       q    Type
REMARK                         _______ _______ _______ _____ _____    ______ ____
ROOT
ATOM      1  O   UNL     1     -36.702  22.799   2.402  0.00  0.00    -0.326 OA
ATOM      2  C   UNL     1     -39.571  22.923   2.364  0.00  0.00    +0.172 C 
ATOM      3  C   UNL     1     -38.780  21.947   1.492  0.00  0.00    +0.169 C 
ATOM      4  C   UNL     1     -38.708  24.113   2.783  0.00  0.00    +0.196 C 
ATOM      5  C   UNL     1     -37.439  21.603   2.142  0.00  0.00    +0.176 C 
ATOM      6  C   UNL     1     -37.358  23.654   3.335  0.00  0.00    +0.267 C 
ENDROOT
BRANCH   2   7
ATOM      7  O   UNL     1     -40.687  23.389   1.603  0.00  0.00    -0.379 OA
ATOM      8  H   UNL     1     -40.999  24.231   1.968  0.00  0.00    +0.211 HD
ENDBRANCH   2   7
BRANCH   3   9
ATOM      9  O   UNL     1     -39.538  20.752   1.316  0.00  0.00    -0.379 OA
ATOM     10  H   UNL     1     -39.613  20.289   2.166  0.00  0.00    +0.211 HD
ENDBRANCH   3   9
BRANCH   4  11
ATOM     11  O   UNL     1     -39.381  24.850   3.805  0.00  0.00    -0.378 OA
ATOM     12  H   UNL     1     -38.731  25.355   4.319  0.00  0.00    +0.211 HD
ENDBRANCH   4  11
BRANCH   6  13
ATOM     13  O   UNL     1     -36.561  24.815   3.569  0.00  0.00    -0.304 OA
BRANCH  13  14
ATOM     14  C   UNL     1     -35.948  24.812   4.858  0.00  0.00    +0.237 C 
ATOM     15  C   UNL     1     -34.437  24.921   4.696  0.00  0.00    +0.067 C 
BRANCH  14  16
ATOM     16  O   UNL     1     -36.202  23.578   5.543  0.00  0.00    -0.330 OA
BRANCH  16  17
ATOM     17  C   UNL     1     -35.003  22.917   5.923  0.00  0.00    +0.145 C 
ATOM     18  C   UNL     1     -35.187  21.443   5.800  0.00  0.00    +0.035 C 
ENDBRANCH  16  17
ENDBRANCH  14  16
ENDBRANCH  13  14
ENDBRANCH   6  13
BRANCH   5  19
ATOM     19  C   UNL     1     -36.581  20.722   1.239  0.00  0.00    +0.169 C 
BRANCH  19  20
ATOM     20  O   UNL     1     -36.868  19.375   1.537  0.00  0.00    -0.379 OA
ATOM     21  H   UNL     1     -37.634  19.332   2.131  0.00  0.00    +0.211 HD
ENDBRANCH  19  20
ENDBRANCH   5  19
TORSDOF 9
ENDMDL
MODEL 3
REMARK VINA RESULT:      -5.1      2.273      5.058
REMARK  Name = 195887
REMARK  9 active torsions:
REMARK  status: ('A' for Active; 'I' for Inactive)
REMARK    1  A    between atoms: C_2  and  O_7
REMARK    2  A    between atoms: C_3  and  O_9
REMARK    3  A    between atoms: C_4  and  O_11
REMARK    4  A    between atoms: C_5  and  C_19
REMARK    5  A    between atoms: C_6  and  O_13
REMARK    6  A    between atoms: O_13  and  C_14
REMARK    7  A    between atoms: C_14  and  O_16
REMARK    8  A    between atoms: O_16  and  C_17
REMARK    9  A    between atoms: C_19  and  O_20
REMARK                            x       y       z     vdW  Elec       q    Type
REMARK                         _______ _______ _______ _____ _____    ______ ____
ROOT
ATOM      1  O   UNL     1     -37.092  23.333   4.216  0.00  0.00    -0.326 OA
ATOM      2  C   UNL     1     -35.729  25.851   3.994  0.00  0.00    +0.172 C 
ATOM      3  C   UNL     1     -35.173  24.687   4.816  0.00  0.00    +0.169 C 
ATOM      4  C   UNL     1     -37.239  25.721   3.802  0.00  0.00    +0.196 C 
ATOM      5  C   UNL     1     -35.664  23.349   4.261  0.00  0.00    +0.176 C 
ATOM      6  C   UNL     1     -37.622  24.318   3.332  0.00  0.00    +0.267 C 
ENDROOT
BRANCH   2   7
ATOM      7  O   UNL     1     -35.440  27.062   4.695  0.00  0.00    -0.379 OA
ATOM      8  H   UNL     1     -36.169  27.268   5.299  0.00  0.00    +0.211 HD
ENDBRANCH   2   7
BRANCH   3   9
ATOM      9  O   UNL     1     -33.749  24.720   4.777  0.00  0.00    -0.379 OA
ATOM     10  H   UNL     1     -33.397  23.868   5.081  0.00  0.00    +0.211 HD
ENDBRANCH   3   9
BRANCH   4  11
ATOM     11  O   UNL     1     -37.674  26.657   2.815  0.00  0.00    -0.378 OA
ATOM     12  H   UNL     1     -38.529  27.032   3.080  0.00  0.00    +0.211 HD
ENDBRANCH   4  11
BRANCH   6  13
ATOM     13  O   UNL     1     -39.047  24.233   3.313  0.00  0.00    -0.304 OA
BRANCH  13  14
ATOM     14  C   UNL     1     -39.550  23.665   2.104  0.00  0.00    +0.237 C 
ATOM     15  C   UNL     1     -40.697  24.523   1.585  0.00  0.00    +0.067 C 
BRANCH  14  16
ATOM     16  O   UNL     1     -40.085  22.356   2.337  0.00  0.00    -0.330 OA
BRANCH  16  17
ATOM     17  C   UNL     1     -39.656  21.418   1.360  0.00  0.00    +0.145 C 
ATOM     18  C   UNL     1     -38.171  21.301   1.400  0.00  0.00    +0.035 C 
ENDBRANCH  16  17
ENDBRANCH  14  16
ENDBRANCH  13  14
ENDBRANCH   6  13
BRANCH   5  19
ATOM     19  C   UNL     1     -35.219  22.178   5.132  0.00  0.00    +0.169 C 
BRANCH  19  20
ATOM     20  O   UNL     1     -36.117  22.067   6.213  0.00  0.00    -0.379 OA
ATOM     21  H   UNL     1     -36.907  21.582   5.928  0.00  0.00    +0.211 HD
ENDBRANCH  19  20
ENDBRANCH   5  19
TORSDOF 9
ENDMDL
MODEL 4
REMARK VINA RESULT:      -5.1      1.866      2.616
REMARK  Name = 195887
REMARK  9 active torsions:
REMARK  status: ('A' for Active; 'I' for Inactive)
REMARK    1  A    between atoms: C_2  and  O_7
REMARK    2  A    between atoms: C_3  and  O_9
REMARK    3  A    between atoms: C_4  and  O_11
REMARK    4  A    between atoms: C_5  and  C_19
REMARK    5  A    between atoms: C_6  and  O_13
REMARK    6  A    between atoms: O_13  and  C_14
REMARK    7  A    between atoms: C_14  and  O_16
REMARK    8  A    between atoms: O_16  and  C_17
REMARK    9  A    between atoms: C_19  and  O_20
REMARK                            x       y       z     vdW  Elec       q    Type
REMARK                         _______ _______ _______ _____ _____    ______ ____
ROOT
ATOM      1  O   UNL     1     -33.962  24.875   4.868  0.00  0.00    -0.326 OA
ATOM      2  C   UNL     1     -36.279  26.217   3.830  0.00  0.00    +0.172 C 
ATOM      3  C   UNL     1     -36.223  24.700   4.012  0.00  0.00    +0.169 C 
ATOM      4  C   UNL     1     -34.877  26.814   3.728  0.00  0.00    +0.196 C 
ATOM      5  C   UNL     1     -35.253  24.323   5.133  0.00  0.00    +0.176 C 
ATOM      6  C   UNL     1     -33.970  26.300   4.847  0.00  0.00    +0.267 C 
ENDROOT
BRANCH   2   7
ATOM      7  O   UNL     1     -37.002  26.490   2.628  0.00  0.00    -0.379 OA
ATOM      8  H   UNL     1     -37.714  25.841   2.524  0.00  0.00    +0.211 HD
ENDBRANCH   2   7
BRANCH   3   9
ATOM      9  O   UNL     1     -37.524  24.214   4.332  0.00  0.00    -0.379 OA
ATOM     10  H   UNL     1     -37.447  23.403   4.859  0.00  0.00    +0.211 HD
ENDBRANCH   3   9
BRANCH   4  11
ATOM     11  O   UNL     1     -34.958  28.236   3.836  0.00  0.00    -0.378 OA
ATOM     12  H   UNL     1     -34.070  28.617   3.745  0.00  0.00    +0.211 HD
ENDBRANCH   4  11
BRANCH   6  13
ATOM     13  O   UNL     1     -32.651  26.787   4.602  0.00  0.00    -0.304 OA
BRANCH  13  14
ATOM     14  C   UNL     1     -32.167  27.621   5.655  0.00  0.00    +0.237 C 
ATOM     15  C   UNL     1     -32.759  27.155   6.979  0.00  0.00    +0.067 C 
BRANCH  14  16
ATOM     16  O   UNL     1     -32.589  28.978   5.468  0.00  0.00    -0.330 OA
BRANCH  16  17
ATOM     17  C   UNL     1     -31.717  29.700   4.609  0.00  0.00    +0.145 C 
ATOM     18  C   UNL     1     -31.612  31.110   5.078  0.00  0.00    +0.035 C 
ENDBRANCH  16  17
ENDBRANCH  14  16
ENDBRANCH  13  14
ENDBRANCH   6  13
BRANCH   5  19
ATOM     19  C   UNL     1     -35.090  22.811   5.257  0.00  0.00    +0.169 C 
BRANCH  19  20
ATOM     20  O   UNL     1     -36.117  22.325   6.090  0.00  0.00    -0.379 OA
ATOM     21  H   UNL     1     -36.450  23.046   6.647  0.00  0.00    +0.211 HD
ENDBRANCH  19  20
ENDBRANCH   5  19
TORSDOF 9
ENDMDL
MODEL 5
REMARK VINA RESULT:      -4.9      1.981      4.806
REMARK  Name = 195887
REMARK  9 active torsions:
REMARK  status: ('A' for Active; 'I' for Inactive)
REMARK    1  A    between atoms: C_2  and  O_7
REMARK    2  A    between atoms: C_3  and  O_9
REMARK    3  A    between atoms: C_4  and  O_11
REMARK    4  A    between atoms: C_5  and  C_19
REMARK    5  A    between atoms: C_6  and  O_13
REMARK    6  A    between atoms: O_13  and  C_14
REMARK    7  A    between atoms: C_14  and  O_16
REMARK    8  A    between atoms: O_16  and  C_17
REMARK    9  A    between atoms: C_19  and  O_20
REMARK                            x       y       z     vdW  Elec       q    Type
REMARK                         _______ _______ _______ _____ _____    ______ ____
ROOT
ATOM      1  O   UNL     1     -36.628  22.739   4.457  0.00  0.00    -0.326 OA
ATOM      2  C   UNL     1     -36.101  25.561   4.534  0.00  0.00    +0.172 C 
ATOM      3  C   UNL     1     -35.483  24.583   5.535  0.00  0.00    +0.169 C 
ATOM      4  C   UNL     1     -37.372  24.985   3.911  0.00  0.00    +0.196 C 
ATOM      5  C   UNL     1     -35.353  23.188   4.921  0.00  0.00    +0.176 C 
ATOM      6  C   UNL     1     -37.149  23.557   3.413  0.00  0.00    +0.267 C 
ENDROOT
BRANCH   2   7
ATOM      7  O   UNL     1     -36.417  26.766   5.233  0.00  0.00    -0.379 OA
ATOM      8  H   UNL     1     -36.345  26.615   6.188  0.00  0.00    +0.211 HD
ENDBRANCH   2   7
BRANCH   3   9
ATOM      9  O   UNL     1     -34.192  25.052   5.916  0.00  0.00    -0.379 OA
ATOM     10  H   UNL     1     -33.611  25.069   5.139  0.00  0.00    +0.211 HD
ENDBRANCH   3   9
BRANCH   4  11
ATOM     11  O   UNL     1     -37.761  25.791   2.799  0.00  0.00    -0.378 OA
ATOM     12  H   UNL     1     -38.712  25.681   2.639  0.00  0.00    +0.211 HD
ENDBRANCH   4  11
BRANCH   6  13
ATOM     13  O   UNL     1     -38.407  23.042   2.978  0.00  0.00    -0.304 OA
BRANCH  13  14
ATOM     14  C   UNL     1     -38.374  22.568   1.632  0.00  0.00    +0.237 C 
ATOM     15  C   UNL     1     -39.355  21.412   1.481  0.00  0.00    +0.067 C 
BRANCH  14  16
ATOM     16  O   UNL     1     -37.077  22.055   1.301  0.00  0.00    -0.330 OA
BRANCH  16  17
ATOM     17  C   UNL     1     -36.987  20.651   1.497  0.00  0.00    +0.145 C 
ATOM     18  C   UNL     1     -35.693  20.322   2.159  0.00  0.00    +0.035 C 
ENDBRANCH  16  17
ENDBRANCH  14  16
ENDBRANCH  13  14
ENDBRANCH   6  13
BRANCH   5  19
ATOM     19  C   UNL     1     -34.848  22.168   5.936  0.00  0.00    +0.169 C 
BRANCH  19  20
ATOM     20  O   UNL     1     -35.475  20.935   5.670  0.00  0.00    -0.379 OA
ATOM     21  H   UNL     1     -36.418  20.998   5.889  0.00  0.00    +0.211 HD
ENDBRANCH  19  20
ENDBRANCH   5  19
TORSDOF 9
ENDMDL
MODEL 6
REMARK VINA RESULT:      -4.8      2.405      5.099
REMARK  Name = 195887
REMARK  9 active torsions:
REMARK  status: ('A' for Active; 'I' for Inactive)
REMARK    1  A    between atoms: C_2  and  O_7
REMARK    2  A    between atoms: C_3  and  O_9
REMARK    3  A    between atoms: C_4  and  O_11
REMARK    4  A    between atoms: C_5  and  C_19
REMARK    5  A    between atoms: C_6  and  O_13
REMARK    6  A    between atoms: O_13  and  C_14
REMARK    7  A    between atoms: C_14  and  O_16
REMARK    8  A    between atoms: O_16  and  C_17
REMARK    9  A    between atoms: C_19  and  O_20
REMARK                            x       y       z     vdW  Elec       q    Type
REMARK                         _______ _______ _______ _____ _____    ______ ____
ROOT
ATOM      1  O   UNL     1     -37.079  23.247   4.172  0.00  0.00    -0.326 OA
ATOM      2  C   UNL     1     -35.799  25.815   4.051  0.00  0.00    +0.172 C 
ATOM      3  C   UNL     1     -35.233  24.655   4.869  0.00  0.00    +0.169 C 
ATOM      4  C   UNL     1     -37.296  25.637   3.801  0.00  0.00    +0.196 C 
ATOM      5  C   UNL     1     -35.655  23.312   4.271  0.00  0.00    +0.176 C 
ATOM      6  C   UNL     1     -37.611  24.231   3.289  0.00  0.00    +0.267 C 
ENDROOT
BRANCH   2   7
ATOM      7  O   UNL     1     -35.580  27.021   4.785  0.00  0.00    -0.379 OA
ATOM      8  H   UNL     1     -35.386  27.744   4.170  0.00  0.00    +0.211 HD
ENDBRANCH   2   7
BRANCH   3   9
ATOM      9  O   UNL     1     -33.810  24.738   4.883  0.00  0.00    -0.379 OA
ATOM     10  H   UNL     1     -33.493  24.715   5.800  0.00  0.00    +0.211 HD
ENDBRANCH   3   9
BRANCH   4  11
ATOM     11  O   UNL     1     -37.728  26.577   2.817  0.00  0.00    -0.378 OA
ATOM     12  H   UNL     1     -38.698  26.571   2.769  0.00  0.00    +0.211 HD
ENDBRANCH   4  11
BRANCH   6  13
ATOM     13  O   UNL     1     -39.030  24.097   3.216  0.00  0.00    -0.304 OA
BRANCH  13  14
ATOM     14  C   UNL     1     -39.451  23.268   2.133  0.00  0.00    +0.237 C 
ATOM     15  C   UNL     1     -38.542  23.506   0.935  0.00  0.00    +0.067 C 
BRANCH  14  16
ATOM     16  O   UNL     1     -40.781  23.606   1.717  0.00  0.00    -0.330 OA
BRANCH  16  17
ATOM     17  C   UNL     1     -40.841  24.883   1.095  0.00  0.00    +0.145 C 
ATOM     18  C   UNL     1     -41.814  25.745   1.823  0.00  0.00    +0.035 C 
ENDBRANCH  16  17
ENDBRANCH  14  16
ENDBRANCH  13  14
ENDBRANCH   6  13
BRANCH   5  19
ATOM     19  C   UNL     1     -35.200  22.139   5.134  0.00  0.00    +0.169 C 
BRANCH  19  20
ATOM     20  O   UNL     1     -36.083  22.028   6.226  0.00  0.00    -0.379 OA
ATOM     21  H   UNL     1     -36.406  21.116   6.289  0.00  0.00    +0.211 HD
ENDBRANCH  19  20
ENDBRANCH   5  19
TORSDOF 9
ENDMDL
MODEL 7
REMARK VINA RESULT:      -4.7      1.485      2.205
REMARK  Name = 195887
REMARK  9 active torsions:
REMARK  status: ('A' for Active; 'I' for Inactive)
REMARK    1  A    between atoms: C_2  and  O_7
REMARK    2  A    between atoms: C_3  and  O_9
REMARK    3  A    between atoms: C_4  and  O_11
REMARK    4  A    between atoms: C_5  and  C_19
REMARK    5  A    between atoms: C_6  and  O_13
REMARK    6  A    between atoms: O_13  and  C_14
REMARK    7  A    between atoms: C_14  and  O_16
REMARK    8  A    between atoms: O_16  and  C_17
REMARK    9  A    between atoms: C_19  and  O_20
REMARK                            x       y       z     vdW  Elec       q    Type
REMARK                         _______ _______ _______ _____ _____    ______ ____
ROOT
ATOM      1  O   UNL     1     -34.665  23.692   3.843  0.00  0.00    -0.326 OA
ATOM      2  C   UNL     1     -37.300  24.782   4.182  0.00  0.00    +0.172 C 
ATOM      3  C   UNL     1     -37.015  23.598   3.258  0.00  0.00    +0.169 C 
ATOM      4  C   UNL     1     -36.037  25.608   4.429  0.00  0.00    +0.196 C 
ATOM      5  C   UNL     1     -35.790  22.818   3.738  0.00  0.00    +0.176 C 
ATOM      6  C   UNL     1     -34.857  24.716   4.816  0.00  0.00    +0.267 C 
ENDROOT
BRANCH   2   7
ATOM      7  O   UNL     1     -38.289  25.602   3.556  0.00  0.00    -0.379 OA
ATOM      8  H   UNL     1     -37.862  26.202   2.927  0.00  0.00    +0.211 HD
ENDBRANCH   2   7
BRANCH   3   9
ATOM      9  O   UNL     1     -38.147  22.733   3.238  0.00  0.00    -0.379 OA
ATOM     10  H   UNL     1     -38.114  22.174   2.445  0.00  0.00    +0.211 HD
ENDBRANCH   3   9
BRANCH   4  11
ATOM     11  O   UNL     1     -36.272  26.526   5.497  0.00  0.00    -0.378 OA
ATOM     12  H   UNL     1     -36.111  27.430   5.186  0.00  0.00    +0.211 HD
ENDBRANCH   4  11
BRANCH   6  13
ATOM     13  O   UNL     1     -33.692  25.537   4.890  0.00  0.00    -0.304 OA
BRANCH  13  14
ATOM     14  C   UNL     1     -33.721  26.622   3.962  0.00  0.00    +0.237 C 
ATOM     15  C   UNL     1     -32.581  26.462   2.965  0.00  0.00    +0.067 C 
BRANCH  14  16
ATOM     16  O   UNL     1     -33.514  27.873   4.631  0.00  0.00    -0.330 OA
BRANCH  16  17
ATOM     17  C   UNL     1     -32.135  28.180   4.781  0.00  0.00    +0.145 C 
ATOM     18  C   UNL     1     -31.888  28.699   6.155  0.00  0.00    +0.035 C 
ENDBRANCH  16  17
ENDBRANCH  14  16
ENDBRANCH  13  14
ENDBRANCH   6  13
BRANCH   5  19
ATOM     19  C   UNL     1     -35.415  21.701   2.769  0.00  0.00    +0.169 C 
BRANCH  19  20
ATOM     20  O   UNL     1     -36.038  20.514   3.203  0.00  0.00    -0.379 OA
ATOM     21  H   UNL     1     -35.367  19.825   3.329  0.00  0.00    +0.211 HD
ENDBRANCH  19  20
ENDBRANCH   5  19
TORSDOF 9
ENDMDL
MODEL 8
REMARK VINA RESULT:      -4.7      2.527      4.238
REMARK  Name = 195887
REMARK  9 active torsions:
REMARK  status: ('A' for Active; 'I' for Inactive)
REMARK    1  A    between atoms: C_2  and  O_7
REMARK    2  A    between atoms: C_3  and  O_9
REMARK    3  A    between atoms: C_4  and  O_11
REMARK    4  A    between atoms: C_5  and  C_19
REMARK    5  A    between atoms: C_6  and  O_13
REMARK    6  A    between atoms: O_13  and  C_14
REMARK    7  A    between atoms: C_14  and  O_16
REMARK    8  A    between atoms: O_16  and  C_17
REMARK    9  A    between atoms: C_19  and  O_20
REMARK                            x       y       z     vdW  Elec       q    Type
REMARK                         _______ _______ _______ _____ _____    ______ ____
ROOT
ATOM      1  O   UNL     1     -37.772  23.278   2.474  0.00  0.00    -0.326 OA
ATOM      2  C   UNL     1     -39.558  25.301   1.494  0.00  0.00    +0.172 C 
ATOM      3  C   UNL     1     -39.721  23.823   1.140  0.00  0.00    +0.169 C 
ATOM      4  C   UNL     1     -38.124  25.615   1.916  0.00  0.00    +0.196 C 
ATOM      5  C   UNL     1     -39.139  22.934   2.241  0.00  0.00    +0.176 C 
ATOM      6  C   UNL     1     -37.617  24.611   2.953  0.00  0.00    +0.267 C 
ENDROOT
BRANCH   2   7
ATOM      7  O   UNL     1     -39.893  26.071   0.338  0.00  0.00    -0.379 OA
ATOM      8  H   UNL     1     -39.249  25.896  -0.365  0.00  0.00    +0.211 HD
ENDBRANCH   2   7
BRANCH   3   9
ATOM      9  O   UNL     1     -41.105  23.526   0.978  0.00  0.00    -0.379 OA
ATOM     10  H   UNL     1     -41.220  22.570   0.858  0.00  0.00    +0.211 HD
ENDBRANCH   3   9
BRANCH   4  11
ATOM     11  O   UNL     1     -38.074  26.919   2.496  0.00  0.00    -0.378 OA
ATOM     12  H   UNL     1     -37.659  26.867   3.372  0.00  0.00    +0.211 HD
ENDBRANCH   4  11
BRANCH   6  13
ATOM     13  O   UNL     1     -36.235  24.882   3.188  0.00  0.00    -0.304 OA
BRANCH  13  14
ATOM     14  C   UNL     1     -35.920  24.970   4.578  0.00  0.00    +0.237 C 
ATOM     15  C   UNL     1     -34.415  25.139   4.742  0.00  0.00    +0.067 C 
BRANCH  14  16
ATOM     16  O   UNL     1     -36.277  23.762   5.262  0.00  0.00    -0.330 OA
BRANCH  16  17
ATOM     17  C   UNL     1     -35.228  22.804   5.245  0.00  0.00    +0.145 C 
ATOM     18  C   UNL     1     -35.344  21.920   6.439  0.00  0.00    +0.035 C 
ENDBRANCH  16  17
ENDBRANCH  14  16
ENDBRANCH  13  14
ENDBRANCH   6  13
BRANCH   5  19
ATOM     19  C   UNL     1     -39.184  21.458   1.859  0.00  0.00    +0.169 C 
BRANCH  19  20
ATOM     20  O   UNL     1     -40.444  20.946   2.227  0.00  0.00    -0.379 OA
ATOM     21  H   UNL     1     -40.806  21.473   2.955  0.00  0.00    +0.211 HD
ENDBRANCH  19  20
ENDBRANCH   5  19
TORSDOF 9
ENDMDL
MODEL 9
REMARK VINA RESULT:      -4.7      2.407      5.207
REMARK  Name = 195887
REMARK  9 active torsions:
REMARK  status: ('A' for Active; 'I' for Inactive)
REMARK    1  A    between atoms: C_2  and  O_7
REMARK    2  A    between atoms: C_3  and  O_9
REMARK    3  A    between atoms: C_4  and  O_11
REMARK    4  A    between atoms: C_5  and  C_19
REMARK    5  A    between atoms: C_6  and  O_13
REMARK    6  A    between atoms: O_13  and  C_14
REMARK    7  A    between atoms: C_14  and  O_16
REMARK    8  A    between atoms: O_16  and  C_17
REMARK    9  A    between atoms: C_19  and  O_20
REMARK                            x       y       z     vdW  Elec       q    Type
REMARK                         _______ _______ _______ _____ _____    ______ ____
ROOT
ATOM      1  O   UNL     1     -36.783  22.927   3.946  0.00  0.00    -0.326 OA
ATOM      2  C   UNL     1     -37.898  25.469   3.208  0.00  0.00    +0.172 C 
ATOM      3  C   UNL     1     -37.156  25.250   4.527  0.00  0.00    +0.169 C 
ATOM      4  C   UNL     1     -38.431  24.151   2.649  0.00  0.00    +0.196 C 
ATOM      5  C   UNL     1     -36.135  24.119   4.395  0.00  0.00    +0.176 C 
ATOM      6  C   UNL     1     -37.350  23.070   2.646  0.00  0.00    +0.267 C 
ENDROOT
BRANCH   2   7
ATOM      7  O   UNL     1     -38.989  26.356   3.458  0.00  0.00    -0.379 OA
ATOM      8  H   UNL     1     -39.706  26.172   2.832  0.00  0.00    +0.211 HD
ENDBRANCH   2   7
BRANCH   3   9
ATOM      9  O   UNL     1     -36.483  26.452   4.895  0.00  0.00    -0.379 OA
ATOM     10  H   UNL     1     -36.914  27.208   4.465  0.00  0.00    +0.211 HD
ENDBRANCH   3   9
BRANCH   4  11
ATOM     11  O   UNL     1     -38.867  24.349   1.304  0.00  0.00    -0.378 OA
ATOM     12  H   UNL     1     -38.177  24.046   0.693  0.00  0.00    +0.211 HD
ENDBRANCH   4  11
BRANCH   6  13
ATOM     13  O   UNL     1     -37.957  21.841   2.247  0.00  0.00    -0.304 OA
BRANCH  13  14
ATOM     14  C   UNL     1     -37.147  21.094   1.340  0.00  0.00    +0.237 C 
ATOM     15  C   UNL     1     -38.043  20.375   0.340  0.00  0.00    +0.067 C 
BRANCH  14  16
ATOM     16  O   UNL     1     -36.405  20.081   2.033  0.00  0.00    -0.330 OA
BRANCH  16  17
ATOM     17  C   UNL     1     -35.025  20.403   2.139  0.00  0.00    +0.145 C 
ATOM     18  C   UNL     1     -34.222  19.409   1.373  0.00  0.00    +0.035 C 
ENDBRANCH  16  17
ENDBRANCH  14  16
ENDBRANCH  13  14
ENDBRANCH   6  13
BRANCH   5  19
ATOM     19  C   UNL     1     -35.464  23.803   5.729  0.00  0.00    +0.169 C 
BRANCH  19  20
ATOM     20  O   UNL     1     -35.949  22.560   6.181  0.00  0.00    -0.379 OA
ATOM     21  H   UNL     1     -36.886  22.645   6.417  0.00  0.00    +0.211 HD
ENDBRANCH  19  20
ENDBRANCH   5  19
TORSDOF 9
ENDMDL
