MODEL 1
REMARK VINA RESULT:      -5.3      0.000      0.000
REMARK  Name = 192609
REMARK  2 active torsions:
REMARK  status: ('A' for Active; 'I' for Inactive)
REMARK    1  A    between atoms: C_10  and  N_15
REMARK    2  A    between atoms: C_12  and  C_19
REMARK                            x       y       z     vdW  Elec       q    Type
REMARK                         _______ _______ _______ _____ _____    ______ ____
ROOT
ATOM      1  O   UNL     1     -38.679  25.827   3.375  0.00  0.00    -0.267 OA
ATOM      2  O   UNL     1     -38.954  21.555   1.604  0.00  0.00    -0.246 OA
ATOM      3  N   UNL     1     -37.066  22.138   2.804  0.00  0.00    -0.264 N 
ATOM      4  N   UNL     1     -38.835  23.699   2.477  0.00  0.00    -0.247 N 
ATOM      5  N   UNL     1     -35.116  22.764   4.054  0.00  0.00    -0.226 NA
ATOM      6  C   UNL     1     -36.874  24.363   3.750  0.00  0.00    +0.104 A 
ATOM      7  C   UNL     1     -36.333  23.101   3.551  0.00  0.00    +0.153 A 
ATOM      8  C   UNL     1     -38.192  24.713   3.200  0.00  0.00    +0.268 A 
ATOM      9  C   UNL     1     -38.325  22.399   2.250  0.00  0.00    +0.335 A 
ATOM     10  C   UNL     1     -36.148  25.307   4.484  0.00  0.00    +0.060 C 
ATOM     11  C   UNL     1     -36.446  20.826   2.625  0.00  0.00    +0.137 C 
ATOM     12  C   UNL     1     -34.906  24.970   5.001  0.00  0.00    +0.101 C 
ATOM     13  C   UNL     1     -40.148  23.984   1.902  0.00  0.00    +0.138 C 
ATOM     14  C   UNL     1     -34.438  23.695   4.760  0.00  0.00    +0.112 C 
ENDROOT
BRANCH  10  15
ATOM     15  N   UNL     1     -36.639  26.615   4.728  0.00  0.00    -0.356 N 
ATOM     16  H   UNL     1     -37.592  26.752   4.934  0.00  0.00    +0.142 HD
ATOM     17  H   UNL     1     -36.026  27.384   4.689  0.00  0.00    +0.142 HD
ENDBRANCH  10  15
BRANCH  12  19
ATOM     18  N   UNL     1     -33.463  26.625   6.377  0.00  0.00    -0.191 NA
ATOM     19  C   UNL     1     -34.109  25.883   5.760  0.00  0.00    +0.103 C 
ENDBRANCH  12  19
TORSDOF 2
ENDMDL
MODEL 2
REMARK VINA RESULT:      -5.1      2.584      3.793
REMARK  Name = 192609
REMARK  2 active torsions:
REMARK  status: ('A' for Active; 'I' for Inactive)
REMARK    1  A    between atoms: C_10  and  N_15
REMARK    2  A    between atoms: C_12  and  C_19
REMARK                            x       y       z     vdW  Elec       q    Type
REMARK                         _______ _______ _______ _____ _____    ______ ____
ROOT
ATOM      1  O   UNL     1     -35.514  24.917   5.887  0.00  0.00    -0.267 OA
ATOM      2  O   UNL     1     -35.287  20.625   4.156  0.00  0.00    -0.246 OA
ATOM      3  N   UNL     1     -35.639  22.390   2.704  0.00  0.00    -0.264 N 
ATOM      4  N   UNL     1     -35.401  22.764   5.044  0.00  0.00    -0.247 N 
ATOM      5  N   UNL     1     -36.003  24.236   1.215  0.00  0.00    -0.226 NA
ATOM      6  C   UNL     1     -35.767  24.655   3.562  0.00  0.00    +0.104 A 
ATOM      7  C   UNL     1     -35.807  23.785   2.482  0.00  0.00    +0.153 A 
ATOM      8  C   UNL     1     -35.553  24.152   4.927  0.00  0.00    +0.268 A 
ATOM      9  C   UNL     1     -35.433  21.839   3.974  0.00  0.00    +0.335 A 
ATOM     10  C   UNL     1     -35.934  26.025   3.338  0.00  0.00    +0.060 C 
ATOM     11  C   UNL     1     -35.692  21.521   1.529  0.00  0.00    +0.137 C 
ATOM     12  C   UNL     1     -36.135  26.493   2.047  0.00  0.00    +0.101 C 
ATOM     13  C   UNL     1     -35.188  22.200   6.375  0.00  0.00    +0.138 C 
ATOM     14  C   UNL     1     -36.161  25.565   1.028  0.00  0.00    +0.112 C 
ENDROOT
BRANCH  10  15
ATOM     15  N   UNL     1     -35.904  26.972   4.393  0.00  0.00    -0.356 N 
ATOM     16  H   UNL     1     -36.549  26.903   5.134  0.00  0.00    +0.142 HD
ATOM     17  H   UNL     1     -35.240  27.699   4.383  0.00  0.00    +0.142 HD
ENDBRANCH  10  15
BRANCH  12  19
ATOM     18  N   UNL     1     -36.457  29.005   1.500  0.00  0.00    -0.191 NA
ATOM     19  C   UNL     1     -36.313  27.880   1.745  0.00  0.00    +0.103 C 
ENDBRANCH  12  19
TORSDOF 2
ENDMDL
MODEL 3
REMARK VINA RESULT:      -5.1      2.247      5.878
REMARK  Name = 192609
REMARK  2 active torsions:
REMARK  status: ('A' for Active; 'I' for Inactive)
REMARK    1  A    between atoms: C_10  and  N_15
REMARK    2  A    between atoms: C_12  and  C_19
REMARK                            x       y       z     vdW  Elec       q    Type
REMARK                         _______ _______ _______ _____ _____    ______ ____
ROOT
ATOM      1  O   UNL     1     -35.478  21.071   4.002  0.00  0.00    -0.267 OA
ATOM      2  O   UNL     1     -36.238  25.518   5.059  0.00  0.00    -0.246 OA
ATOM      3  N   UNL     1     -37.439  24.569   3.325  0.00  0.00    -0.264 N 
ATOM      4  N   UNL     1     -35.839  23.293   4.544  0.00  0.00    -0.247 N 
ATOM      5  N   UNL     1     -38.674  23.564   1.531  0.00  0.00    -0.226 NA
ATOM      6  C   UNL     1     -37.076  22.245   2.733  0.00  0.00    +0.104 A 
ATOM      7  C   UNL     1     -37.740  23.442   2.511  0.00  0.00    +0.153 A 
ATOM      8  C   UNL     1     -36.068  22.129   3.798  0.00  0.00    +0.268 A 
ATOM      9  C   UNL     1     -36.491  24.534   4.356  0.00  0.00    +0.335 A 
ATOM     10  C   UNL     1     -37.376  21.141   1.929  0.00  0.00    +0.060 C 
ATOM     11  C   UNL     1     -38.168  25.804   3.044  0.00  0.00    +0.137 C 
ATOM     12  C   UNL     1     -38.327  21.257   0.926  0.00  0.00    +0.101 C 
ATOM     13  C   UNL     1     -34.847  23.244   5.616  0.00  0.00    +0.138 C 
ATOM     14  C   UNL     1     -38.944  22.481   0.769  0.00  0.00    +0.112 C 
ENDROOT
BRANCH  10  15
ATOM     15  N   UNL     1     -36.737  19.886   2.099  0.00  0.00    -0.356 N 
ATOM     16  H   UNL     1     -36.650  19.272   1.334  0.00  0.00    +0.142 HD
ATOM     17  H   UNL     1     -36.382  19.631   2.980  0.00  0.00    +0.142 HD
ENDBRANCH  10  15
BRANCH  12  19
ATOM     18  N   UNL     1     -38.973  19.289  -0.631  0.00  0.00    -0.191 NA
ATOM     19  C   UNL     1     -38.684  20.171   0.066  0.00  0.00    +0.103 C 
ENDBRANCH  12  19
TORSDOF 2
ENDMDL
MODEL 4
REMARK VINA RESULT:      -5.1      2.411      4.294
REMARK  Name = 192609
REMARK  2 active torsions:
REMARK  status: ('A' for Active; 'I' for Inactive)
REMARK    1  A    between atoms: C_10  and  N_15
REMARK    2  A    between atoms: C_12  and  C_19
REMARK                            x       y       z     vdW  Elec       q    Type
REMARK                         _______ _______ _______ _____ _____    ______ ____
ROOT
ATOM      1  O   UNL     1     -36.586  24.588   5.113  0.00  0.00    -0.267 OA
ATOM      2  O   UNL     1     -35.117  20.456   3.618  0.00  0.00    -0.246 OA
ATOM      3  N   UNL     1     -36.393  21.760   2.198  0.00  0.00    -0.264 N 
ATOM      4  N   UNL     1     -35.845  22.518   4.388  0.00  0.00    -0.247 N 
ATOM      5  N   UNL     1     -37.719  23.129   0.741  0.00  0.00    -0.226 NA
ATOM      6  C   UNL     1     -37.187  23.930   2.935  0.00  0.00    +0.104 A 
ATOM      7  C   UNL     1     -37.115  22.959   1.946  0.00  0.00    +0.153 A 
ATOM      8  C   UNL     1     -36.528  23.732   4.234  0.00  0.00    +0.268 A 
ATOM      9  C   UNL     1     -35.742  21.501   3.410  0.00  0.00    +0.335 A 
ATOM     10  C   UNL     1     -37.899  25.107   2.682  0.00  0.00    +0.060 C 
ATOM     11  C   UNL     1     -36.353  20.772   1.121  0.00  0.00    +0.137 C 
ATOM     12  C   UNL     1     -38.518  25.287   1.454  0.00  0.00    +0.101 C 
ATOM     13  C   UNL     1     -35.170  22.259   5.658  0.00  0.00    +0.138 C 
ATOM     14  C   UNL     1     -38.399  24.276   0.523  0.00  0.00    +0.112 C 
ENDROOT
BRANCH  10  15
ATOM     15  N   UNL     1     -38.015  26.141   3.645  0.00  0.00    -0.356 N 
ATOM     16  H   UNL     1     -37.221  26.439   4.145  0.00  0.00    +0.142 HD
ATOM     17  H   UNL     1     -38.890  26.560   3.814  0.00  0.00    +0.142 HD
ENDBRANCH  10  15
BRANCH  12  19
ATOM     18  N   UNL     1     -39.865  27.420   0.861  0.00  0.00    -0.191 NA
ATOM     19  C   UNL     1     -39.262  26.464   1.127  0.00  0.00    +0.103 C 
ENDBRANCH  12  19
TORSDOF 2
ENDMDL
MODEL 5
REMARK VINA RESULT:      -5.0      2.659      4.475
REMARK  Name = 192609
REMARK  2 active torsions:
REMARK  status: ('A' for Active; 'I' for Inactive)
REMARK    1  A    between atoms: C_10  and  N_15
REMARK    2  A    between atoms: C_12  and  C_19
REMARK                            x       y       z     vdW  Elec       q    Type
REMARK                         _______ _______ _______ _____ _____    ______ ____
ROOT
ATOM      1  O   UNL     1     -38.080  25.356   1.919  0.00  0.00    -0.267 OA
ATOM      2  O   UNL     1     -35.658  29.238   1.188  0.00  0.00    -0.246 OA
ATOM      3  N   UNL     1     -34.974  27.803   2.868  0.00  0.00    -0.264 N 
ATOM      4  N   UNL     1     -36.887  27.303   1.540  0.00  0.00    -0.247 N 
ATOM      5  N   UNL     1     -34.281  26.300   4.605  0.00  0.00    -0.226 NA
ATOM      6  C   UNL     1     -36.210  25.759   3.290  0.00  0.00    +0.104 A 
ATOM      7  C   UNL     1     -35.152  26.600   3.605  0.00  0.00    +0.153 A 
ATOM      8  C   UNL     1     -37.143  26.097   2.206  0.00  0.00    +0.268 A 
ATOM      9  C   UNL     1     -35.822  28.191   1.824  0.00  0.00    +0.335 A 
ATOM     10  C   UNL     1     -36.381  24.578   4.019  0.00  0.00    +0.060 C 
ATOM     11  C   UNL     1     -33.844  28.650   3.245  0.00  0.00    +0.137 C 
ATOM     12  C   UNL     1     -35.496  24.265   5.041  0.00  0.00    +0.101 C 
ATOM     13  C   UNL     1     -37.780  27.698   0.453  0.00  0.00    +0.138 C 
ATOM     14  C   UNL     1     -34.470  25.152   5.292  0.00  0.00    +0.112 C 
ENDROOT
BRANCH  10  15
ATOM     15  N   UNL     1     -37.438  23.672   3.753  0.00  0.00    -0.356 N 
ATOM     16  H   UNL     1     -37.685  23.465   2.822  0.00  0.00    +0.142 HD
ATOM     17  H   UNL     1     -37.925  23.251   4.498  0.00  0.00    +0.142 HD
ENDBRANCH  10  15
BRANCH  12  19
ATOM     18  N   UNL     1     -35.702  22.110   6.466  0.00  0.00    -0.191 NA
ATOM     19  C   UNL     1     -35.610  23.075   5.827  0.00  0.00    +0.103 C 
ENDBRANCH  12  19
TORSDOF 2
ENDMDL
MODEL 6
REMARK VINA RESULT:      -5.0      1.897      2.158
REMARK  Name = 192609
REMARK  2 active torsions:
REMARK  status: ('A' for Active; 'I' for Inactive)
REMARK    1  A    between atoms: C_10  and  N_15
REMARK    2  A    between atoms: C_12  and  C_19
REMARK                            x       y       z     vdW  Elec       q    Type
REMARK                         _______ _______ _______ _____ _____    ______ ____
ROOT
ATOM      1  O   UNL     1     -37.058  27.803   1.721  0.00  0.00    -0.267 OA
ATOM      2  O   UNL     1     -39.585  24.127   0.466  0.00  0.00    -0.246 OA
ATOM      3  N   UNL     1     -38.158  23.927   2.274  0.00  0.00    -0.264 N 
ATOM      4  N   UNL     1     -38.327  25.977   1.074  0.00  0.00    -0.247 N 
ATOM      5  N   UNL     1     -36.670  23.741   4.147  0.00  0.00    -0.226 NA
ATOM      6  C   UNL     1     -36.813  25.822   2.969  0.00  0.00    +0.104 A 
ATOM      7  C   UNL     1     -37.195  24.501   3.150  0.00  0.00    +0.153 A 
ATOM      8  C   UNL     1     -37.390  26.631   1.886  0.00  0.00    +0.268 A 
ATOM      9  C   UNL     1     -38.749  24.635   1.221  0.00  0.00    +0.335 A 
ATOM     10  C   UNL     1     -35.865  26.380   3.833  0.00  0.00    +0.060 C 
ATOM     11  C   UNL     1     -38.521  22.531   2.512  0.00  0.00    +0.137 C 
ATOM     12  C   UNL     1     -35.325  25.611   4.853  0.00  0.00    +0.101 C 
ATOM     13  C   UNL     1     -38.936  26.727  -0.022  0.00  0.00    +0.138 C 
ATOM     14  C   UNL     1     -35.758  24.307   4.968  0.00  0.00    +0.112 C 
ENDROOT
BRANCH  10  15
ATOM     15  N   UNL     1     -35.427  27.723   3.708  0.00  0.00    -0.356 N 
ATOM     16  H   UNL     1     -34.685  27.944   3.100  0.00  0.00    +0.142 HD
ATOM     17  H   UNL     1     -35.866  28.434   4.229  0.00  0.00    +0.142 HD
ENDBRANCH  10  15
BRANCH  12  19
ATOM     18  N   UNL     1     -33.563  26.526   6.519  0.00  0.00    -0.191 NA
ATOM     19  C   UNL     1     -34.353  26.116   5.773  0.00  0.00    +0.103 C 
ENDBRANCH  12  19
TORSDOF 2
ENDMDL
MODEL 7
REMARK VINA RESULT:      -4.9      1.694      2.212
REMARK  Name = 192609
REMARK  2 active torsions:
REMARK  status: ('A' for Active; 'I' for Inactive)
REMARK    1  A    between atoms: C_10  and  N_15
REMARK    2  A    between atoms: C_12  and  C_19
REMARK                            x       y       z     vdW  Elec       q    Type
REMARK                         _______ _______ _______ _____ _____    ______ ____
ROOT
ATOM      1  O   UNL     1     -39.913  23.442   2.162  0.00  0.00    -0.267 OA
ATOM      2  O   UNL     1     -38.013  19.758   0.092  0.00  0.00    -0.246 OA
ATOM      3  N   UNL     1     -36.718  21.002   1.549  0.00  0.00    -0.264 N 
ATOM      4  N   UNL     1     -38.982  21.600   1.113  0.00  0.00    -0.247 N 
ATOM      5  N   UNL     1     -35.393  22.307   3.064  0.00  0.00    -0.226 NA
ATOM      6  C   UNL     1     -37.667  22.941   2.656  0.00  0.00    +0.104 A 
ATOM      7  C   UNL     1     -36.583  22.101   2.441  0.00  0.00    +0.153 A 
ATOM      8  C   UNL     1     -38.948  22.705   1.974  0.00  0.00    +0.268 A 
ATOM      9  C   UNL     1     -37.906  20.716   0.864  0.00  0.00    +0.335 A 
ATOM     10  C   UNL     1     -37.528  24.021   3.533  0.00  0.00    +0.060 C 
ATOM     11  C   UNL     1     -35.543  20.153   1.360  0.00  0.00    +0.137 C 
ATOM     12  C   UNL     1     -36.316  24.237   4.173  0.00  0.00    +0.101 C 
ATOM     13  C   UNL     1     -40.227  21.313   0.403  0.00  0.00    +0.138 C 
ATOM     14  C   UNL     1     -35.287  23.358   3.907  0.00  0.00    +0.112 C 
ENDROOT
BRANCH  10  15
ATOM     15  N   UNL     1     -38.592  24.919   3.801  0.00  0.00    -0.356 N 
ATOM     16  H   UNL     1     -38.397  25.833   4.109  0.00  0.00    +0.142 HD
ATOM     17  H   UNL     1     -39.524  24.627   3.678  0.00  0.00    +0.142 HD
ENDBRANCH  10  15
BRANCH  12  19
ATOM     18  N   UNL     1     -35.929  26.199   5.820  0.00  0.00    -0.191 NA
ATOM     19  C   UNL     1     -36.102  25.320   5.082  0.00  0.00    +0.103 C 
ENDBRANCH  12  19
TORSDOF 2
ENDMDL
MODEL 8
REMARK VINA RESULT:      -4.8      2.518      5.636
REMARK  Name = 192609
REMARK  2 active torsions:
REMARK  status: ('A' for Active; 'I' for Inactive)
REMARK    1  A    between atoms: C_10  and  N_15
REMARK    2  A    between atoms: C_12  and  C_19
REMARK                            x       y       z     vdW  Elec       q    Type
REMARK                         _______ _______ _______ _____ _____    ______ ____
ROOT
ATOM      1  O   UNL     1     -35.005  24.195   5.474  0.00  0.00    -0.267 OA
ATOM      2  O   UNL     1     -34.039  28.432   3.864  0.00  0.00    -0.246 OA
ATOM      3  N   UNL     1     -35.602  27.149   2.743  0.00  0.00    -0.264 N 
ATOM      4  N   UNL     1     -34.504  26.313   4.684  0.00  0.00    -0.247 N 
ATOM      5  N   UNL     1     -37.221  25.800   1.594  0.00  0.00    -0.226 NA
ATOM      6  C   UNL     1     -36.141  24.924   3.545  0.00  0.00    +0.104 A 
ATOM      7  C   UNL     1     -36.339  25.938   2.619  0.00  0.00    +0.153 A 
ATOM      8  C   UNL     1     -35.183  25.088   4.648  0.00  0.00    +0.268 A 
ATOM      9  C   UNL     1     -34.673  27.375   3.765  0.00  0.00    +0.335 A 
ATOM     10  C   UNL     1     -36.867  23.736   3.417  0.00  0.00    +0.060 C 
ATOM     11  C   UNL     1     -35.850  28.181   1.737  0.00  0.00    +0.137 C 
ATOM     12  C   UNL     1     -37.770  23.588   2.374  0.00  0.00    +0.101 C 
ATOM     13  C   UNL     1     -33.536  26.538   5.755  0.00  0.00    +0.138 C 
ATOM     14  C   UNL     1     -37.909  24.642   1.496  0.00  0.00    +0.112 C 
ENDROOT
BRANCH  10  15
ATOM     15  N   UNL     1     -36.718  22.657   4.326  0.00  0.00    -0.356 N 
ATOM     16  H   UNL     1     -35.817  22.345   4.574  0.00  0.00    +0.142 HD
ATOM     17  H   UNL     1     -37.514  22.222   4.708  0.00  0.00    +0.142 HD
ENDBRANCH  10  15
BRANCH  12  19
ATOM     18  N   UNL     1     -39.174  21.438   2.028  0.00  0.00    -0.191 NA
ATOM     19  C   UNL     1     -38.545  22.401   2.183  0.00  0.00    +0.103 C 
ENDBRANCH  12  19
TORSDOF 2
ENDMDL
MODEL 9
REMARK VINA RESULT:      -4.7      2.964      4.755
REMARK  Name = 192609
REMARK  2 active torsions:
REMARK  status: ('A' for Active; 'I' for Inactive)
REMARK    1  A    between atoms: C_10  and  N_15
REMARK    2  A    between atoms: C_12  and  C_19
REMARK                            x       y       z     vdW  Elec       q    Type
REMARK                         _______ _______ _______ _____ _____    ______ ____
ROOT
ATOM      1  O   UNL     1     -33.850  27.775   4.330  0.00  0.00    -0.267 OA
ATOM      2  O   UNL     1     -36.586  28.993   0.795  0.00  0.00    -0.246 OA
ATOM      3  N   UNL     1     -36.915  26.933   1.794  0.00  0.00    -0.264 N 
ATOM      4  N   UNL     1     -35.203  28.401   2.559  0.00  0.00    -0.247 N 
ATOM      5  N   UNL     1     -37.239  24.801   2.845  0.00  0.00    -0.226 NA
ATOM      6  C   UNL     1     -35.507  26.249   3.647  0.00  0.00    +0.104 A 
ATOM      7  C   UNL     1     -36.552  25.972   2.777  0.00  0.00    +0.153 A 
ATOM      8  C   UNL     1     -34.774  27.521   3.562  0.00  0.00    +0.268 A 
ATOM      9  C   UNL     1     -36.263  28.164   1.652  0.00  0.00    +0.335 A 
ATOM     10  C   UNL     1     -35.155  25.300   4.611  0.00  0.00    +0.060 C 
ATOM     11  C   UNL     1     -38.022  26.586   0.904  0.00  0.00    +0.137 C 
ATOM     12  C   UNL     1     -35.851  24.103   4.686  0.00  0.00    +0.101 C 
ATOM     13  C   UNL     1     -34.514  29.683   2.421  0.00  0.00    +0.138 C 
ATOM     14  C   UNL     1     -36.877  23.903   3.787  0.00  0.00    +0.112 C 
ENDROOT
BRANCH  10  15
ATOM     15  N   UNL     1     -34.098  25.516   5.532  0.00  0.00    -0.356 N 
ATOM     16  H   UNL     1     -33.255  25.015   5.439  0.00  0.00    +0.142 HD
ATOM     17  H   UNL     1     -34.209  26.164   6.265  0.00  0.00    +0.142 HD
ENDBRANCH  10  15
BRANCH  12  19
ATOM     18  N   UNL     1     -35.297  22.264   6.426  0.00  0.00    -0.191 NA
ATOM     19  C   UNL     1     -35.545  23.088   5.646  0.00  0.00    +0.103 C 
ENDBRANCH  12  19
TORSDOF 2
ENDMDL
