MODEL 1
REMARK VINA RESULT:      -5.4      0.000      0.000
REMARK  Name = 53470632
REMARK  5 active torsions:
REMARK  status: ('A' for Active; 'I' for Inactive)
REMARK    1  A    between atoms: N_3  and  C1*_12
REMARK    2  A    between atoms: C_5  and  O_21
REMARK    3  A    between atoms: C3*_14  and  O3*_16
REMARK    4  A    between atoms: C4*_15  and  C5*_18
REMARK    5  A    between atoms: C5*_18  and  O5*_19
REMARK                            x       y       z     vdW  Elec       q    Type
REMARK                         _______ _______ _______ _____ _____    ______ ____
ROOT
ATOM      1  O   UNL     1     -35.994  25.462   5.988  0.00  0.00    -0.252 OA
ATOM      2  O   UNL     1     -35.084  20.994   5.426  0.00  0.00    -0.275 OA
ATOM      3  N   UNL     1     -36.405  24.535   3.891  0.00  0.00    -0.218 N 
ATOM      4  N   UNL     1     -35.627  23.218   5.685  0.00  0.00    -0.239 N 
ATOM      5  C   UNL     1     -36.586  23.311   3.114  0.00  0.00    +0.202 C 
ATOM      6  C   UNL     1     -35.478  22.303   3.426  0.00  0.00    +0.123 C 
ATOM      7  C   UNL     1     -36.015  24.486   5.233  0.00  0.00    +0.313 C 
ATOM      8  C   UNL     1     -35.397  22.073   4.926  0.00  0.00    +0.233 C 
ATOM      9  C   UNL     1     -35.652  20.986   2.674  0.00  0.00    +0.014 C 
ATOM     10  H   UNL     1     -35.502  23.125   6.656  0.00  0.00    +0.159 HD
ENDROOT
BRANCH   3  12
ATOM     11  O4* UNL     1     -38.265  25.817   3.282  0.00  0.00    -0.335 OA
ATOM     12  C1* UNL     1     -36.832  25.767   3.294  0.00  0.00    +0.200 C 
ATOM     13  C2* UNL     1     -36.361  25.919   1.857  0.00  0.00    +0.083 C 
ATOM     14  C3* UNL     1     -37.488  26.705   1.226  0.00  0.00    +0.144 C 
ATOM     15  C4* UNL     1     -38.718  26.201   1.969  0.00  0.00    +0.173 C 
BRANCH  14  16
ATOM     16  O3* UNL     1     -37.305  28.097   1.478  0.00  0.00    -0.382 OA
ATOM     17  H3* UNL     1     -36.433  28.239   1.877  0.00  0.00    +0.210 HD
ENDBRANCH  14  16
BRANCH  15  18
ATOM     18  C5* UNL     1     -39.347  24.978   1.314  0.00  0.00    +0.169 C 
BRANCH  18  19
ATOM     19  O5* UNL     1     -40.043  24.237   2.303  0.00  0.00    -0.379 OA
ATOM     20  H5* UNL     1     -40.917  24.632   2.445  0.00  0.00    +0.211 HD
ENDBRANCH  18  19
ENDBRANCH  15  18
ENDBRANCH   3  12
BRANCH   5  21
ATOM     21  O   UNL     1     -37.875  22.779   3.404  0.00  0.00    -0.367 OA
ATOM     22  H   UNL     1     -38.506  23.075   2.730  0.00  0.00    +0.212 HD
ENDBRANCH   5  21
TORSDOF 5
ENDMDL
MODEL 2
REMARK VINA RESULT:      -5.4      2.161      4.133
REMARK  Name = 53470632
REMARK  5 active torsions:
REMARK  status: ('A' for Active; 'I' for Inactive)
REMARK    1  A    between atoms: N_3  and  C1*_12
REMARK    2  A    between atoms: C_5  and  O_21
REMARK    3  A    between atoms: C3*_14  and  O3*_16
REMARK    4  A    between atoms: C4*_15  and  C5*_18
REMARK    5  A    between atoms: C5*_18  and  O5*_19
REMARK                            x       y       z     vdW  Elec       q    Type
REMARK                         _______ _______ _______ _____ _____    ______ ____
ROOT
ATOM      1  O   UNL     1     -39.352  25.511   2.955  0.00  0.00    -0.252 OA
ATOM      2  O   UNL     1     -35.698  26.266   5.635  0.00  0.00    -0.275 OA
ATOM      3  N   UNL     1     -37.553  24.044   2.761  0.00  0.00    -0.218 N 
ATOM      4  N   UNL     1     -37.538  25.805   4.328  0.00  0.00    -0.239 N 
ATOM      5  C   UNL     1     -36.321  23.543   3.362  0.00  0.00    +0.202 C 
ATOM      6  C   UNL     1     -35.425  24.700   3.806  0.00  0.00    +0.123 C 
ATOM      7  C   UNL     1     -38.233  25.135   3.313  0.00  0.00    +0.313 C 
ATOM      8  C   UNL     1     -36.207  25.644   4.704  0.00  0.00    +0.233 C 
ATOM      9  C   UNL     1     -34.143  24.227   4.487  0.00  0.00    +0.014 C 
ATOM     10  H   UNL     1     -38.054  26.470   4.838  0.00  0.00    +0.159 HD
ENDROOT
BRANCH   3  12
ATOM     11  O4* UNL     1     -38.264  21.900   2.151  0.00  0.00    -0.335 OA
ATOM     12  C1* UNL     1     -38.146  23.262   1.716  0.00  0.00    +0.200 C 
ATOM     13  C2* UNL     1     -37.320  23.260   0.441  0.00  0.00    +0.083 C 
ATOM     14  C3* UNL     1     -37.589  21.884  -0.122  0.00  0.00    +0.144 C 
ATOM     15  C4* UNL     1     -37.751  21.027   1.126  0.00  0.00    +0.173 C 
BRANCH  14  16
ATOM     16  O3* UNL     1     -38.809  21.897  -0.862  0.00  0.00    -0.382 OA
ATOM     17  H3* UNL     1     -39.109  22.812  -0.972  0.00  0.00    +0.210 HD
ENDBRANCH  14  16
BRANCH  15  18
ATOM     18  C5* UNL     1     -36.432  20.448   1.622  0.00  0.00    +0.169 C 
BRANCH  18  19
ATOM     19  O5* UNL     1     -36.624  19.923   2.925  0.00  0.00    -0.379 OA
ATOM     20  H5* UNL     1     -37.263  19.194   2.888  0.00  0.00    +0.211 HD
ENDBRANCH  18  19
ENDBRANCH  15  18
ENDBRANCH   3  12
BRANCH   5  21
ATOM     21  O   UNL     1     -36.663  22.697   4.456  0.00  0.00    -0.367 OA
ATOM     22  H   UNL     1     -37.615  22.513   4.436  0.00  0.00    +0.212 HD
ENDBRANCH   5  21
TORSDOF 5
ENDMDL
MODEL 3
REMARK VINA RESULT:      -5.2      2.231      5.366
REMARK  Name = 53470632
REMARK  5 active torsions:
REMARK  status: ('A' for Active; 'I' for Inactive)
REMARK    1  A    between atoms: N_3  and  C1*_12
REMARK    2  A    between atoms: C_5  and  O_21
REMARK    3  A    between atoms: C3*_14  and  O3*_16
REMARK    4  A    between atoms: C4*_15  and  C5*_18
REMARK    5  A    between atoms: C5*_18  and  O5*_19
REMARK                            x       y       z     vdW  Elec       q    Type
REMARK                         _______ _______ _______ _____ _____    ______ ____
ROOT
ATOM      1  O   UNL     1     -37.540  26.411   1.669  0.00  0.00    -0.252 OA
ATOM      2  O   UNL     1     -34.421  29.410   3.212  0.00  0.00    -0.275 OA
ATOM      3  N   UNL     1     -35.941  25.626   3.169  0.00  0.00    -0.218 N 
ATOM      4  N   UNL     1     -36.011  27.892   2.523  0.00  0.00    -0.239 N 
ATOM      5  C   UNL     1     -34.925  25.973   4.159  0.00  0.00    +0.202 C 
ATOM      6  C   UNL     1     -33.994  27.061   3.621  0.00  0.00    +0.123 C 
ATOM      7  C   UNL     1     -36.571  26.614   2.405  0.00  0.00    +0.313 C 
ATOM      8  C   UNL     1     -34.812  28.247   3.137  0.00  0.00    +0.233 C 
ATOM      9  C   UNL     1     -32.943  27.495   4.640  0.00  0.00    +0.014 C 
ATOM     10  H   UNL     1     -36.528  28.629   2.126  0.00  0.00    +0.159 HD
ENDROOT
BRANCH   3  12
ATOM     11  O4* UNL     1     -36.695  23.848   4.490  0.00  0.00    -0.335 OA
ATOM     12  C1* UNL     1     -36.411  24.271   3.150  0.00  0.00    +0.200 C 
ATOM     13  C2* UNL     1     -35.390  23.302   2.576  0.00  0.00    +0.083 C 
ATOM     14  C3* UNL     1     -35.663  22.039   3.358  0.00  0.00    +0.144 C 
ATOM     15  C4* UNL     1     -36.086  22.563   4.724  0.00  0.00    +0.173 C 
BRANCH  14  16
ATOM     16  O3* UNL     1     -36.741  21.324   2.758  0.00  0.00    -0.382 OA
ATOM     17  H3* UNL     1     -36.392  20.721   2.083  0.00  0.00    +0.210 HD
ENDBRANCH  14  16
BRANCH  15  18
ATOM     18  C5* UNL     1     -34.911  22.768   5.671  0.00  0.00    +0.169 C 
BRANCH  18  19
ATOM     19  O5* UNL     1     -34.566  21.519   6.248  0.00  0.00    -0.379 OA
ATOM     20  H5* UNL     1     -35.100  20.818   5.843  0.00  0.00    +0.211 HD
ENDBRANCH  18  19
ENDBRANCH  15  18
ENDBRANCH   3  12
BRANCH   5  21
ATOM     21  O   UNL     1     -35.582  26.390   5.353  0.00  0.00    -0.367 OA
ATOM     22  H   UNL     1     -36.542  26.312   5.237  0.00  0.00    +0.212 HD
ENDBRANCH   5  21
TORSDOF 5
ENDMDL
MODEL 4
REMARK VINA RESULT:      -5.2      2.076      3.099
REMARK  Name = 53470632
REMARK  5 active torsions:
REMARK  status: ('A' for Active; 'I' for Inactive)
REMARK    1  A    between atoms: N_3  and  C1*_12
REMARK    2  A    between atoms: C_5  and  O_21
REMARK    3  A    between atoms: C3*_14  and  O3*_16
REMARK    4  A    between atoms: C4*_15  and  C5*_18
REMARK    5  A    between atoms: C5*_18  and  O5*_19
REMARK                            x       y       z     vdW  Elec       q    Type
REMARK                         _______ _______ _______ _____ _____    ______ ____
ROOT
ATOM      1  O   UNL     1     -35.355  22.549   6.164  0.00  0.00    -0.252 OA
ATOM      2  O   UNL     1     -36.183  19.979   2.448  0.00  0.00    -0.275 OA
ATOM      3  N   UNL     1     -35.175  23.577   4.082  0.00  0.00    -0.218 N 
ATOM      4  N   UNL     1     -35.834  21.323   4.285  0.00  0.00    -0.239 N 
ATOM      5  C   UNL     1     -35.487  23.505   2.657  0.00  0.00    +0.202 C 
ATOM      6  C   UNL     1     -35.128  22.130   2.092  0.00  0.00    +0.123 C 
ATOM      7  C   UNL     1     -35.446  22.502   4.934  0.00  0.00    +0.313 C 
ATOM      8  C   UNL     1     -35.789  21.042   2.922  0.00  0.00    +0.233 C 
ATOM      9  C   UNL     1     -35.482  21.988   0.614  0.00  0.00    +0.014 C 
ATOM     10  H   UNL     1     -36.182  20.606   4.863  0.00  0.00    +0.159 HD
ENDROOT
BRANCH   3  12
ATOM     11  O4* UNL     1     -35.861  25.775   4.500  0.00  0.00    -0.335 OA
ATOM     12  C1* UNL     1     -34.771  24.848   4.608  0.00  0.00    +0.200 C 
ATOM     13  C2* UNL     1     -33.592  25.448   3.860  0.00  0.00    +0.083 C 
ATOM     14  C3* UNL     1     -33.864  26.931   3.953  0.00  0.00    +0.144 C 
ATOM     15  C4* UNL     1     -35.385  27.004   3.918  0.00  0.00    +0.173 C 
BRANCH  14  16
ATOM     16  O3* UNL     1     -33.383  27.432   5.199  0.00  0.00    -0.382 OA
ATOM     17  H3* UNL     1     -33.919  28.193   5.469  0.00  0.00    +0.210 HD
ENDBRANCH  14  16
BRANCH  15  18
ATOM     18  C5* UNL     1     -35.942  27.100   2.504  0.00  0.00    +0.169 C 
BRANCH  18  19
ATOM     19  O5* UNL     1     -37.342  26.880   2.547  0.00  0.00    -0.379 OA
ATOM     20  H5* UNL     1     -37.566  26.384   3.351  0.00  0.00    +0.211 HD
ENDBRANCH  18  19
ENDBRANCH  15  18
ENDBRANCH   3  12
BRANCH   5  21
ATOM     21  O   UNL     1     -36.870  23.797   2.483  0.00  0.00    -0.367 OA
ATOM     22  H   UNL     1     -36.967  24.576   1.911  0.00  0.00    +0.212 HD
ENDBRANCH   5  21
TORSDOF 5
ENDMDL
MODEL 5
REMARK VINA RESULT:      -5.2      2.361      4.351
REMARK  Name = 53470632
REMARK  5 active torsions:
REMARK  status: ('A' for Active; 'I' for Inactive)
REMARK    1  A    between atoms: N_3  and  C1*_12
REMARK    2  A    between atoms: C_5  and  O_21
REMARK    3  A    between atoms: C3*_14  and  O3*_16
REMARK    4  A    between atoms: C4*_15  and  C5*_18
REMARK    5  A    between atoms: C5*_18  and  O5*_19
REMARK                            x       y       z     vdW  Elec       q    Type
REMARK                         _______ _______ _______ _____ _____    ______ ____
ROOT
ATOM      1  O   UNL     1     -35.610  20.689   3.018  0.00  0.00    -0.252 OA
ATOM      2  O   UNL     1     -39.987  21.165   1.710  0.00  0.00    -0.275 OA
ATOM      3  N   UNL     1     -36.398  22.852   2.662  0.00  0.00    -0.218 N 
ATOM      4  N   UNL     1     -37.810  20.977   2.438  0.00  0.00    -0.239 N 
ATOM      5  C   UNL     1     -37.568  23.711   2.505  0.00  0.00    +0.202 C 
ATOM      6  C   UNL     1     -38.554  23.107   1.503  0.00  0.00    +0.123 C 
ATOM      7  C   UNL     1     -36.528  21.461   2.731  0.00  0.00    +0.313 C 
ATOM      8  C   UNL     1     -38.888  21.680   1.904  0.00  0.00    +0.233 C 
ATOM      9  C   UNL     1     -39.819  23.945   1.342  0.00  0.00    +0.014 C 
ATOM     10  H   UNL     1     -37.968  20.026   2.634  0.00  0.00    +0.159 HD
ENDROOT
BRANCH   3  12
ATOM     11  O4* UNL     1     -34.957  23.565   4.362  0.00  0.00    -0.335 OA
ATOM     12  C1* UNL     1     -35.143  23.487   2.942  0.00  0.00    +0.200 C 
ATOM     13  C2* UNL     1     -35.065  24.903   2.396  0.00  0.00    +0.083 C 
ATOM     14  C3* UNL     1     -34.190  25.598   3.413  0.00  0.00    +0.144 C 
ATOM     15  C4* UNL     1     -34.558  24.903   4.717  0.00  0.00    +0.173 C 
BRANCH  14  16
ATOM     16  O3* UNL     1     -32.816  25.360   3.108  0.00  0.00    -0.382 OA
ATOM     17  H3* UNL     1     -32.400  24.888   3.846  0.00  0.00    +0.210 HD
ENDBRANCH  14  16
BRANCH  15  18
ATOM     18  C5* UNL     1     -35.729  25.566   5.431  0.00  0.00    +0.169 C 
BRANCH  18  19
ATOM     19  O5* UNL     1     -35.829  26.911   4.994  0.00  0.00    -0.379 OA
ATOM     20  H5* UNL     1     -34.953  27.326   5.023  0.00  0.00    +0.211 HD
ENDBRANCH  18  19
ENDBRANCH  15  18
ENDBRANCH   3  12
BRANCH   5  21
ATOM     21  O   UNL     1     -38.168  23.894   3.784  0.00  0.00    -0.367 OA
ATOM     22  H   UNL     1     -37.915  23.162   4.368  0.00  0.00    +0.212 HD
ENDBRANCH   5  21
TORSDOF 5
ENDMDL
MODEL 6
REMARK VINA RESULT:      -5.2      2.518      3.244
REMARK  Name = 53470632
REMARK  5 active torsions:
REMARK  status: ('A' for Active; 'I' for Inactive)
REMARK    1  A    between atoms: N_3  and  C1*_12
REMARK    2  A    between atoms: C_5  and  O_21
REMARK    3  A    between atoms: C3*_14  and  O3*_16
REMARK    4  A    between atoms: C4*_15  and  C5*_18
REMARK    5  A    between atoms: C5*_18  and  O5*_19
REMARK                            x       y       z     vdW  Elec       q    Type
REMARK                         _______ _______ _______ _____ _____    ______ ____
ROOT
ATOM      1  O   UNL     1     -35.146  28.564   2.308  0.00  0.00    -0.252 OA
ATOM      2  O   UNL     1     -33.305  26.274   5.839  0.00  0.00    -0.275 OA
ATOM      3  N   UNL     1     -36.119  26.532   2.898  0.00  0.00    -0.218 N 
ATOM      4  N   UNL     1     -34.307  27.425   4.113  0.00  0.00    -0.239 N 
ATOM      5  C   UNL     1     -36.248  25.494   3.916  0.00  0.00    +0.202 C 
ATOM      6  C   UNL     1     -34.873  25.072   4.437  0.00  0.00    +0.123 C 
ATOM      7  C   UNL     1     -35.200  27.576   3.045  0.00  0.00    +0.313 C 
ATOM      8  C   UNL     1     -34.099  26.295   4.900  0.00  0.00    +0.233 C 
ATOM      9  C   UNL     1     -34.957  24.021   5.542  0.00  0.00    +0.014 C 
ATOM     10  H   UNL     1     -33.760  28.213   4.335  0.00  0.00    +0.159 HD
ENDROOT
BRANCH   3  12
ATOM     11  O4* UNL     1     -38.410  26.554   2.424  0.00  0.00    -0.335 OA
ATOM     12  C1* UNL     1     -37.096  26.556   1.849  0.00  0.00    +0.200 C 
ATOM     13  C2* UNL     1     -37.004  25.349   0.929  0.00  0.00    +0.083 C 
ATOM     14  C3* UNL     1     -38.444  25.133   0.527  0.00  0.00    +0.144 C 
ATOM     15  C4* UNL     1     -39.216  25.555   1.770  0.00  0.00    +0.173 C 
BRANCH  14  16
ATOM     16  O3* UNL     1     -38.774  25.991  -0.563  0.00  0.00    -0.382 OA
ATOM     17  H3* UNL     1     -38.090  25.920  -1.247  0.00  0.00    +0.210 HD
ENDBRANCH  14  16
BRANCH  15  18
ATOM     18  C5* UNL     1     -39.430  24.410   2.752  0.00  0.00    +0.169 C 
BRANCH  18  19
ATOM     19  O5* UNL     1     -39.734  24.951   4.027  0.00  0.00    -0.379 OA
ATOM     20  H5* UNL     1     -40.658  25.244   4.041  0.00  0.00    +0.211 HD
ENDBRANCH  18  19
ENDBRANCH  15  18
ENDBRANCH   3  12
BRANCH   5  21
ATOM     21  O   UNL     1     -37.075  25.990   4.964  0.00  0.00    -0.367 OA
ATOM     22  H   UNL     1     -36.522  26.239   5.721  0.00  0.00    +0.212 HD
ENDBRANCH   5  21
TORSDOF 5
ENDMDL
MODEL 7
REMARK VINA RESULT:      -5.1      2.547      3.980
REMARK  Name = 53470632
REMARK  5 active torsions:
REMARK  status: ('A' for Active; 'I' for Inactive)
REMARK    1  A    between atoms: N_3  and  C1*_12
REMARK    2  A    between atoms: C_5  and  O_21
REMARK    3  A    between atoms: C3*_14  and  O3*_16
REMARK    4  A    between atoms: C4*_15  and  C5*_18
REMARK    5  A    between atoms: C5*_18  and  O5*_19
REMARK                            x       y       z     vdW  Elec       q    Type
REMARK                         _______ _______ _______ _____ _____    ______ ____
ROOT
ATOM      1  O   UNL     1     -34.989  20.185   3.396  0.00  0.00    -0.252 OA
ATOM      2  O   UNL     1     -37.838  19.297  -0.096  0.00  0.00    -0.275 OA
ATOM      3  N   UNL     1     -36.301  21.939   2.605  0.00  0.00    -0.218 N 
ATOM      4  N   UNL     1     -36.481  19.767   1.705  0.00  0.00    -0.239 N 
ATOM      5  C   UNL     1     -37.463  22.328   1.811  0.00  0.00    +0.202 C 
ATOM      6  C   UNL     1     -37.452  21.625   0.453  0.00  0.00    +0.123 C 
ATOM      7  C   UNL     1     -35.859  20.612   2.633  0.00  0.00    +0.313 C 
ATOM      8  C   UNL     1     -37.317  20.124   0.650  0.00  0.00    +0.233 C 
ATOM      9  C   UNL     1     -38.676  21.962  -0.396  0.00  0.00    +0.014 C 
ATOM     10  H   UNL     1     -36.306  18.805   1.811  0.00  0.00    +0.159 HD
ENDROOT
BRANCH   3  12
ATOM     11  O4* UNL     1     -36.808  23.453   4.315  0.00  0.00    -0.335 OA
ATOM     12  C1* UNL     1     -35.756  22.914   3.503  0.00  0.00    +0.200 C 
ATOM     13  C2* UNL     1     -35.100  24.079   2.781  0.00  0.00    +0.083 C 
ATOM     14  C3* UNL     1     -35.364  25.235   3.717  0.00  0.00    +0.144 C 
ATOM     15  C4* UNL     1     -36.722  24.891   4.314  0.00  0.00    +0.173 C 
BRANCH  14  16
ATOM     16  O3* UNL     1     -34.374  25.260   4.743  0.00  0.00    -0.382 OA
ATOM     17  H3* UNL     1     -34.285  26.164   5.083  0.00  0.00    +0.210 HD
ENDBRANCH  14  16
BRANCH  15  18
ATOM     18  C5* UNL     1     -37.885  25.430   3.492  0.00  0.00    +0.169 C 
BRANCH  18  19
ATOM     19  O5* UNL     1     -39.074  24.769   3.893  0.00  0.00    -0.379 OA
ATOM     20  H5* UNL     1     -39.795  25.010   3.292  0.00  0.00    +0.211 HD
ENDBRANCH  18  19
ENDBRANCH  15  18
ENDBRANCH   3  12
BRANCH   5  21
ATOM     21  O   UNL     1     -38.640  22.018   2.552  0.00  0.00    -0.367 OA
ATOM     22  H   UNL     1     -39.387  21.911   1.941  0.00  0.00    +0.212 HD
ENDBRANCH   5  21
TORSDOF 5
ENDMDL
MODEL 8
REMARK VINA RESULT:      -5.1      1.550      5.450
REMARK  Name = 53470632
REMARK  5 active torsions:
REMARK  status: ('A' for Active; 'I' for Inactive)
REMARK    1  A    between atoms: N_3  and  C1*_12
REMARK    2  A    between atoms: C_5  and  O_21
REMARK    3  A    between atoms: C3*_14  and  O3*_16
REMARK    4  A    between atoms: C4*_15  and  C5*_18
REMARK    5  A    between atoms: C5*_18  and  O5*_19
REMARK                            x       y       z     vdW  Elec       q    Type
REMARK                         _______ _______ _______ _____ _____    ______ ____
ROOT
ATOM      1  O   UNL     1     -39.919  23.198   2.398  0.00  0.00    -0.252 OA
ATOM      2  O   UNL     1     -39.398  27.501   0.877  0.00  0.00    -0.275 OA
ATOM      3  N   UNL     1     -37.851  24.215   2.733  0.00  0.00    -0.218 N 
ATOM      4  N   UNL     1     -39.639  25.372   1.723  0.00  0.00    -0.239 N 
ATOM      5  C   UNL     1     -37.100  25.467   2.761  0.00  0.00    +0.202 C 
ATOM      6  C   UNL     1     -37.391  26.301   1.512  0.00  0.00    +0.123 C 
ATOM      7  C   UNL     1     -39.180  24.181   2.301  0.00  0.00    +0.313 C 
ATOM      8  C   UNL     1     -38.891  26.487   1.354  0.00  0.00    +0.233 C 
ATOM      9  C   UNL     1     -36.666  27.644   1.517  0.00  0.00    +0.014 C 
ATOM     10  H   UNL     1     -40.608  25.427   1.558  0.00  0.00    +0.159 HD
ENDROOT
BRANCH   3  12
ATOM     11  O4* UNL     1     -36.774  23.425   4.654  0.00  0.00    -0.335 OA
ATOM     12  C1* UNL     1     -37.249  23.068   3.349  0.00  0.00    +0.200 C 
ATOM     13  C2* UNL     1     -36.062  22.534   2.565  0.00  0.00    +0.083 C 
ATOM     14  C3* UNL     1     -35.163  22.000   3.656  0.00  0.00    +0.144 C 
ATOM     15  C4* UNL     1     -35.421  22.956   4.813  0.00  0.00    +0.173 C 
BRANCH  14  16
ATOM     16  O3* UNL     1     -35.572  20.682   4.015  0.00  0.00    -0.382 OA
ATOM     17  H3* UNL     1     -35.265  20.483   4.913  0.00  0.00    +0.210 HD
ENDBRANCH  14  16
BRANCH  15  18
ATOM     18  C5* UNL     1     -34.500  24.169   4.797  0.00  0.00    +0.169 C 
BRANCH  18  19
ATOM     19  O5* UNL     1     -35.070  25.187   5.602  0.00  0.00    -0.379 OA
ATOM     20  H5* UNL     1     -34.626  26.030   5.418  0.00  0.00    +0.211 HD
ENDBRANCH  18  19
ENDBRANCH  15  18
ENDBRANCH   3  12
BRANCH   5  21
ATOM     21  O   UNL     1     -37.439  26.171   3.951  0.00  0.00    -0.367 OA
ATOM     22  H   UNL     1     -38.158  25.707   4.407  0.00  0.00    +0.212 HD
ENDBRANCH   5  21
TORSDOF 5
ENDMDL
MODEL 9
REMARK VINA RESULT:      -5.0      2.348      4.440
REMARK  Name = 53470632
REMARK  5 active torsions:
REMARK  status: ('A' for Active; 'I' for Inactive)
REMARK    1  A    between atoms: N_3  and  C1*_12
REMARK    2  A    between atoms: C_5  and  O_21
REMARK    3  A    between atoms: C3*_14  and  O3*_16
REMARK    4  A    between atoms: C4*_15  and  C5*_18
REMARK    5  A    between atoms: C5*_18  and  O5*_19
REMARK                            x       y       z     vdW  Elec       q    Type
REMARK                         _______ _______ _______ _____ _____    ______ ____
ROOT
ATOM      1  O   UNL     1     -36.337  25.881   1.327  0.00  0.00    -0.252 OA
ATOM      2  O   UNL     1     -35.985  25.667   5.902  0.00  0.00    -0.275 OA
ATOM      3  N   UNL     1     -35.830  23.814   2.273  0.00  0.00    -0.218 N 
ATOM      4  N   UNL     1     -36.227  25.713   3.612  0.00  0.00    -0.239 N 
ATOM      5  C   UNL     1     -35.806  23.003   3.487  0.00  0.00    +0.202 C 
ATOM      6  C   UNL     1     -35.159  23.772   4.639  0.00  0.00    +0.123 C 
ATOM      7  C   UNL     1     -36.145  25.175   2.321  0.00  0.00    +0.313 C 
ATOM      8  C   UNL     1     -35.845  25.117   4.812  0.00  0.00    +0.233 C 
ATOM      9  C   UNL     1     -35.155  22.984   5.947  0.00  0.00    +0.014 C 
ATOM     10  H   UNL     1     -36.601  26.620   3.679  0.00  0.00    +0.159 HD
ENDROOT
BRANCH   3  12
ATOM     11  O4* UNL     1     -36.563  21.971   1.031  0.00  0.00    -0.335 OA
ATOM     12  C1* UNL     1     -35.718  23.130   1.017  0.00  0.00    +0.200 C 
ATOM     13  C2* UNL     1     -34.303  22.654   0.730  0.00  0.00    +0.083 C 
ATOM     14  C3* UNL     1     -34.538  21.382  -0.052  0.00  0.00    +0.144 C 
ATOM     15  C4* UNL     1     -35.817  20.831   0.564  0.00  0.00    +0.173 C 
BRANCH  14  16
ATOM     16  O3* UNL     1     -34.757  21.695  -1.426  0.00  0.00    -0.382 OA
ATOM     17  H3* UNL     1     -34.505  22.617  -1.590  0.00  0.00    +0.210 HD
ENDBRANCH  14  16
BRANCH  15  18
ATOM     18  C5* UNL     1     -35.555  19.922   1.758  0.00  0.00    +0.169 C 
BRANCH  18  19
ATOM     19  O5* UNL     1     -36.754  19.789   2.503  0.00  0.00    -0.379 OA
ATOM     20  H5* UNL     1     -36.604  19.190   3.251  0.00  0.00    +0.211 HD
ENDBRANCH  18  19
ENDBRANCH  15  18
ENDBRANCH   3  12
BRANCH   5  21
ATOM     21  O   UNL     1     -37.142  22.618   3.799  0.00  0.00    -0.367 OA
ATOM     22  H   UNL     1     -37.208  21.650   3.797  0.00  0.00    +0.212 HD
ENDBRANCH   5  21
TORSDOF 5
ENDMDL
