MODEL 1
REMARK VINA RESULT:      -5.6      0.000      0.000
REMARK  Name = 51351726
REMARK  6 active torsions:
REMARK  status: ('A' for Active; 'I' for Inactive)
REMARK    1  A    between atoms: C_6  and  C_19
REMARK    2  A    between atoms: C_7  and  O_11
REMARK    3  A    between atoms: C_8  and  C_16
REMARK    4  A    between atoms: C_9  and  O_13
REMARK    5  A    between atoms: C_16  and  O_17
REMARK    6  A    between atoms: C_19  and  O_20
REMARK                            x       y       z     vdW  Elec       q    Type
REMARK                         _______ _______ _______ _____ _____    ______ ____
ROOT
ATOM      1  O   UNL     1     -36.910  25.119   3.325  0.00  0.00    -0.323 OA
ATOM      2  O   UNL     1     -36.757  23.228   1.952  0.00  0.00    -0.323 OA
ATOM      3  O   UNL     1     -35.543  23.958   5.705  0.00  0.00    -0.326 OA
ATOM      4  C   UNL     1     -35.566  24.626   3.363  0.00  0.00    +0.177 C 
ATOM      5  C   UNL     1     -35.727  23.178   2.950  0.00  0.00    +0.179 C 
ATOM      6  C   UNL     1     -34.921  24.804   4.735  0.00  0.00    +0.177 C 
ATOM      7  C   UNL     1     -36.174  22.268   4.098  0.00  0.00    +0.197 C 
ATOM      8  C   UNL     1     -37.519  24.399   2.254  0.00  0.00    +0.280 C 
ATOM      9  C   UNL     1     -35.410  22.573   5.386  0.00  0.00    +0.262 C 
ATOM     10  C   UNL     1     -37.632  25.274   1.017  0.00  0.00    +0.074 C 
ENDROOT
BRANCH   7  11
ATOM     11  O   UNL     1     -35.938  20.915   3.709  0.00  0.00    -0.378 OA
ATOM     12  H   UNL     1     -36.053  20.334   4.477  0.00  0.00    +0.211 HD
ENDBRANCH   7  11
BRANCH   9  13
ATOM     13  O   UNL     1     -35.973  21.780   6.429  0.00  0.00    -0.358 OA
ATOM     14  H   UNL     1     -36.627  22.304   6.918  0.00  0.00    +0.213 HD
ENDBRANCH   9  13
BRANCH   8  16
ATOM     15  O   UNL     1     -39.566  23.115   2.169  0.00  0.00    -0.245 OA
ATOM     16  C   UNL     1     -38.885  23.977   2.704  0.00  0.00    +0.366 C 
BRANCH  16  17
ATOM     17  O   UNL     1     -39.271  24.686   3.794  0.00  0.00    -0.477 OA
ATOM     18  H   UNL     1     -38.626  25.073   4.353  0.00  0.00    +0.295 HD
ENDBRANCH  16  17
ENDBRANCH   8  16
BRANCH   6  19
ATOM     19  C   UNL     1     -35.030  26.237   5.240  0.00  0.00    +0.169 C 
BRANCH  19  20
ATOM     20  O   UNL     1     -36.378  26.493   5.591  0.00  0.00    -0.379 OA
ATOM     21  H   UNL     1     -36.420  26.810   6.506  0.00  0.00    +0.211 HD
ENDBRANCH  19  20
ENDBRANCH   6  19
TORSDOF 6
ENDMDL
MODEL 2
REMARK VINA RESULT:      -5.5      1.241      1.476
REMARK  Name = 51351726
REMARK  6 active torsions:
REMARK  status: ('A' for Active; 'I' for Inactive)
REMARK    1  A    between atoms: C_6  and  C_19
REMARK    2  A    between atoms: C_7  and  O_11
REMARK    3  A    between atoms: C_8  and  C_16
REMARK    4  A    between atoms: C_9  and  O_13
REMARK    5  A    between atoms: C_16  and  O_17
REMARK    6  A    between atoms: C_19  and  O_20
REMARK                            x       y       z     vdW  Elec       q    Type
REMARK                         _______ _______ _______ _____ _____    ______ ____
ROOT
ATOM      1  O   UNL     1     -37.483  23.933   3.277  0.00  0.00    -0.323 OA
ATOM      2  O   UNL     1     -36.524  22.503   1.691  0.00  0.00    -0.323 OA
ATOM      3  O   UNL     1     -35.947  22.953   5.635  0.00  0.00    -0.326 OA
ATOM      4  C   UNL     1     -36.059  23.968   3.424  0.00  0.00    +0.177 C 
ATOM      5  C   UNL     1     -35.625  22.658   2.799  0.00  0.00    +0.179 C 
ATOM      6  C   UNL     1     -35.629  24.125   4.880  0.00  0.00    +0.177 C 
ATOM      7  C   UNL     1     -35.770  21.461   3.743  0.00  0.00    +0.197 C 
ATOM      8  C   UNL     1     -37.694  23.242   2.048  0.00  0.00    +0.280 C 
ATOM      9  C   UNL     1     -35.273  21.792   5.149  0.00  0.00    +0.262 C 
ATOM     10  C   UNL     1     -38.047  24.218   0.938  0.00  0.00    +0.074 C 
ENDROOT
BRANCH   7  11
ATOM     11  O   UNL     1     -35.008  20.380   3.207  0.00  0.00    -0.378 OA
ATOM     12  H   UNL     1     -34.791  19.755   3.916  0.00  0.00    +0.211 HD
ENDBRANCH   7  11
BRANCH   9  13
ATOM     13  O   UNL     1     -35.562  20.677   5.991  0.00  0.00    -0.358 OA
ATOM     14  H   UNL     1     -34.776  20.455   6.515  0.00  0.00    +0.213 HD
ENDBRANCH   9  13
BRANCH   8  16
ATOM     15  O   UNL     1     -39.995  22.590   2.403  0.00  0.00    -0.245 OA
ATOM     16  C   UNL     1     -38.823  22.278   2.252  0.00  0.00    +0.366 C 
BRANCH  16  17
ATOM     17  O   UNL     1     -38.370  21.000   2.250  0.00  0.00    -0.477 OA
ATOM     18  H   UNL     1     -38.680  20.395   1.605  0.00  0.00    +0.295 HD
ENDBRANCH  16  17
ENDBRANCH   8  16
BRANCH   6  19
ATOM     19  C   UNL     1     -36.312  25.305   5.558  0.00  0.00    +0.169 C 
BRANCH  19  20
ATOM     20  O   UNL     1     -36.674  26.250   4.567  0.00  0.00    -0.379 OA
ATOM     21  H   UNL     1     -37.297  26.891   4.942  0.00  0.00    +0.211 HD
ENDBRANCH  19  20
ENDBRANCH   6  19
TORSDOF 6
ENDMDL
MODEL 3
REMARK VINA RESULT:      -5.4      1.451      4.062
REMARK  Name = 51351726
REMARK  6 active torsions:
REMARK  status: ('A' for Active; 'I' for Inactive)
REMARK    1  A    between atoms: C_6  and  C_19
REMARK    2  A    between atoms: C_7  and  O_11
REMARK    3  A    between atoms: C_8  and  C_16
REMARK    4  A    between atoms: C_9  and  O_13
REMARK    5  A    between atoms: C_16  and  O_17
REMARK    6  A    between atoms: C_19  and  O_20
REMARK                            x       y       z     vdW  Elec       q    Type
REMARK                         _______ _______ _______ _____ _____    ______ ____
ROOT
ATOM      1  O   UNL     1     -37.118  22.896   3.461  0.00  0.00    -0.323 OA
ATOM      2  O   UNL     1     -34.822  22.803   3.011  0.00  0.00    -0.323 OA
ATOM      3  O   UNL     1     -37.320  25.857   3.731  0.00  0.00    -0.326 OA
ATOM      4  C   UNL     1     -36.806  23.855   2.444  0.00  0.00    +0.177 C 
ATOM      5  C   UNL     1     -35.326  24.098   2.654  0.00  0.00    +0.179 C 
ATOM      6  C   UNL     1     -37.657  25.118   2.555  0.00  0.00    +0.177 C 
ATOM      7  C   UNL     1     -35.031  25.089   3.785  0.00  0.00    +0.197 C 
ATOM      8  C   UNL     1     -35.935  22.107   3.576  0.00  0.00    +0.280 C 
ATOM      9  C   UNL     1     -35.963  26.298   3.729  0.00  0.00    +0.262 C 
ATOM     10  C   UNL     1     -36.115  20.769   2.880  0.00  0.00    +0.074 C 
ENDROOT
BRANCH   7  11
ATOM     11  O   UNL     1     -33.677  25.520   3.654  0.00  0.00    -0.378 OA
ATOM     12  H   UNL     1     -33.525  25.837   2.750  0.00  0.00    +0.211 HD
ENDBRANCH   7  11
BRANCH   9  13
ATOM     13  O   UNL     1     -35.712  27.099   4.882  0.00  0.00    -0.358 OA
ATOM     14  H   UNL     1     -36.190  27.940   4.802  0.00  0.00    +0.213 HD
ENDBRANCH   9  13
BRANCH   8  16
ATOM     15  O   UNL     1     -35.961  22.673   5.927  0.00  0.00    -0.245 OA
ATOM     16  C   UNL     1     -35.671  21.889   5.035  0.00  0.00    +0.366 C 
BRANCH  16  17
ATOM     17  O   UNL     1     -35.061  20.695   5.238  0.00  0.00    -0.477 OA
ATOM     18  H   UNL     1     -34.154  20.592   5.029  0.00  0.00    +0.295 HD
ENDBRANCH  16  17
ENDBRANCH   8  16
BRANCH   6  19
ATOM     19  C   UNL     1     -39.146  24.803   2.622  0.00  0.00    +0.169 C 
BRANCH  19  20
ATOM     20  O   UNL     1     -39.552  24.817   3.978  0.00  0.00    -0.379 OA
ATOM     21  H   UNL     1     -39.442  25.709   4.340  0.00  0.00    +0.211 HD
ENDBRANCH  19  20
ENDBRANCH   6  19
TORSDOF 6
ENDMDL
MODEL 4
REMARK VINA RESULT:      -5.4      1.952      4.840
REMARK  Name = 51351726
REMARK  6 active torsions:
REMARK  status: ('A' for Active; 'I' for Inactive)
REMARK    1  A    between atoms: C_6  and  C_19
REMARK    2  A    between atoms: C_7  and  O_11
REMARK    3  A    between atoms: C_8  and  C_16
REMARK    4  A    between atoms: C_9  and  O_13
REMARK    5  A    between atoms: C_16  and  O_17
REMARK    6  A    between atoms: C_19  and  O_20
REMARK                            x       y       z     vdW  Elec       q    Type
REMARK                         _______ _______ _______ _____ _____    ______ ____
ROOT
ATOM      1  O   UNL     1     -37.154  24.603   4.353  0.00  0.00    -0.323 OA
ATOM      2  O   UNL     1     -34.962  24.745   3.542  0.00  0.00    -0.323 OA
ATOM      3  O   UNL     1     -38.471  26.064   2.114  0.00  0.00    -0.326 OA
ATOM      4  C   UNL     1     -37.144  24.212   2.975  0.00  0.00    +0.177 C 
ATOM      5  C   UNL     1     -35.884  24.868   2.449  0.00  0.00    +0.179 C 
ATOM      6  C   UNL     1     -38.411  24.641   2.240  0.00  0.00    +0.177 C 
ATOM      7  C   UNL     1     -36.072  26.350   2.107  0.00  0.00    +0.197 C 
ATOM      8  C   UNL     1     -35.775  24.658   4.714  0.00  0.00    +0.280 C 
ATOM      9  C   UNL     1     -37.381  26.590   1.357  0.00  0.00    +0.262 C 
ATOM     10  C   UNL     1     -35.385  23.432   5.523  0.00  0.00    +0.074 C 
ENDROOT
BRANCH   7  11
ATOM     11  O   UNL     1     -34.972  26.760   1.296  0.00  0.00    -0.378 OA
ATOM     12  H   UNL     1     -34.242  26.130   1.400  0.00  0.00    +0.211 HD
ENDBRANCH   7  11
BRANCH   9  13
ATOM     13  O   UNL     1     -37.541  27.998   1.193  0.00  0.00    -0.358 OA
ATOM     14  H   UNL     1     -37.098  28.282   0.378  0.00  0.00    +0.213 HD
ENDBRANCH   9  13
BRANCH   8  16
ATOM     15  O   UNL     1     -34.518  26.204   6.083  0.00  0.00    -0.245 OA
ATOM     16  C   UNL     1     -35.565  25.894   5.535  0.00  0.00    +0.366 C 
BRANCH  16  17
ATOM     17  O   UNL     1     -36.702  26.631   5.590  0.00  0.00    -0.477 OA
ATOM     18  H   UNL     1     -37.447  26.382   5.079  0.00  0.00    +0.295 HD
ENDBRANCH  16  17
ENDBRANCH   8  16
BRANCH   6  19
ATOM     19  C   UNL     1     -39.674  24.192   2.963  0.00  0.00    +0.169 C 
BRANCH  19  20
ATOM     20  O   UNL     1     -39.884  25.039   4.078  0.00  0.00    -0.379 OA
ATOM     21  H   UNL     1     -39.029  25.324   4.434  0.00  0.00    +0.211 HD
ENDBRANCH  19  20
ENDBRANCH   6  19
TORSDOF 6
ENDMDL
MODEL 5
REMARK VINA RESULT:      -5.2      3.874      6.069
REMARK  Name = 51351726
REMARK  6 active torsions:
REMARK  status: ('A' for Active; 'I' for Inactive)
REMARK    1  A    between atoms: C_6  and  C_19
REMARK    2  A    between atoms: C_7  and  O_11
REMARK    3  A    between atoms: C_8  and  C_16
REMARK    4  A    between atoms: C_9  and  O_13
REMARK    5  A    between atoms: C_16  and  O_17
REMARK    6  A    between atoms: C_19  and  O_20
REMARK                            x       y       z     vdW  Elec       q    Type
REMARK                         _______ _______ _______ _____ _____    ______ ____
ROOT
ATOM      1  O   UNL     1     -34.647  28.027   3.649  0.00  0.00    -0.323 OA
ATOM      2  O   UNL     1     -32.949  26.442   3.947  0.00  0.00    -0.323 OA
ATOM      3  O   UNL     1     -33.164  30.367   4.746  0.00  0.00    -0.326 OA
ATOM      4  C   UNL     1     -33.421  28.559   3.135  0.00  0.00    +0.177 C 
ATOM      5  C   UNL     1     -32.370  27.753   3.869  0.00  0.00    +0.179 C 
ATOM      6  C   UNL     1     -33.304  30.065   3.355  0.00  0.00    +0.177 C 
ATOM      7  C   UNL     1     -32.091  28.271   5.283  0.00  0.00    +0.197 C 
ATOM      8  C   UNL     1     -34.362  26.649   3.884  0.00  0.00    +0.280 C 
ATOM      9  C   UNL     1     -31.986  29.795   5.312  0.00  0.00    +0.262 C 
ATOM     10  C   UNL     1     -34.961  25.784   2.788  0.00  0.00    +0.074 C 
ENDROOT
BRANCH   7  11
ATOM     11  O   UNL     1     -30.863  27.697   5.731  0.00  0.00    -0.378 OA
ATOM     12  H   UNL     1     -30.945  27.448   6.665  0.00  0.00    +0.211 HD
ENDBRANCH   7  11
BRANCH   9  13
ATOM     13  O   UNL     1     -31.857  30.201   6.673  0.00  0.00    -0.358 OA
ATOM     14  H   UNL     1     -32.026  29.443   7.254  0.00  0.00    +0.213 HD
ENDBRANCH   9  13
BRANCH   8  16
ATOM     15  O   UNL     1     -34.357  25.734   6.122  0.00  0.00    -0.245 OA
ATOM     16  C   UNL     1     -34.959  26.277   5.207  0.00  0.00    +0.366 C 
BRANCH  16  17
ATOM     17  O   UNL     1     -36.269  26.623   5.257  0.00  0.00    -0.477 OA
ATOM     18  H   UNL     1     -36.592  27.313   4.710  0.00  0.00    +0.295 HD
ENDBRANCH  16  17
ENDBRANCH   8  16
BRANCH   6  19
ATOM     19  C   UNL     1     -34.526  30.818   2.844  0.00  0.00    +0.169 C 
BRANCH  19  20
ATOM     20  O   UNL     1     -35.525  30.795   3.847  0.00  0.00    -0.379 OA
ATOM     21  H   UNL     1     -36.397  30.698   3.434  0.00  0.00    +0.211 HD
ENDBRANCH  19  20
ENDBRANCH   6  19
TORSDOF 6
ENDMDL
MODEL 6
REMARK VINA RESULT:      -5.1      1.769      4.123
REMARK  Name = 51351726
REMARK  6 active torsions:
REMARK  status: ('A' for Active; 'I' for Inactive)
REMARK    1  A    between atoms: C_6  and  C_19
REMARK    2  A    between atoms: C_7  and  O_11
REMARK    3  A    between atoms: C_8  and  C_16
REMARK    4  A    between atoms: C_9  and  O_13
REMARK    5  A    between atoms: C_16  and  O_17
REMARK    6  A    between atoms: C_19  and  O_20
REMARK                            x       y       z     vdW  Elec       q    Type
REMARK                         _______ _______ _______ _____ _____    ______ ____
ROOT
ATOM      1  O   UNL     1     -34.647  24.263   4.464  0.00  0.00    -0.323 OA
ATOM      2  O   UNL     1     -36.897  23.661   4.705  0.00  0.00    -0.323 OA
ATOM      3  O   UNL     1     -35.085  26.626   2.701  0.00  0.00    -0.326 OA
ATOM      4  C   UNL     1     -35.406  25.431   4.799  0.00  0.00    +0.177 C 
ATOM      5  C   UNL     1     -36.809  25.053   4.371  0.00  0.00    +0.179 C 
ATOM      6  C   UNL     1     -34.873  26.686   4.114  0.00  0.00    +0.177 C 
ATOM      7  C   UNL     1     -37.051  25.233   2.869  0.00  0.00    +0.197 C 
ATOM      8  C   UNL     1     -35.550  23.181   4.682  0.00  0.00    +0.280 C 
ATOM      9  C   UNL     1     -36.468  26.550   2.361  0.00  0.00    +0.262 C 
ATOM     10  C   UNL     1     -35.233  22.473   5.988  0.00  0.00    +0.074 C 
ENDROOT
BRANCH   7  11
ATOM     11  O   UNL     1     -38.460  25.212   2.642  0.00  0.00    -0.378 OA
ATOM     12  H   UNL     1     -38.921  25.098   3.488  0.00  0.00    +0.211 HD
ENDBRANCH   7  11
BRANCH   9  13
ATOM     13  O   UNL     1     -36.620  26.579   0.943  0.00  0.00    -0.358 OA
ATOM     14  H   UNL     1     -37.474  26.980   0.716  0.00  0.00    +0.213 HD
ENDBRANCH   9  13
BRANCH   8  16
ATOM     15  O   UNL     1     -35.049  22.530   2.408  0.00  0.00    -0.245 OA
ATOM     16  C   UNL     1     -35.403  22.225   3.537  0.00  0.00    +0.366 C 
BRANCH  16  17
ATOM     17  O   UNL     1     -35.720  20.964   3.922  0.00  0.00    -0.477 OA
ATOM     18  H   UNL     1     -35.825  20.765   4.832  0.00  0.00    +0.295 HD
ENDBRANCH  16  17
ENDBRANCH   8  16
BRANCH   6  19
ATOM     19  C   UNL     1     -33.379  26.877   4.345  0.00  0.00    +0.169 C 
BRANCH  19  20
ATOM     20  O   UNL     1     -33.073  26.495   5.674  0.00  0.00    -0.379 OA
ATOM     21  H   UNL     1     -33.372  25.585   5.827  0.00  0.00    +0.211 HD
ENDBRANCH  19  20
ENDBRANCH   6  19
TORSDOF 6
ENDMDL
MODEL 7
REMARK VINA RESULT:      -5.1      1.789      4.415
REMARK  Name = 51351726
REMARK  6 active torsions:
REMARK  status: ('A' for Active; 'I' for Inactive)
REMARK    1  A    between atoms: C_6  and  C_19
REMARK    2  A    between atoms: C_7  and  O_11
REMARK    3  A    between atoms: C_8  and  C_16
REMARK    4  A    between atoms: C_9  and  O_13
REMARK    5  A    between atoms: C_16  and  O_17
REMARK    6  A    between atoms: C_19  and  O_20
REMARK                            x       y       z     vdW  Elec       q    Type
REMARK                         _______ _______ _______ _____ _____    ______ ____
ROOT
ATOM      1  O   UNL     1     -34.988  24.691   3.393  0.00  0.00    -0.323 OA
ATOM      2  O   UNL     1     -35.524  26.444   1.936  0.00  0.00    -0.323 OA
ATOM      3  O   UNL     1     -37.751  23.622   3.714  0.00  0.00    -0.326 OA
ATOM      4  C   UNL     1     -35.819  24.183   2.343  0.00  0.00    +0.177 C 
ATOM      5  C   UNL     1     -36.530  25.425   1.846  0.00  0.00    +0.179 C 
ATOM      6  C   UNL     1     -36.765  23.088   2.828  0.00  0.00    +0.177 C 
ATOM      7  C   UNL     1     -37.732  25.819   2.710  0.00  0.00    +0.197 C 
ATOM      8  C   UNL     1     -34.624  25.998   2.954  0.00  0.00    +0.280 C 
ATOM      9  C   UNL     1     -38.576  24.602   3.085  0.00  0.00    +0.262 C 
ATOM     10  C   UNL     1     -33.200  26.008   2.424  0.00  0.00    +0.074 C 
ENDROOT
BRANCH   7  11
ATOM     11  O   UNL     1     -38.526  26.744   1.968  0.00  0.00    -0.378 OA
ATOM     12  H   UNL     1     -38.118  27.623   2.007  0.00  0.00    +0.211 HD
ENDBRANCH   7  11
BRANCH   9  13
ATOM     13  O   UNL     1     -39.591  25.033   3.989  0.00  0.00    -0.358 OA
ATOM     14  H   UNL     1     -39.921  25.903   3.715  0.00  0.00    +0.213 HD
ENDBRANCH   9  13
BRANCH   8  16
ATOM     15  O   UNL     1     -34.457  26.630   5.281  0.00  0.00    -0.245 OA
ATOM     16  C   UNL     1     -34.735  26.923   4.128  0.00  0.00    +0.366 C 
BRANCH  16  17
ATOM     17  O   UNL     1     -35.190  28.140   3.739  0.00  0.00    -0.477 OA
ATOM     18  H   UNL     1     -34.664  28.680   3.181  0.00  0.00    +0.295 HD
ENDBRANCH  16  17
ENDBRANCH   8  16
BRANCH   6  19
ATOM     19  C   UNL     1     -36.029  21.982   3.574  0.00  0.00    +0.169 C 
BRANCH  19  20
ATOM     20  O   UNL     1     -36.134  22.226   4.965  0.00  0.00    -0.379 OA
ATOM     21  H   UNL     1     -36.890  22.808   5.136  0.00  0.00    +0.211 HD
ENDBRANCH  19  20
ENDBRANCH   6  19
TORSDOF 6
ENDMDL
MODEL 8
REMARK VINA RESULT:      -5.1      2.198      4.055
REMARK  Name = 51351726
REMARK  6 active torsions:
REMARK  status: ('A' for Active; 'I' for Inactive)
REMARK    1  A    between atoms: C_6  and  C_19
REMARK    2  A    between atoms: C_7  and  O_11
REMARK    3  A    between atoms: C_8  and  C_16
REMARK    4  A    between atoms: C_9  and  O_13
REMARK    5  A    between atoms: C_16  and  O_17
REMARK    6  A    between atoms: C_19  and  O_20
REMARK                            x       y       z     vdW  Elec       q    Type
REMARK                         _______ _______ _______ _____ _____    ______ ____
ROOT
ATOM      1  O   UNL     1     -35.262  23.765   2.839  0.00  0.00    -0.323 OA
ATOM      2  O   UNL     1     -37.199  22.652   3.539  0.00  0.00    -0.323 OA
ATOM      3  O   UNL     1     -34.193  21.588   1.106  0.00  0.00    -0.326 OA
ATOM      4  C   UNL     1     -35.915  23.207   1.693  0.00  0.00    +0.177 C 
ATOM      5  C   UNL     1     -36.756  22.098   2.292  0.00  0.00    +0.179 C 
ATOM      6  C   UNL     1     -34.925  22.723   0.637  0.00  0.00    +0.177 C 
ATOM      7  C   UNL     1     -35.962  20.815   2.559  0.00  0.00    +0.197 C 
ATOM      8  C   UNL     1     -36.216  23.629   3.890  0.00  0.00    +0.280 C 
ATOM      9  C   UNL     1     -35.038  20.474   1.391  0.00  0.00    +0.262 C 
ATOM     10  C   UNL     1     -36.890  24.959   4.177  0.00  0.00    +0.074 C 
ENDROOT
BRANCH   7  11
ATOM     11  O   UNL     1     -36.892  19.753   2.762  0.00  0.00    -0.378 OA
ATOM     12  H   UNL     1     -37.666  19.889   2.194  0.00  0.00    +0.211 HD
ENDBRANCH   7  11
BRANCH   9  13
ATOM     13  O   UNL     1     -34.246  19.351   1.771  0.00  0.00    -0.358 OA
ATOM     14  H   UNL     1     -34.192  18.727   1.029  0.00  0.00    +0.213 HD
ENDBRANCH   9  13
BRANCH   8  16
ATOM     15  O   UNL     1     -34.366  23.512   5.442  0.00  0.00    -0.245 OA
ATOM     16  C   UNL     1     -35.487  23.155   5.111  0.00  0.00    +0.366 C 
BRANCH  16  17
ATOM     17  O   UNL     1     -36.242  22.270   5.807  0.00  0.00    -0.477 OA
ATOM     18  H   UNL     1     -36.144  21.350   5.654  0.00  0.00    +0.295 HD
ENDBRANCH  16  17
ENDBRANCH   8  16
BRANCH   6  19
ATOM     19  C   UNL     1     -33.913  23.799   0.263  0.00  0.00    +0.169 C 
BRANCH  19  20
ATOM     20  O   UNL     1     -34.548  25.062   0.328  0.00  0.00    -0.379 OA
ATOM     21  H   UNL     1     -34.521  25.393   1.238  0.00  0.00    +0.211 HD
ENDBRANCH  19  20
ENDBRANCH   6  19
TORSDOF 6
ENDMDL
MODEL 9
REMARK VINA RESULT:      -5.1      7.922     10.119
REMARK  Name = 51351726
REMARK  6 active torsions:
REMARK  status: ('A' for Active; 'I' for Inactive)
REMARK    1  A    between atoms: C_6  and  C_19
REMARK    2  A    between atoms: C_7  and  O_11
REMARK    3  A    between atoms: C_8  and  C_16
REMARK    4  A    between atoms: C_9  and  O_13
REMARK    5  A    between atoms: C_16  and  O_17
REMARK    6  A    between atoms: C_19  and  O_20
REMARK                            x       y       z     vdW  Elec       q    Type
REMARK                         _______ _______ _______ _____ _____    ______ ____
ROOT
ATOM      1  O   UNL     1     -44.826  27.806   5.359  0.00  0.00    -0.323 OA
ATOM      2  O   UNL     1     -44.319  29.756   4.167  0.00  0.00    -0.323 OA
ATOM      3  O   UNL     1     -44.812  29.022   8.079  0.00  0.00    -0.326 OA
ATOM      4  C   UNL     1     -45.683  28.861   5.811  0.00  0.00    +0.177 C 
ATOM      5  C   UNL     1     -44.913  30.107   5.424  0.00  0.00    +0.179 C 
ATOM      6  C   UNL     1     -45.985  28.764   7.304  0.00  0.00    +0.177 C 
ATOM      7  C   UNL     1     -43.811  30.470   6.425  0.00  0.00    +0.197 C 
ATOM      8  C   UNL     1     -44.209  28.331   4.185  0.00  0.00    +0.280 C 
ATOM      9  C   UNL     1     -44.296  30.335   7.867  0.00  0.00    +0.262 C 
ATOM     10  C   UNL     1     -44.849  27.748   2.936  0.00  0.00    +0.074 C 
ENDROOT
BRANCH   7  11
ATOM     11  O   UNL     1     -43.414  31.818   6.175  0.00  0.00    -0.378 OA
ATOM     12  H   UNL     1     -43.832  32.403   6.826  0.00  0.00    +0.211 HD
ENDBRANCH   7  11
BRANCH   9  13
ATOM     13  O   UNL     1     -43.182  30.562   8.728  0.00  0.00    -0.358 OA
ATOM     14  H   UNL     1     -43.193  29.914   9.450  0.00  0.00    +0.213 HD
ENDBRANCH   9  13
BRANCH   8  16
ATOM     15  O   UNL     1     -41.850  28.720   4.548  0.00  0.00    -0.245 OA
ATOM     16  C   UNL     1     -42.756  27.965   4.228  0.00  0.00    +0.366 C 
BRANCH  16  17
ATOM     17  O   UNL     1     -42.577  26.672   3.862  0.00  0.00    -0.477 OA
ATOM     18  H   UNL     1     -43.256  26.044   4.012  0.00  0.00    +0.295 HD
ENDBRANCH  16  17
ENDBRANCH   8  16
BRANCH   6  19
ATOM     19  C   UNL     1     -46.501  27.386   7.698  0.00  0.00    +0.169 C 
BRANCH  19  20
ATOM     20  O   UNL     1     -45.414  26.614   8.175  0.00  0.00    -0.379 OA
ATOM     21  H   UNL     1     -45.744  25.776   8.533  0.00  0.00    +0.211 HD
ENDBRANCH  19  20
ENDBRANCH   6  19
TORSDOF 6
ENDMDL
