MODEL 1
REMARK VINA RESULT:      -6.6      0.000      0.000
REMARK  Name = 5280653
REMARK  9 active torsions:
REMARK  status: ('A' for Active; 'I' for Inactive)
REMARK    1  A    between atoms: C_2  and  O_7
REMARK    2  A    between atoms: C_3  and  O_9
REMARK    3  A    between atoms: C_4  and  C_24
REMARK    4  A    between atoms: C_5  and  O_11
REMARK    5  A    between atoms: C_6  and  O_13
REMARK    6  A    between atoms: O_13  and  C_15
REMARK    7  A    between atoms: C_15  and  C_16
REMARK    8  A    between atoms: C_17  and  C_18
REMARK    9  A    between atoms: C_24  and  O_25
REMARK                            x       y       z     vdW  Elec       q    Type
REMARK                         _______ _______ _______ _____ _____    ______ ____
ROOT
ATOM      1  O   UNL     1     -36.690  22.855   4.581  0.00  0.00    -0.316 OA
ATOM      2  C   UNL     1     -35.445  24.710   5.523  0.00  0.00    +0.169 C 
ATOM      3  C   UNL     1     -35.873  25.600   4.356  0.00  0.00    +0.173 C 
ATOM      4  C   UNL     1     -35.417  23.238   5.103  0.00  0.00    +0.177 C 
ATOM      5  C   UNL     1     -37.144  25.069   3.693  0.00  0.00    +0.211 C 
ATOM      6  C   UNL     1     -37.034  23.574   3.398  0.00  0.00    +0.321 C 
ENDROOT
BRANCH   2   7
ATOM      7  O   UNL     1     -34.147  25.099   5.964  0.00  0.00    -0.379 OA
ATOM      8  H   UNL     1     -33.724  25.644   5.282  0.00  0.00    +0.211 HD
ENDBRANCH   2   7
BRANCH   3   9
ATOM      9  O   UNL     1     -36.114  26.911   4.866  0.00  0.00    -0.379 OA
ATOM     10  H   UNL     1     -36.455  26.849   5.772  0.00  0.00    +0.211 HD
ENDBRANCH   3   9
BRANCH   5  11
ATOM     11  O   UNL     1     -37.353  25.754   2.457  0.00  0.00    -0.377 OA
ATOM     12  H   UNL     1     -36.880  25.291   1.747  0.00  0.00    +0.211 HD
ENDBRANCH   5  11
BRANCH   6  13
ATOM     13  O   UNL     1     -38.302  23.127   2.916  0.00  0.00    -0.419 OA
BRANCH  13  15
ATOM     14  O   UNL     1     -39.193  21.288   1.837  0.00  0.00    -0.245 OA
ATOM     15  C   UNL     1     -38.269  22.046   2.088  0.00  0.00    +0.343 C 
BRANCH  15  16
ATOM     16  C   UNL     1     -36.899  21.942   1.535  0.00  0.00    +0.082 C 
ATOM     17  C   UNL     1     -36.196  20.816   1.719  0.00  0.00    +0.007 C 
BRANCH  17  18
ATOM     18  C   UNL     1     -34.832  20.589   1.211  0.00  0.00    +0.000 C 
ATOM     19  C   UNL     1     -34.223  21.568   0.441  0.00  0.00    +0.000 C 
ATOM     20  C   UNL     1     -34.184  19.402   1.513  0.00  0.00    +0.000 C 
ATOM     21  C   UNL     1     -32.932  21.352  -0.039  0.00  0.00    +0.000 C 
ATOM     22  C   UNL     1     -32.892  19.187   1.032  0.00  0.00    +0.000 C 
ATOM     23  C   UNL     1     -32.267  20.162   0.256  0.00  0.00    +0.000 C 
ENDBRANCH  17  18
ENDBRANCH  15  16
ENDBRANCH  13  15
ENDBRANCH   6  13
BRANCH   4  24
ATOM     24  C   UNL     1     -35.107  22.320   6.280  0.00  0.00    +0.169 C 
BRANCH  24  25
ATOM     25  O   UNL     1     -35.379  20.985   5.896  0.00  0.00    -0.379 OA
ATOM     26  H   UNL     1     -35.683  20.969   4.975  0.00  0.00    +0.211 HD
ENDBRANCH  24  25
ENDBRANCH   4  24
TORSDOF 9
ENDMDL
MODEL 2
REMARK VINA RESULT:      -6.5      1.485      2.306
REMARK  Name = 5280653
REMARK  9 active torsions:
REMARK  status: ('A' for Active; 'I' for Inactive)
REMARK    1  A    between atoms: C_2  and  O_7
REMARK    2  A    between atoms: C_3  and  O_9
REMARK    3  A    between atoms: C_4  and  C_24
REMARK    4  A    between atoms: C_5  and  O_11
REMARK    5  A    between atoms: C_6  and  O_13
REMARK    6  A    between atoms: O_13  and  C_15
REMARK    7  A    between atoms: C_15  and  C_16
REMARK    8  A    between atoms: C_17  and  C_18
REMARK    9  A    between atoms: C_24  and  O_25
REMARK                            x       y       z     vdW  Elec       q    Type
REMARK                         _______ _______ _______ _____ _____    ______ ____
ROOT
ATOM      1  O   UNL     1     -35.814  22.296   3.951  0.00  0.00    -0.316 OA
ATOM      2  C   UNL     1     -36.106  24.396   5.127  0.00  0.00    +0.169 C 
ATOM      3  C   UNL     1     -36.260  25.130   3.794  0.00  0.00    +0.173 C 
ATOM      4  C   UNL     1     -35.251  23.138   4.958  0.00  0.00    +0.177 C 
ATOM      5  C   UNL     1     -36.691  24.173   2.683  0.00  0.00    +0.211 C 
ATOM      6  C   UNL     1     -35.823  22.915   2.666  0.00  0.00    +0.321 C 
ENDROOT
BRANCH   2   7
ATOM      7  O   UNL     1     -35.487  25.263   6.074  0.00  0.00    -0.379 OA
ATOM      8  H   UNL     1     -35.180  26.066   5.625  0.00  0.00    +0.211 HD
ENDBRANCH   2   7
BRANCH   3   9
ATOM      9  O   UNL     1     -37.253  26.143   3.961  0.00  0.00    -0.379 OA
ATOM     10  H   UNL     1     -36.949  26.788   4.618  0.00  0.00    +0.211 HD
ENDBRANCH   3   9
BRANCH   5  11
ATOM     11  O   UNL     1     -36.557  24.824   1.419  0.00  0.00    -0.377 OA
ATOM     12  H   UNL     1     -37.132  25.606   1.396  0.00  0.00    +0.211 HD
ENDBRANCH   5  11
BRANCH   6  13
ATOM     13  O   UNL     1     -36.374  22.015   1.703  0.00  0.00    -0.419 OA
BRANCH  13  15
ATOM     14  O   UNL     1     -36.619  19.797   2.303  0.00  0.00    -0.245 OA
ATOM     15  C   UNL     1     -35.978  20.716   1.818  0.00  0.00    +0.343 C 
BRANCH  15  16
ATOM     16  C   UNL     1     -34.617  20.606   1.246  0.00  0.00    +0.082 C 
ATOM     17  C   UNL     1     -33.915  19.478   1.423  0.00  0.00    +0.007 C 
BRANCH  17  18
ATOM     18  C   UNL     1     -32.559  19.244   0.896  0.00  0.00    +0.000 C 
ATOM     19  C   UNL     1     -31.903  18.065   1.212  0.00  0.00    +0.000 C 
ATOM     20  C   UNL     1     -31.968  20.207   0.095  0.00  0.00    +0.000 C 
ATOM     21  C   UNL     1     -30.619  17.845   0.712  0.00  0.00    +0.000 C 
ATOM     22  C   UNL     1     -30.684  19.986  -0.404  0.00  0.00    +0.000 C 
ATOM     23  C   UNL     1     -30.010  18.805  -0.095  0.00  0.00    +0.000 C 
ENDBRANCH  17  18
ENDBRANCH  15  16
ENDBRANCH  13  15
ENDBRANCH   6  13
BRANCH   4  24
ATOM     24  C   UNL     1     -35.178  22.326   6.248  0.00  0.00    +0.169 C 
BRANCH  24  25
ATOM     25  O   UNL     1     -35.433  20.968   5.942  0.00  0.00    -0.379 OA
ATOM     26  H   UNL     1     -35.534  20.465   6.764  0.00  0.00    +0.211 HD
ENDBRANCH  24  25
ENDBRANCH   4  24
TORSDOF 9
ENDMDL
MODEL 3
REMARK VINA RESULT:      -6.4      1.300      1.822
REMARK  Name = 5280653
REMARK  9 active torsions:
REMARK  status: ('A' for Active; 'I' for Inactive)
REMARK    1  A    between atoms: C_2  and  O_7
REMARK    2  A    between atoms: C_3  and  O_9
REMARK    3  A    between atoms: C_4  and  C_24
REMARK    4  A    between atoms: C_5  and  O_11
REMARK    5  A    between atoms: C_6  and  O_13
REMARK    6  A    between atoms: O_13  and  C_15
REMARK    7  A    between atoms: C_15  and  C_16
REMARK    8  A    between atoms: C_17  and  C_18
REMARK    9  A    between atoms: C_24  and  O_25
REMARK                            x       y       z     vdW  Elec       q    Type
REMARK                         _______ _______ _______ _____ _____    ______ ____
ROOT
ATOM      1  O   UNL     1     -36.674  22.860   3.879  0.00  0.00    -0.316 OA
ATOM      2  C   UNL     1     -37.070  25.138   4.610  0.00  0.00    +0.169 C 
ATOM      3  C   UNL     1     -37.705  25.469   3.259  0.00  0.00    +0.173 C 
ATOM      4  C   UNL     1     -36.053  24.003   4.468  0.00  0.00    +0.177 C 
ATOM      5  C   UNL     1     -38.205  24.206   2.558  0.00  0.00    +0.211 C 
ATOM      6  C   UNL     1     -37.137  23.113   2.554  0.00  0.00    +0.321 C 
ENDROOT
BRANCH   2   7
ATOM      7  O   UNL     1     -36.417  26.296   5.121  0.00  0.00    -0.379 OA
ATOM      8  H   UNL     1     -35.467  26.120   5.207  0.00  0.00    +0.211 HD
ENDBRANCH   2   7
BRANCH   3   9
ATOM      9  O   UNL     1     -38.804  26.350   3.492  0.00  0.00    -0.379 OA
ATOM     10  H   UNL     1     -39.106  26.721   2.648  0.00  0.00    +0.211 HD
ENDBRANCH   3   9
BRANCH   5  11
ATOM     11  O   UNL     1     -38.533  24.515   1.203  0.00  0.00    -0.377 OA
ATOM     12  H   UNL     1     -38.853  23.714   0.758  0.00  0.00    +0.211 HD
ENDBRANCH   5  11
BRANCH   6  13
ATOM     13  O   UNL     1     -37.724  21.927   2.015  0.00  0.00    -0.419 OA
BRANCH  13  15
ATOM     14  O   UNL     1     -37.782  21.966  -0.295  0.00  0.00    -0.245 OA
ATOM     15  C   UNL     1     -37.309  21.582   0.764  0.00  0.00    +0.343 C 
BRANCH  15  16
ATOM     16  C   UNL     1     -36.170  20.648   0.908  0.00  0.00    +0.082 C 
ATOM     17  C   UNL     1     -34.951  21.023   0.495  0.00  0.00    +0.007 C 
BRANCH  17  18
ATOM     18  C   UNL     1     -33.740  20.190   0.593  0.00  0.00    +0.000 C 
ATOM     19  C   UNL     1     -32.573  20.613  -0.023  0.00  0.00    +0.000 C 
ATOM     20  C   UNL     1     -33.792  18.999   1.300  0.00  0.00    +0.000 C 
ATOM     21  C   UNL     1     -31.427  19.823   0.071  0.00  0.00    +0.000 C 
ATOM     22  C   UNL     1     -32.645  18.210   1.393  0.00  0.00    +0.000 C 
ATOM     23  C   UNL     1     -31.464  18.622   0.779  0.00  0.00    +0.000 C 
ENDBRANCH  17  18
ENDBRANCH  15  16
ENDBRANCH  13  15
ENDBRANCH   6  13
BRANCH   4  24
ATOM     24  C   UNL     1     -35.491  23.575   5.820  0.00  0.00    +0.169 C 
BRANCH  24  25
ATOM     25  O   UNL     1     -36.092  22.349   6.191  0.00  0.00    -0.379 OA
ATOM     26  H   UNL     1     -36.422  21.897   5.399  0.00  0.00    +0.211 HD
ENDBRANCH  24  25
ENDBRANCH   4  24
TORSDOF 9
ENDMDL
MODEL 4
REMARK VINA RESULT:      -6.4      1.595      2.903
REMARK  Name = 5280653
REMARK  9 active torsions:
REMARK  status: ('A' for Active; 'I' for Inactive)
REMARK    1  A    between atoms: C_2  and  O_7
REMARK    2  A    between atoms: C_3  and  O_9
REMARK    3  A    between atoms: C_4  and  C_24
REMARK    4  A    between atoms: C_5  and  O_11
REMARK    5  A    between atoms: C_6  and  O_13
REMARK    6  A    between atoms: O_13  and  C_15
REMARK    7  A    between atoms: C_15  and  C_16
REMARK    8  A    between atoms: C_17  and  C_18
REMARK    9  A    between atoms: C_24  and  O_25
REMARK                            x       y       z     vdW  Elec       q    Type
REMARK                         _______ _______ _______ _____ _____    ______ ____
ROOT
ATOM      1  O   UNL     1     -34.966  23.348   3.839  0.00  0.00    -0.316 OA
ATOM      2  C   UNL     1     -36.395  25.284   4.136  0.00  0.00    +0.169 C 
ATOM      3  C   UNL     1     -37.512  24.587   3.359  0.00  0.00    +0.173 C 
ATOM      4  C   UNL     1     -35.023  24.767   3.694  0.00  0.00    +0.177 C 
ATOM      5  C   UNL     1     -37.333  23.069   3.372  0.00  0.00    +0.211 C 
ATOM      6  C   UNL     1     -35.904  22.675   3.001  0.00  0.00    +0.321 C 
ENDROOT
BRANCH   2   7
ATOM      7  O   UNL     1     -36.466  26.689   3.908  0.00  0.00    -0.379 OA
ATOM      8  H   UNL     1     -37.383  26.986   4.008  0.00  0.00    +0.211 HD
ENDBRANCH   2   7
BRANCH   3   9
ATOM      9  O   UNL     1     -38.755  24.925   3.976  0.00  0.00    -0.379 OA
ATOM     10  H   UNL     1     -39.440  25.015   3.295  0.00  0.00    +0.211 HD
ENDBRANCH   3   9
BRANCH   5  11
ATOM     11  O   UNL     1     -38.220  22.479   2.422  0.00  0.00    -0.377 OA
ATOM     12  H   UNL     1     -39.073  22.295   2.847  0.00  0.00    +0.211 HD
ENDBRANCH   5  11
BRANCH   6  13
ATOM     13  O   UNL     1     -35.778  21.263   3.174  0.00  0.00    -0.419 OA
BRANCH  13  15
ATOM     14  O   UNL     1     -36.788  19.987   1.533  0.00  0.00    -0.245 OA
ATOM     15  C   UNL     1     -35.810  20.525   2.030  0.00  0.00    +0.343 C 
BRANCH  15  16
ATOM     16  C   UNL     1     -34.435  20.484   1.481  0.00  0.00    +0.082 C 
ATOM     17  C   UNL     1     -33.775  19.317   1.439  0.00  0.00    +0.007 C 
BRANCH  17  18
ATOM     18  C   UNL     1     -32.412  19.146   0.909  0.00  0.00    +0.000 C 
ATOM     19  C   UNL     1     -31.863  20.141   0.115  0.00  0.00    +0.000 C 
ATOM     20  C   UNL     1     -31.704  17.995   1.215  0.00  0.00    +0.000 C 
ATOM     21  C   UNL     1     -30.572  19.978  -0.386  0.00  0.00    +0.000 C 
ATOM     22  C   UNL     1     -30.413  17.834   0.713  0.00  0.00    +0.000 C 
ATOM     23  C   UNL     1     -29.847  18.825  -0.088  0.00  0.00    +0.000 C 
ENDBRANCH  17  18
ENDBRANCH  15  16
ENDBRANCH  13  15
ENDBRANCH   6  13
BRANCH   4  24
ATOM     24  C   UNL     1     -33.898  25.361   4.535  0.00  0.00    +0.169 C 
BRANCH  24  25
ATOM     25  O   UNL     1     -34.441  25.814   5.761  0.00  0.00    -0.379 OA
ATOM     26  H   UNL     1     -34.475  25.078   6.391  0.00  0.00    +0.211 HD
ENDBRANCH  24  25
ENDBRANCH   4  24
TORSDOF 9
ENDMDL
MODEL 5
REMARK VINA RESULT:      -6.4      2.814      6.298
REMARK  Name = 5280653
REMARK  9 active torsions:
REMARK  status: ('A' for Active; 'I' for Inactive)
REMARK    1  A    between atoms: C_2  and  O_7
REMARK    2  A    between atoms: C_3  and  O_9
REMARK    3  A    between atoms: C_4  and  C_24
REMARK    4  A    between atoms: C_5  and  O_11
REMARK    5  A    between atoms: C_6  and  O_13
REMARK    6  A    between atoms: O_13  and  C_15
REMARK    7  A    between atoms: C_15  and  C_16
REMARK    8  A    between atoms: C_17  and  C_18
REMARK    9  A    between atoms: C_24  and  O_25
REMARK                            x       y       z     vdW  Elec       q    Type
REMARK                         _______ _______ _______ _____ _____    ______ ____
ROOT
ATOM      1  O   UNL     1     -37.386  23.979   3.082  0.00  0.00    -0.316 OA
ATOM      2  C   UNL     1     -39.622  23.345   2.394  0.00  0.00    +0.169 C 
ATOM      3  C   UNL     1     -39.103  21.983   1.935  0.00  0.00    +0.173 C 
ATOM      4  C   UNL     1     -38.517  24.401   2.319  0.00  0.00    +0.177 C 
ATOM      5  C   UNL     1     -37.791  21.627   2.633  0.00  0.00    +0.211 C 
ATOM      6  C   UNL     1     -36.796  22.786   2.570  0.00  0.00    +0.321 C 
ENDROOT
BRANCH   2   7
ATOM      7  O   UNL     1     -40.710  23.741   1.562  0.00  0.00    -0.379 OA
ATOM      8  H   UNL     1     -41.238  22.962   1.328  0.00  0.00    +0.211 HD
ENDBRANCH   2   7
BRANCH   3   9
ATOM      9  O   UNL     1     -40.092  21.003   2.254  0.00  0.00    -0.379 OA
ATOM     10  H   UNL     1     -40.377  21.119   3.174  0.00  0.00    +0.211 HD
ENDBRANCH   3   9
BRANCH   5  11
ATOM     11  O   UNL     1     -37.202  20.498   1.987  0.00  0.00    -0.377 OA
ATOM     12  H   UNL     1     -36.277  20.696   1.770  0.00  0.00    +0.211 HD
ENDBRANCH   5  11
BRANCH   6  13
ATOM     13  O   UNL     1     -35.660  22.433   3.360  0.00  0.00    -0.419 OA
BRANCH  13  15
ATOM     14  O   UNL     1     -36.293  22.675   5.570  0.00  0.00    -0.245 OA
ATOM     15  C   UNL     1     -35.614  22.987   4.604  0.00  0.00    +0.343 C 
BRANCH  15  16
ATOM     16  C   UNL     1     -34.583  24.050   4.586  0.00  0.00    +0.082 C 
ATOM     17  C   UNL     1     -34.766  25.160   5.317  0.00  0.00    +0.007 C 
BRANCH  17  18
ATOM     18  C   UNL     1     -33.812  26.280   5.390  0.00  0.00    +0.000 C 
ATOM     19  C   UNL     1     -33.268  26.629   6.616  0.00  0.00    +0.000 C 
ATOM     20  C   UNL     1     -33.477  26.962   4.231  0.00  0.00    +0.000 C 
ATOM     21  C   UNL     1     -32.365  27.690   6.684  0.00  0.00    +0.000 C 
ATOM     22  C   UNL     1     -32.574  28.023   4.300  0.00  0.00    +0.000 C 
ATOM     23  C   UNL     1     -32.019  28.387   5.526  0.00  0.00    +0.000 C 
ENDBRANCH  17  18
ENDBRANCH  15  16
ENDBRANCH  13  15
ENDBRANCH   6  13
BRANCH   4  24
ATOM     24  C   UNL     1     -38.976  25.742   2.882  0.00  0.00    +0.169 C 
BRANCH  24  25
ATOM     25  O   UNL     1     -37.973  26.236   3.749  0.00  0.00    -0.379 OA
ATOM     26  H   UNL     1     -37.103  26.111   3.341  0.00  0.00    +0.211 HD
ENDBRANCH  24  25
ENDBRANCH   4  24
TORSDOF 9
ENDMDL
MODEL 6
REMARK VINA RESULT:      -6.4      3.407      6.257
REMARK  Name = 5280653
REMARK  9 active torsions:
REMARK  status: ('A' for Active; 'I' for Inactive)
REMARK    1  A    between atoms: C_2  and  O_7
REMARK    2  A    between atoms: C_3  and  O_9
REMARK    3  A    between atoms: C_4  and  C_24
REMARK    4  A    between atoms: C_5  and  O_11
REMARK    5  A    between atoms: C_6  and  O_13
REMARK    6  A    between atoms: O_13  and  C_15
REMARK    7  A    between atoms: C_15  and  C_16
REMARK    8  A    between atoms: C_17  and  C_18
REMARK    9  A    between atoms: C_24  and  O_25
REMARK                            x       y       z     vdW  Elec       q    Type
REMARK                         _______ _______ _______ _____ _____    ______ ____
ROOT
ATOM      1  O   UNL     1     -37.630  22.887   2.683  0.00  0.00    -0.316 OA
ATOM      2  C   UNL     1     -39.541  24.045   1.743  0.00  0.00    +0.169 C 
ATOM      3  C   UNL     1     -39.270  25.244   2.652  0.00  0.00    +0.173 C 
ATOM      4  C   UNL     1     -39.019  22.753   2.378  0.00  0.00    +0.177 C 
ATOM      5  C   UNL     1     -37.815  25.269   3.116  0.00  0.00    +0.211 C 
ATOM      6  C   UNL     1     -37.378  23.905   3.649  0.00  0.00    +0.321 C 
ENDROOT
BRANCH   2   7
ATOM      7  O   UNL     1     -40.944  23.927   1.521  0.00  0.00    -0.379 OA
ATOM      8  H   UNL     1     -41.423  24.237   2.305  0.00  0.00    +0.211 HD
ENDBRANCH   2   7
BRANCH   3   9
ATOM      9  O   UNL     1     -39.554  26.432   1.911  0.00  0.00    -0.379 OA
ATOM     10  H   UNL     1     -38.874  26.559   1.232  0.00  0.00    +0.211 HD
ENDBRANCH   3   9
BRANCH   5  11
ATOM     11  O   UNL     1     -37.669  26.226   4.167  0.00  0.00    -0.377 OA
ATOM     12  H   UNL     1     -38.367  26.089   4.827  0.00  0.00    +0.211 HD
ENDBRANCH   5  11
BRANCH   6  13
ATOM     13  O   UNL     1     -35.978  23.969   3.927  0.00  0.00    -0.419 OA
BRANCH  13  15
ATOM     14  O   UNL     1     -35.920  22.706   5.862  0.00  0.00    -0.245 OA
ATOM     15  C   UNL     1     -35.621  23.697   5.213  0.00  0.00    +0.343 C 
BRANCH  15  16
ATOM     16  C   UNL     1     -34.794  24.825   5.700  0.00  0.00    +0.082 C 
ATOM     17  C   UNL     1     -34.202  25.640   4.815  0.00  0.00    +0.007 C 
BRANCH  17  18
ATOM     18  C   UNL     1     -33.366  26.798   5.174  0.00  0.00    +0.000 C 
ATOM     19  C   UNL     1     -33.003  27.705   4.190  0.00  0.00    +0.000 C 
ATOM     20  C   UNL     1     -32.959  26.960   6.489  0.00  0.00    +0.000 C 
ATOM     21  C   UNL     1     -32.212  28.801   4.531  0.00  0.00    +0.000 C 
ATOM     22  C   UNL     1     -32.168  28.057   6.829  0.00  0.00    +0.000 C 
ATOM     23  C   UNL     1     -31.793  28.977   5.851  0.00  0.00    +0.000 C 
ENDBRANCH  17  18
ENDBRANCH  15  16
ENDBRANCH  13  15
ENDBRANCH   6  13
BRANCH   4  24
ATOM     24  C   UNL     1     -39.172  21.560   1.440  0.00  0.00    +0.169 C 
BRANCH  24  25
ATOM     25  O   UNL     1     -40.408  20.928   1.711  0.00  0.00    -0.379 OA
ATOM     26  H   UNL     1     -40.393  20.024   1.361  0.00  0.00    +0.211 HD
ENDBRANCH  24  25
ENDBRANCH   4  24
TORSDOF 9
ENDMDL
MODEL 7
REMARK VINA RESULT:      -6.4      1.519      2.560
REMARK  Name = 5280653
REMARK  9 active torsions:
REMARK  status: ('A' for Active; 'I' for Inactive)
REMARK    1  A    between atoms: C_2  and  O_7
REMARK    2  A    between atoms: C_3  and  O_9
REMARK    3  A    between atoms: C_4  and  C_24
REMARK    4  A    between atoms: C_5  and  O_11
REMARK    5  A    between atoms: C_6  and  O_13
REMARK    6  A    between atoms: O_13  and  C_15
REMARK    7  A    between atoms: C_15  and  C_16
REMARK    8  A    between atoms: C_17  and  C_18
REMARK    9  A    between atoms: C_24  and  O_25
REMARK                            x       y       z     vdW  Elec       q    Type
REMARK                         _______ _______ _______ _____ _____    ______ ____
ROOT
ATOM      1  O   UNL     1     -35.472  23.744   4.452  0.00  0.00    -0.316 OA
ATOM      2  C   UNL     1     -36.194  26.055   4.330  0.00  0.00    +0.169 C 
ATOM      3  C   UNL     1     -37.138  25.707   3.179  0.00  0.00    +0.173 C 
ATOM      4  C   UNL     1     -35.005  25.091   4.368  0.00  0.00    +0.177 C 
ATOM      5  C   UNL     1     -37.485  24.219   3.179  0.00  0.00    +0.211 C 
ATOM      6  C   UNL     1     -36.230  23.356   3.309  0.00  0.00    +0.321 C 
ENDROOT
BRANCH   2   7
ATOM      7  O   UNL     1     -35.715  27.387   4.162  0.00  0.00    -0.379 OA
ATOM      8  H   UNL     1     -34.840  27.470   4.573  0.00  0.00    +0.211 HD
ENDBRANCH   2   7
BRANCH   3   9
ATOM      9  O   UNL     1     -38.332  26.474   3.341  0.00  0.00    -0.379 OA
ATOM     10  H   UNL     1     -38.460  26.679   4.281  0.00  0.00    +0.211 HD
ENDBRANCH   3   9
BRANCH   5  11
ATOM     11  O   UNL     1     -38.133  23.883   1.951  0.00  0.00    -0.377 OA
ATOM     12  H   UNL     1     -37.488  23.917   1.227  0.00  0.00    +0.211 HD
ENDBRANCH   5  11
BRANCH   6  13
ATOM     13  O   UNL     1     -36.645  21.996   3.445  0.00  0.00    -0.419 OA
BRANCH  13  15
ATOM     14  O   UNL     1     -37.562  20.833   1.671  0.00  0.00    -0.245 OA
ATOM     15  C   UNL     1     -36.606  21.252   2.304  0.00  0.00    +0.343 C 
BRANCH  15  16
ATOM     16  C   UNL     1     -35.183  21.033   1.956  0.00  0.00    +0.082 C 
ATOM     17  C   UNL     1     -34.803  19.856   1.438  0.00  0.00    +0.007 C 
BRANCH  17  18
ATOM     18  C   UNL     1     -33.424  19.522   1.043  0.00  0.00    +0.000 C 
ATOM     19  C   UNL     1     -32.870  18.323   1.463  0.00  0.00    +0.000 C 
ATOM     20  C   UNL     1     -32.708  20.412   0.260  0.00  0.00    +0.000 C 
ATOM     21  C   UNL     1     -31.564  18.007   1.089  0.00  0.00    +0.000 C 
ATOM     22  C   UNL     1     -31.402  20.096  -0.114  0.00  0.00    +0.000 C 
ATOM     23  C   UNL     1     -30.830  18.894   0.301  0.00  0.00    +0.000 C 
ENDBRANCH  17  18
ENDBRANCH  15  16
ENDBRANCH  13  15
ENDBRANCH   6  13
BRANCH   4  24
ATOM     24  C   UNL     1     -34.110  25.344   5.576  0.00  0.00    +0.169 C 
BRANCH  24  25
ATOM     25  O   UNL     1     -33.249  26.428   5.281  0.00  0.00    -0.379 OA
ATOM     26  H   UNL     1     -33.671  27.008   4.628  0.00  0.00    +0.211 HD
ENDBRANCH  24  25
ENDBRANCH   4  24
TORSDOF 9
ENDMDL
MODEL 8
REMARK VINA RESULT:      -6.3      1.251      3.226
REMARK  Name = 5280653
REMARK  9 active torsions:
REMARK  status: ('A' for Active; 'I' for Inactive)
REMARK    1  A    between atoms: C_2  and  O_7
REMARK    2  A    between atoms: C_3  and  O_9
REMARK    3  A    between atoms: C_4  and  C_24
REMARK    4  A    between atoms: C_5  and  O_11
REMARK    5  A    between atoms: C_6  and  O_13
REMARK    6  A    between atoms: O_13  and  C_15
REMARK    7  A    between atoms: C_15  and  C_16
REMARK    8  A    between atoms: C_17  and  C_18
REMARK    9  A    between atoms: C_24  and  O_25
REMARK                            x       y       z     vdW  Elec       q    Type
REMARK                         _______ _______ _______ _____ _____    ______ ____
ROOT
ATOM      1  O   UNL     1     -36.552  23.986   2.515  0.00  0.00    -0.316 OA
ATOM      2  C   UNL     1     -35.728  25.655   4.069  0.00  0.00    +0.169 C 
ATOM      3  C   UNL     1     -35.798  24.639   5.209  0.00  0.00    +0.173 C 
ATOM      4  C   UNL     1     -36.752  25.322   2.980  0.00  0.00    +0.177 C 
ATOM      5  C   UNL     1     -35.765  23.207   4.677  0.00  0.00    +0.211 C 
ATOM      6  C   UNL     1     -36.766  23.014   3.537  0.00  0.00    +0.321 C 
ENDROOT
BRANCH   2   7
ATOM      7  O   UNL     1     -35.992  26.959   4.580  0.00  0.00    -0.379 OA
ATOM      8  H   UNL     1     -35.351  27.168   5.278  0.00  0.00    +0.211 HD
ENDBRANCH   2   7
BRANCH   3   9
ATOM      9  O   UNL     1     -34.674  24.856   6.062  0.00  0.00    -0.379 OA
ATOM     10  H   UNL     1     -33.860  24.618   5.592  0.00  0.00    +0.211 HD
ENDBRANCH   3   9
BRANCH   5  11
ATOM     11  O   UNL     1     -36.107  22.303   5.728  0.00  0.00    -0.377 OA
ATOM     12  H   UNL     1     -35.589  22.518   6.520  0.00  0.00    +0.211 HD
ENDBRANCH   5  11
BRANCH   6  13
ATOM     13  O   UNL     1     -36.575  21.704   3.003  0.00  0.00    -0.419 OA
BRANCH  13  15
ATOM     14  O   UNL     1     -37.562  21.771   0.914  0.00  0.00    -0.245 OA
ATOM     15  C   UNL     1     -36.595  21.614   1.643  0.00  0.00    +0.343 C 
BRANCH  15  16
ATOM     16  C   UNL     1     -35.223  21.289   1.192  0.00  0.00    +0.082 C 
ATOM     17  C   UNL     1     -34.712  20.076   1.450  0.00  0.00    +0.007 C 
BRANCH  17  18
ATOM     18  C   UNL     1     -33.368  19.631   1.046  0.00  0.00    +0.000 C 
ATOM     19  C   UNL     1     -32.910  18.391   1.462  0.00  0.00    +0.000 C 
ATOM     20  C   UNL     1     -32.587  20.460   0.256  0.00  0.00    +0.000 C 
ATOM     21  C   UNL     1     -31.637  17.970   1.079  0.00  0.00    +0.000 C 
ATOM     22  C   UNL     1     -31.314  20.038  -0.127  0.00  0.00    +0.000 C 
ATOM     23  C   UNL     1     -30.839  18.794   0.285  0.00  0.00    +0.000 C 
ENDBRANCH  17  18
ENDBRANCH  15  16
ENDBRANCH  13  15
ENDBRANCH   6  13
BRANCH   4  24
ATOM     24  C   UNL     1     -36.622  26.251   1.778  0.00  0.00    +0.169 C 
BRANCH  24  25
ATOM     25  O   UNL     1     -37.420  27.398   2.006  0.00  0.00    -0.379 OA
ATOM     26  H   UNL     1     -38.267  27.300   1.544  0.00  0.00    +0.211 HD
ENDBRANCH  24  25
ENDBRANCH   4  24
TORSDOF 9
ENDMDL
MODEL 9
REMARK VINA RESULT:      -6.3      2.667      6.437
REMARK  Name = 5280653
REMARK  9 active torsions:
REMARK  status: ('A' for Active; 'I' for Inactive)
REMARK    1  A    between atoms: C_2  and  O_7
REMARK    2  A    between atoms: C_3  and  O_9
REMARK    3  A    between atoms: C_4  and  C_24
REMARK    4  A    between atoms: C_5  and  O_11
REMARK    5  A    between atoms: C_6  and  O_13
REMARK    6  A    between atoms: O_13  and  C_15
REMARK    7  A    between atoms: C_15  and  C_16
REMARK    8  A    between atoms: C_17  and  C_18
REMARK    9  A    between atoms: C_24  and  O_25
REMARK                            x       y       z     vdW  Elec       q    Type
REMARK                         _______ _______ _______ _____ _____    ______ ____
ROOT
ATOM      1  O   UNL     1     -36.662  22.305   2.423  0.00  0.00    -0.316 OA
ATOM      2  C   UNL     1     -38.740  21.795   1.281  0.00  0.00    +0.169 C 
ATOM      3  C   UNL     1     -39.485  22.780   2.182  0.00  0.00    +0.173 C 
ATOM      4  C   UNL     1     -37.505  21.235   1.992  0.00  0.00    +0.177 C 
ATOM      5  C   UNL     1     -38.531  23.814   2.780  0.00  0.00    +0.211 C 
ATOM      6  C   UNL     1     -37.296  23.147   3.384  0.00  0.00    +0.321 C 
ENDROOT
BRANCH   2   7
ATOM      7  O   UNL     1     -39.610  20.722   0.931  0.00  0.00    -0.379 OA
ATOM      8  H   UNL     1     -40.531  20.997   1.060  0.00  0.00    +0.211 HD
ENDBRANCH   2   7
BRANCH   3   9
ATOM      9  O   UNL     1     -40.471  23.443   1.390  0.00  0.00    -0.379 OA
ATOM     10  H   UNL     1     -40.462  23.079   0.491  0.00  0.00    +0.211 HD
ENDBRANCH   3   9
BRANCH   5  11
ATOM     11  O   UNL     1     -39.202  24.532   3.816  0.00  0.00    -0.377 OA
ATOM     12  H   UNL     1     -38.550  25.021   4.343  0.00  0.00    +0.211 HD
ENDBRANCH   5  11
BRANCH   6  13
ATOM     13  O   UNL     1     -36.395  24.177   3.789  0.00  0.00    -0.419 OA
BRANCH  13  15
ATOM     14  O   UNL     1     -35.999  23.100   5.795  0.00  0.00    -0.245 OA
ATOM     15  C   UNL     1     -35.911  24.070   5.058  0.00  0.00    +0.343 C 
BRANCH  15  16
ATOM     16  C   UNL     1     -35.249  25.350   5.399  0.00  0.00    +0.082 C 
ATOM     17  C   UNL     1     -34.029  25.614   4.910  0.00  0.00    +0.007 C 
BRANCH  17  18
ATOM     18  C   UNL     1     -33.274  26.852   5.168  0.00  0.00    +0.000 C 
ATOM     19  C   UNL     1     -32.815  27.112   6.450  0.00  0.00    +0.000 C 
ATOM     20  C   UNL     1     -33.036  27.732   4.125  0.00  0.00    +0.000 C 
ATOM     21  C   UNL     1     -32.100  28.284   6.693  0.00  0.00    +0.000 C 
ATOM     22  C   UNL     1     -32.321  28.904   4.369  0.00  0.00    +0.000 C 
ATOM     23  C   UNL     1     -31.853  29.181   5.653  0.00  0.00    +0.000 C 
ENDBRANCH  17  18
ENDBRANCH  15  16
ENDBRANCH  13  15
ENDBRANCH   6  13
BRANCH   4  24
ATOM     24  C   UNL     1     -36.680  20.340   1.073  0.00  0.00    +0.169 C 
BRANCH  24  25
ATOM     25  O   UNL     1     -37.112  19.003   1.238  0.00  0.00    -0.379 OA
ATOM     26  H   UNL     1     -37.667  18.747   0.485  0.00  0.00    +0.211 HD
ENDBRANCH  24  25
ENDBRANCH   4  24
TORSDOF 9
ENDMDL
