MODEL 1
REMARK VINA RESULT:      -6.5      0.000      0.000
REMARK  Name = 5546
REMARK  1 active torsions:
REMARK  status: ('A' for Active; 'I' for Inactive)
REMARK    1  A    between atoms: C_7  and  C_17
REMARK                            x       y       z     vdW  Elec       q    Type
REMARK                         _______ _______ _______ _____ _____    ______ ____
ROOT
ATOM      1  N   UNL     1     -35.361  21.554   3.066  0.00  0.00    -0.382 NA
ATOM      2  N   UNL     1     -35.371  23.870   1.551  0.00  0.00    -0.320 NA
ATOM      3  N   UNL     1     -35.865  25.119   3.438  0.00  0.00    -0.259 NA
ATOM      4  N   UNL     1     -36.122  24.069   5.579  0.00  0.00    -0.310 NA
ATOM      5  N   UNL     1     -34.867  22.602  -0.390  0.00  0.00    -0.330 N 
ATOM      6  N   UNL     1     -36.365  26.386   5.349  0.00  0.00    -0.283 N 
ATOM      7  C   UNL     1     -35.119  21.522   1.746  0.00  0.00    +0.177 C 
ATOM      8  C   UNL     1     -35.608  22.757   3.617  0.00  0.00    +0.261 C 
ATOM      9  C   UNL     1     -35.617  23.934   2.866  0.00  0.00    +0.186 C 
ATOM     10  C   UNL     1     -35.125  22.666   0.998  0.00  0.00    +0.219 C 
ATOM     11  C   UNL     1     -35.868  22.899   4.967  0.00  0.00    +0.232 C 
ATOM     12  C   UNL     1     -36.105  25.129   4.762  0.00  0.00    +0.208 C 
ATOM     13  H   UNL     1     -34.871  23.425  -0.929  0.00  0.00    +0.145 HD
ATOM     14  H   UNL     1     -34.684  21.734  -0.816  0.00  0.00    +0.145 HD
ATOM     15  H   UNL     1     -36.365  27.198   4.792  0.00  0.00    +0.156 HD
ATOM     16  H   UNL     1     -36.547  26.452   6.314  0.00  0.00    +0.156 HD
ATOM     17  N   UNL     1     -35.869  21.728   5.770  0.00  0.00    -0.329 N 
ATOM     18  H   UNL     1     -36.051  21.793   6.734  0.00  0.00    +0.145 HD
ATOM     19  H   UNL     1     -35.688  20.850   5.361  0.00  0.00    +0.145 HD
ENDROOT
BRANCH   7  20
ATOM     20  C   UNL     1     -34.861  20.208   1.207  0.00  0.00    +0.034 C 
ATOM     21  C   UNL     1     -33.623  19.597   1.414  0.00  0.00    +0.003 C 
ATOM     22  C   UNL     1     -35.850  19.543   0.478  0.00  0.00    +0.003 C 
ATOM     23  C   UNL     1     -33.373  18.327   0.893  0.00  0.00    +0.000 C 
ATOM     24  C   UNL     1     -35.600  18.273  -0.043  0.00  0.00    +0.000 C 
ATOM     25  C   UNL     1     -34.362  17.665   0.164  0.00  0.00    +0.000 C 
ENDBRANCH   7  20
TORSDOF 1
ENDMDL
MODEL 2
REMARK VINA RESULT:      -6.5      2.008      2.739
REMARK  Name = 5546
REMARK  1 active torsions:
REMARK  status: ('A' for Active; 'I' for Inactive)
REMARK    1  A    between atoms: C_7  and  C_17
REMARK                            x       y       z     vdW  Elec       q    Type
REMARK                         _______ _______ _______ _____ _____    ______ ____
ROOT
ATOM      1  N   UNL     1     -35.018  22.219   2.118  0.00  0.00    -0.382 NA
ATOM      2  N   UNL     1     -37.559  21.138   1.939  0.00  0.00    -0.320 NA
ATOM      3  N   UNL     1     -38.458  23.060   2.864  0.00  0.00    -0.259 NA
ATOM      4  N   UNL     1     -37.053  24.900   3.494  0.00  0.00    -0.310 NA
ATOM      5  N   UNL     1     -36.650  19.161   0.992  0.00  0.00    -0.330 N 
ATOM      6  N   UNL     1     -39.372  25.008   3.801  0.00  0.00    -0.283 N 
ATOM      7  C   UNL     1     -35.215  20.991   1.615  0.00  0.00    +0.177 C 
ATOM      8  C   UNL     1     -36.105  22.898   2.531  0.00  0.00    +0.261 C 
ATOM      9  C   UNL     1     -37.393  22.365   2.447  0.00  0.00    +0.186 C 
ATOM     10  C   UNL     1     -36.471  20.457   1.527  0.00  0.00    +0.219 C 
ATOM     11  C   UNL     1     -36.009  24.169   3.064  0.00  0.00    +0.232 C 
ATOM     12  C   UNL     1     -38.238  24.290   3.366  0.00  0.00    +0.208 C 
ATOM     13  H   UNL     1     -37.553  18.775   0.928  0.00  0.00    +0.145 HD
ATOM     14  H   UNL     1     -35.870  18.645   0.684  0.00  0.00    +0.145 HD
ATOM     15  H   UNL     1     -40.267  24.605   3.729  0.00  0.00    +0.156 HD
ATOM     16  H   UNL     1     -39.268  25.912   4.177  0.00  0.00    +0.156 HD
ATOM     17  N   UNL     1     -34.718  24.751   3.168  0.00  0.00    -0.329 N 
ATOM     18  H   UNL     1     -34.614  25.654   3.543  0.00  0.00    +0.145 HD
ATOM     19  H   UNL     1     -33.926  24.249   2.865  0.00  0.00    +0.145 HD
ENDROOT
BRANCH   7  20
ATOM     20  C   UNL     1     -34.017  20.308   1.188  0.00  0.00    +0.034 C 
ATOM     21  C   UNL     1     -33.168  20.904   0.254  0.00  0.00    +0.003 C 
ATOM     22  C   UNL     1     -33.704  19.051   1.709  0.00  0.00    +0.003 C 
ATOM     23  C   UNL     1     -32.010  20.244  -0.159  0.00  0.00    +0.000 C 
ATOM     24  C   UNL     1     -32.546  18.391   1.296  0.00  0.00    +0.000 C 
ATOM     25  C   UNL     1     -31.699  18.987   0.362  0.00  0.00    +0.000 C 
ENDBRANCH   7  20
TORSDOF 1
ENDMDL
MODEL 3
REMARK VINA RESULT:      -6.3      2.400      4.250
REMARK  Name = 5546
REMARK  1 active torsions:
REMARK  status: ('A' for Active; 'I' for Inactive)
REMARK    1  A    between atoms: C_7  and  C_17
REMARK                            x       y       z     vdW  Elec       q    Type
REMARK                         _______ _______ _______ _____ _____    ______ ____
ROOT
ATOM      1  N   UNL     1     -34.711  24.358   3.066  0.00  0.00    -0.382 NA
ATOM      2  N   UNL     1     -34.861  24.489   5.826  0.00  0.00    -0.320 NA
ATOM      3  N   UNL     1     -33.644  26.459   5.813  0.00  0.00    -0.259 NA
ATOM      4  N   UNL     1     -32.878  27.422   3.755  0.00  0.00    -0.310 NA
ATOM      5  N   UNL     1     -36.108  22.471   5.853  0.00  0.00    -0.330 N 
ATOM      6  N   UNL     1     -32.410  28.455   5.803  0.00  0.00    -0.283 N 
ATOM      7  C   UNL     1     -35.352  23.414   3.772  0.00  0.00    +0.177 C 
ATOM      8  C   UNL     1     -34.146  25.367   3.757  0.00  0.00    +0.261 C 
ATOM      9  C   UNL     1     -34.213  25.446   5.150  0.00  0.00    +0.186 C 
ATOM     10  C   UNL     1     -35.426  23.479   5.136  0.00  0.00    +0.219 C 
ATOM     11  C   UNL     1     -33.464  26.388   3.125  0.00  0.00    +0.232 C 
ATOM     12  C   UNL     1     -33.006  27.395   5.086  0.00  0.00    +0.208 C 
ATOM     13  H   UNL     1     -36.161  22.516   6.835  0.00  0.00    +0.145 HD
ATOM     14  H   UNL     1     -36.528  21.723   5.370  0.00  0.00    +0.145 HD
ATOM     15  H   UNL     1     -32.475  28.483   6.785  0.00  0.00    +0.156 HD
ATOM     16  H   UNL     1     -31.931  29.167   5.322  0.00  0.00    +0.156 HD
ATOM     17  N   UNL     1     -33.370  26.348   1.709  0.00  0.00    -0.329 N 
ATOM     18  H   UNL     1     -32.891  27.060   1.227  0.00  0.00    +0.145 HD
ATOM     19  H   UNL     1     -33.785  25.608   1.208  0.00  0.00    +0.145 HD
ENDROOT
BRANCH   7  20
ATOM     20  C   UNL     1     -35.938  22.357   2.982  0.00  0.00    +0.034 C 
ATOM     21  C   UNL     1     -37.240  22.487   2.495  0.00  0.00    +0.003 C 
ATOM     22  C   UNL     1     -35.205  21.202   2.703  0.00  0.00    +0.003 C 
ATOM     23  C   UNL     1     -37.807  21.466   1.732  0.00  0.00    +0.000 C 
ATOM     24  C   UNL     1     -35.772  20.181   1.940  0.00  0.00    +0.000 C 
ATOM     25  C   UNL     1     -37.073  20.312   1.454  0.00  0.00    +0.000 C 
ENDBRANCH   7  20
TORSDOF 1
ENDMDL
MODEL 4
REMARK VINA RESULT:      -6.2      3.714      5.926
REMARK  Name = 5546
REMARK  1 active torsions:
REMARK  status: ('A' for Active; 'I' for Inactive)
REMARK    1  A    between atoms: C_7  and  C_17
REMARK                            x       y       z     vdW  Elec       q    Type
REMARK                         _______ _______ _______ _____ _____    ______ ____
ROOT
ATOM      1  N   UNL     1     -33.254  25.615   3.339  0.00  0.00    -0.382 NA
ATOM      2  N   UNL     1     -34.777  27.848   3.934  0.00  0.00    -0.320 NA
ATOM      3  N   UNL     1     -33.221  29.206   2.887  0.00  0.00    -0.259 NA
ATOM      4  N   UNL     1     -31.252  28.277   1.879  0.00  0.00    -0.310 NA
ATOM      5  N   UNL     1     -36.377  26.467   5.012  0.00  0.00    -0.330 N 
ATOM      6  N   UNL     1     -31.646  30.584   1.826  0.00  0.00    -0.283 N 
ATOM      7  C   UNL     1     -34.411  25.507   4.010  0.00  0.00    +0.177 C 
ATOM      8  C   UNL     1     -32.868  26.851   2.970  0.00  0.00    +0.261 C 
ATOM      9  C   UNL     1     -33.626  27.987   3.264  0.00  0.00    +0.186 C 
ATOM     10  C   UNL     1     -35.163  26.611   4.304  0.00  0.00    +0.219 C 
ATOM     11  C   UNL     1     -31.694  27.070   2.276  0.00  0.00    +0.232 C 
ATOM     12  C   UNL     1     -32.058  29.292   2.215  0.00  0.00    +0.208 C 
ATOM     13  H   UNL     1     -36.919  27.260   5.225  0.00  0.00    +0.145 HD
ATOM     14  H   UNL     1     -36.680  25.573   5.292  0.00  0.00    +0.145 HD
ATOM     15  H   UNL     1     -32.202  31.366   2.048  0.00  0.00    +0.156 HD
ATOM     16  H   UNL     1     -30.803  30.705   1.332  0.00  0.00    +0.156 HD
ATOM     17  N   UNL     1     -30.891  25.943   1.956  0.00  0.00    -0.329 N 
ATOM     18  H   UNL     1     -30.049  26.064   1.463  0.00  0.00    +0.145 HD
ATOM     19  H   UNL     1     -31.178  25.041   2.228  0.00  0.00    +0.145 HD
ENDROOT
BRANCH   7  20
ATOM     20  C   UNL     1     -34.776  24.160   4.380  0.00  0.00    +0.034 C 
ATOM     21  C   UNL     1     -35.186  23.252   3.402  0.00  0.00    +0.003 C 
ATOM     22  C   UNL     1     -34.720  23.762   5.717  0.00  0.00    +0.003 C 
ATOM     23  C   UNL     1     -35.539  21.951   3.759  0.00  0.00    +0.000 C 
ATOM     24  C   UNL     1     -35.073  22.460   6.075  0.00  0.00    +0.000 C 
ATOM     25  C   UNL     1     -35.483  21.555   5.096  0.00  0.00    +0.000 C 
ENDBRANCH   7  20
TORSDOF 1
ENDMDL
MODEL 5
REMARK VINA RESULT:      -6.2      2.781      6.464
REMARK  Name = 5546
REMARK  1 active torsions:
REMARK  status: ('A' for Active; 'I' for Inactive)
REMARK    1  A    between atoms: C_7  and  C_17
REMARK                            x       y       z     vdW  Elec       q    Type
REMARK                         _______ _______ _______ _____ _____    ______ ____
ROOT
ATOM      1  N   UNL     1     -34.467  20.242   1.963  0.00  0.00    -0.382 NA
ATOM      2  N   UNL     1     -36.916  19.638   0.824  0.00  0.00    -0.320 NA
ATOM      3  N   UNL     1     -35.881  18.219  -0.685  0.00  0.00    -0.259 NA
ATOM      4  N   UNL     1     -33.503  17.902  -0.649  0.00  0.00    -0.310 NA
ATOM      5  N   UNL     1     -37.989  21.091   2.362  0.00  0.00    -0.330 N 
ATOM      6  N   UNL     1     -34.834  16.780  -2.214  0.00  0.00    -0.283 N 
ATOM      7  C   UNL     1     -35.601  20.793   2.422  0.00  0.00    +0.177 C 
ATOM      8  C   UNL     1     -34.573  19.386   0.929  0.00  0.00    +0.261 C 
ATOM      9  C   UNL     1     -35.802  19.073   0.343  0.00  0.00    +0.186 C 
ATOM     10  C   UNL     1     -36.811  20.495   1.858  0.00  0.00    +0.219 C 
ATOM     11  C   UNL     1     -33.467  18.765   0.383  0.00  0.00    +0.232 C 
ATOM     12  C   UNL     1     -34.732  17.677  -1.129  0.00  0.00    +0.208 C 
ATOM     13  H   UNL     1     -38.860  20.878   1.958  0.00  0.00    +0.145 HD
ATOM     14  H   UNL     1     -37.936  21.720   3.118  0.00  0.00    +0.145 HD
ATOM     15  H   UNL     1     -35.715  16.579  -2.606  0.00  0.00    +0.156 HD
ATOM     16  H   UNL     1     -34.025  16.354  -2.580  0.00  0.00    +0.156 HD
ATOM     17  N   UNL     1     -32.196  19.054   0.947  0.00  0.00    -0.329 N 
ATOM     18  H   UNL     1     -31.388  18.629   0.582  0.00  0.00    +0.145 HD
ATOM     19  H   UNL     1     -32.124  19.681   1.703  0.00  0.00    +0.145 HD
ENDROOT
BRANCH   7  20
ATOM     20  C   UNL     1     -35.430  21.702   3.531  0.00  0.00    +0.034 C 
ATOM     21  C   UNL     1     -35.369  23.078   3.305  0.00  0.00    +0.003 C 
ATOM     22  C   UNL     1     -35.326  21.207   4.833  0.00  0.00    +0.003 C 
ATOM     23  C   UNL     1     -35.203  23.956   4.377  0.00  0.00    +0.000 C 
ATOM     24  C   UNL     1     -35.160  22.085   5.904  0.00  0.00    +0.000 C 
ATOM     25  C   UNL     1     -35.099  23.459   5.677  0.00  0.00    +0.000 C 
ENDBRANCH   7  20
TORSDOF 1
ENDMDL
MODEL 6
REMARK VINA RESULT:      -6.2      3.403      5.158
REMARK  Name = 5546
REMARK  1 active torsions:
REMARK  status: ('A' for Active; 'I' for Inactive)
REMARK    1  A    between atoms: C_7  and  C_17
REMARK                            x       y       z     vdW  Elec       q    Type
REMARK                         _______ _______ _______ _____ _____    ______ ____
ROOT
ATOM      1  N   UNL     1     -36.167  25.568   3.370  0.00  0.00    -0.382 NA
ATOM      2  N   UNL     1     -34.761  24.396   5.447  0.00  0.00    -0.320 NA
ATOM      3  N   UNL     1     -33.388  26.255   5.586  0.00  0.00    -0.259 NA
ATOM      4  N   UNL     1     -33.694  28.128   4.118  0.00  0.00    -0.310 NA
ATOM      5  N   UNL     1     -36.160  22.484   5.314  0.00  0.00    -0.330 N 
ATOM      6  N   UNL     1     -31.995  28.138   5.728  0.00  0.00    -0.283 N 
ATOM      7  C   UNL     1     -36.491  24.348   3.827  0.00  0.00    +0.177 C 
ATOM      8  C   UNL     1     -35.132  26.192   3.964  0.00  0.00    +0.261 C 
ATOM      9  C   UNL     1     -34.413  25.614   5.012  0.00  0.00    +0.186 C 
ATOM     10  C   UNL     1     -35.796  23.769   4.853  0.00  0.00    +0.219 C 
ATOM     11  C   UNL     1     -34.718  27.450   3.568  0.00  0.00    +0.232 C 
ATOM     12  C   UNL     1     -33.079  27.477   5.113  0.00  0.00    +0.208 C 
ATOM     13  H   UNL     1     -35.661  22.066   6.051  0.00  0.00    +0.145 HD
ATOM     14  H   UNL     1     -36.913  22.008   4.895  0.00  0.00    +0.145 HD
ATOM     15  H   UNL     1     -31.508  27.704   6.466  0.00  0.00    +0.156 HD
ATOM     16  H   UNL     1     -31.726  29.034   5.422  0.00  0.00    +0.156 HD
ATOM     17  N   UNL     1     -35.420  28.077   2.506  0.00  0.00    -0.329 N 
ATOM     18  H   UNL     1     -35.152  28.972   2.199  0.00  0.00    +0.145 HD
ATOM     19  H   UNL     1     -36.177  27.615   2.075  0.00  0.00    +0.145 HD
ENDROOT
BRANCH   7  20
ATOM     20  C   UNL     1     -37.607  23.724   3.156  0.00  0.00    +0.034 C 
ATOM     21  C   UNL     1     -37.451  22.474   2.555  0.00  0.00    +0.003 C 
ATOM     22  C   UNL     1     -38.844  24.370   3.107  0.00  0.00    +0.003 C 
ATOM     23  C   UNL     1     -38.529  21.871   1.907  0.00  0.00    +0.000 C 
ATOM     24  C   UNL     1     -39.922  23.767   2.458  0.00  0.00    +0.000 C 
ATOM     25  C   UNL     1     -39.765  22.518   1.858  0.00  0.00    +0.000 C 
ENDBRANCH   7  20
TORSDOF 1
ENDMDL
MODEL 7
REMARK VINA RESULT:      -6.2      3.452      5.469
REMARK  Name = 5546
REMARK  1 active torsions:
REMARK  status: ('A' for Active; 'I' for Inactive)
REMARK    1  A    between atoms: C_7  and  C_17
REMARK                            x       y       z     vdW  Elec       q    Type
REMARK                         _______ _______ _______ _____ _____    ______ ____
ROOT
ATOM      1  N   UNL     1     -35.275  25.640   2.761  0.00  0.00    -0.382 NA
ATOM      2  N   UNL     1     -37.891  26.503   2.496  0.00  0.00    -0.320 NA
ATOM      3  N   UNL     1     -37.192  28.260   1.160  0.00  0.00    -0.259 NA
ATOM      4  N   UNL     1     -34.870  28.565   0.637  0.00  0.00    -0.310 NA
ATOM      5  N   UNL     1     -38.621  24.708   3.864  0.00  0.00    -0.330 N 
ATOM      6  N   UNL     1     -36.485  30.042  -0.194  0.00  0.00    -0.283 N 
ATOM      7  C   UNL     1     -36.285  24.988   3.357  0.00  0.00    +0.177 C 
ATOM      8  C   UNL     1     -35.590  26.728   2.033  0.00  0.00    +0.261 C 
ATOM      9  C   UNL     1     -36.905  27.176   1.890  0.00  0.00    +0.186 C 
ATOM     10  C   UNL     1     -37.578  25.415   3.226  0.00  0.00    +0.219 C 
ATOM     11  C   UNL     1     -34.624  27.470   1.380  0.00  0.00    +0.232 C 
ATOM     12  C   UNL     1     -36.164  28.900   0.571  0.00  0.00    +0.208 C 
ATOM     13  H   UNL     1     -39.551  25.013   3.771  0.00  0.00    +0.145 HD
ATOM     14  H   UNL     1     -38.416  23.909   4.403  0.00  0.00    +0.145 HD
ATOM     15  H   UNL     1     -37.423  30.332  -0.275  0.00  0.00    +0.156 HD
ATOM     16  H   UNL     1     -35.772  30.548  -0.646  0.00  0.00    +0.156 HD
ATOM     17  N   UNL     1     -33.272  27.052   1.497  0.00  0.00    -0.329 N 
ATOM     18  H   UNL     1     -32.560  27.557   1.045  0.00  0.00    +0.145 HD
ATOM     19  H   UNL     1     -33.048  26.255   2.032  0.00  0.00    +0.145 HD
ENDROOT
BRANCH   7  20
ATOM     20  C   UNL     1     -35.892  23.830   4.125  0.00  0.00    +0.034 C 
ATOM     21  C   UNL     1     -35.623  23.954   5.489  0.00  0.00    +0.003 C 
ATOM     22  C   UNL     1     -35.780  22.584   3.505  0.00  0.00    +0.003 C 
ATOM     23  C   UNL     1     -35.243  22.835   6.231  0.00  0.00    +0.000 C 
ATOM     24  C   UNL     1     -35.400  21.465   4.247  0.00  0.00    +0.000 C 
ATOM     25  C   UNL     1     -35.131  21.590   5.610  0.00  0.00    +0.000 C 
ENDBRANCH   7  20
TORSDOF 1
ENDMDL
MODEL 8
REMARK VINA RESULT:      -6.0      1.469      2.507
REMARK  Name = 5546
REMARK  1 active torsions:
REMARK  status: ('A' for Active; 'I' for Inactive)
REMARK    1  A    between atoms: C_7  and  C_17
REMARK                            x       y       z     vdW  Elec       q    Type
REMARK                         _______ _______ _______ _____ _____    ______ ____
ROOT
ATOM      1  N   UNL     1     -34.694  22.900   2.050  0.00  0.00    -0.382 NA
ATOM      2  N   UNL     1     -37.026  22.435   3.467  0.00  0.00    -0.320 NA
ATOM      3  N   UNL     1     -36.836  24.505   4.487  0.00  0.00    -0.259 NA
ATOM      4  N   UNL     1     -35.002  25.965   3.982  0.00  0.00    -0.310 NA
ATOM      5  N   UNL     1     -37.231  20.310   2.430  0.00  0.00    -0.330 N 
ATOM      6  N   UNL     1     -36.646  26.602   5.522  0.00  0.00    -0.283 N 
ATOM      7  C   UNL     1     -35.379  21.755   1.904  0.00  0.00    +0.177 C 
ATOM      8  C   UNL     1     -35.190  23.807   2.913  0.00  0.00    +0.261 C 
ATOM      9  C   UNL     1     -36.365  23.587   3.635  0.00  0.00    +0.186 C 
ATOM     10  C   UNL     1     -36.531  21.525   2.604  0.00  0.00    +0.219 C 
ATOM     11  C   UNL     1     -34.561  25.017   3.136  0.00  0.00    +0.232 C 
ATOM     12  C   UNL     1     -36.135  25.646   4.619  0.00  0.00    +0.208 C 
ATOM     13  H   UNL     1     -38.060  20.144   2.934  0.00  0.00    +0.145 HD
ATOM     14  H   UNL     1     -36.888  19.632   1.805  0.00  0.00    +0.145 HD
ATOM     15  H   UNL     1     -37.477  26.417   6.017  0.00  0.00    +0.156 HD
ATOM     16  H   UNL     1     -36.173  27.455   5.657  0.00  0.00    +0.156 HD
ATOM     17  N   UNL     1     -33.362  25.285   2.423  0.00  0.00    -0.329 N 
ATOM     18  H   UNL     1     -32.889  26.136   2.557  0.00  0.00    +0.145 HD
ATOM     19  H   UNL     1     -33.005  24.617   1.793  0.00  0.00    +0.145 HD
ENDROOT
BRANCH   7  20
ATOM     20  C   UNL     1     -34.804  20.818   0.968  0.00  0.00    +0.034 C 
ATOM     21  C   UNL     1     -35.082  20.932  -0.396  0.00  0.00    +0.003 C 
ATOM     22  C   UNL     1     -33.970  19.795   1.423  0.00  0.00    +0.003 C 
ATOM     23  C   UNL     1     -34.527  20.027  -1.301  0.00  0.00    +0.000 C 
ATOM     24  C   UNL     1     -33.414  18.890   0.518  0.00  0.00    +0.000 C 
ATOM     25  C   UNL     1     -33.693  19.005  -0.844  0.00  0.00    +0.000 C 
ENDBRANCH   7  20
TORSDOF 1
ENDMDL
MODEL 9
REMARK VINA RESULT:      -6.0      2.520      3.498
REMARK  Name = 5546
REMARK  1 active torsions:
REMARK  status: ('A' for Active; 'I' for Inactive)
REMARK    1  A    between atoms: C_7  and  C_17
REMARK                            x       y       z     vdW  Elec       q    Type
REMARK                         _______ _______ _______ _____ _____    ______ ____
ROOT
ATOM      1  N   UNL     1     -34.986  20.950   1.799  0.00  0.00    -0.382 NA
ATOM      2  N   UNL     1     -37.058  19.984   0.239  0.00  0.00    -0.320 NA
ATOM      3  N   UNL     1     -38.543  21.405   1.305  0.00  0.00    -0.259 NA
ATOM      4  N   UNL     1     -37.802  22.890   3.037  0.00  0.00    -0.310 NA
ATOM      5  N   UNL     1     -35.547  18.521  -0.859  0.00  0.00    -0.330 N 
ATOM      6  N   UNL     1     -40.049  22.845   2.384  0.00  0.00    -0.283 N 
ATOM      7  C   UNL     1     -34.775  20.000   0.875  0.00  0.00    +0.177 C 
ATOM      8  C   UNL     1     -36.245  21.410   1.932  0.00  0.00    +0.261 C 
ATOM      9  C   UNL     1     -37.300  20.932   1.153  0.00  0.00    +0.186 C 
ATOM     10  C   UNL     1     -35.799  19.522   0.106  0.00  0.00    +0.219 C 
ATOM     11  C   UNL     1     -36.567  22.388   2.854  0.00  0.00    +0.232 C 
ATOM     12  C   UNL     1     -38.733  22.358   2.237  0.00  0.00    +0.208 C 
ATOM     13  H   UNL     1     -36.283  18.176  -1.414  0.00  0.00    +0.145 HD
ATOM     14  H   UNL     1     -34.635  18.169  -0.975  0.00  0.00    +0.145 HD
ATOM     15  H   UNL     1     -40.773  22.488   1.819  0.00  0.00    +0.156 HD
ATOM     16  H   UNL     1     -40.245  23.543   3.050  0.00  0.00    +0.156 HD
ATOM     17  N   UNL     1     -35.525  22.904   3.668  0.00  0.00    -0.329 N 
ATOM     18  H   UNL     1     -35.720  23.601   4.334  0.00  0.00    +0.145 HD
ATOM     19  H   UNL     1     -34.606  22.564   3.566  0.00  0.00    +0.145 HD
ENDROOT
BRANCH   7  20
ATOM     20  C   UNL     1     -33.409  19.543   0.774  0.00  0.00    +0.034 C 
ATOM     21  C   UNL     1     -32.477  20.282   0.044  0.00  0.00    +0.003 C 
ATOM     22  C   UNL     1     -33.017  18.362   1.407  0.00  0.00    +0.003 C 
ATOM     23  C   UNL     1     -31.157  19.840  -0.055  0.00  0.00    +0.000 C 
ATOM     24  C   UNL     1     -31.697  17.920   1.309  0.00  0.00    +0.000 C 
ATOM     25  C   UNL     1     -30.767  18.659   0.578  0.00  0.00    +0.000 C 
ENDBRANCH   7  20
TORSDOF 1
ENDMDL
