MODEL 1
REMARK VINA RESULT:      -5.3      0.000      0.000
REMARK  Name = 2046
REMARK  5 active torsions:
REMARK  status: ('A' for Active; 'I' for Inactive)
REMARK    1  A    between atoms: C_1  and  C_12
REMARK    2  A    between atoms: C_2  and  N_9
REMARK    3  A    between atoms: C_3  and  O_10
REMARK    4  A    between atoms: C_13  and  C_15
REMARK    5  A    between atoms: C_13  and  C_17
REMARK                            x       y       z     vdW  Elec       q    Type
REMARK                         _______ _______ _______ _____ _____    ______ ____
ROOT
ATOM      1  C   UNL     1     -37.135  24.385   3.492  0.00  0.00    +0.004 C 
ATOM      2  C   UNL     1     -39.136  22.865   2.280  0.00  0.00    +0.176 C 
ATOM      3  C   UNL     1     -37.880  22.305   2.515  0.00  0.00    +0.156 C 
ATOM      4  C   UNL     1     -36.879  23.065   3.121  0.00  0.00    +0.038 C 
ATOM      5  C   UNL     1     -38.391  24.945   3.257  0.00  0.00    +0.002 C 
ATOM      6  C   UNL     1     -39.391  24.185   2.651  0.00  0.00    +0.027 C 
ENDROOT
BRANCH   2   9
ATOM      7  O   UNL     1     -40.736  22.567   0.647  0.00  0.00    -0.126 OA
ATOM      8  O   UNL     1     -40.478  20.993   2.155  0.00  0.00    -0.126 OA
ATOM      9  N   UNL     1     -40.167  22.103   1.664  0.00  0.00    +0.061 N 
ENDBRANCH   2   9
BRANCH   3  10
ATOM     10  O   UNL     1     -37.607  21.016   2.162  0.00  0.00    -0.504 OA
ATOM     11  H   UNL     1     -38.057  20.310   2.582  0.00  0.00    +0.292 HD
ENDBRANCH   3  10
BRANCH   1  12
ATOM     12  C   UNL     1     -36.093  25.178   4.124  0.00  0.00    +0.021 C 
ATOM     13  C   UNL     1     -35.327  24.815   5.182  0.00  0.00    +0.136 C 
BRANCH  13  15
ATOM     14  N   UNL     1     -33.551  26.470   6.080  0.00  0.00    -0.190 NA
ATOM     15  C   UNL     1     -34.348  25.729   5.678  0.00  0.00    +0.111 C 
ENDBRANCH  13  15
BRANCH  13  17
ATOM     16  N   UNL     1     -35.630  22.526   6.351  0.00  0.00    -0.190 NA
ATOM     17  C   UNL     1     -35.493  23.552   5.826  0.00  0.00    +0.111 C 
ENDBRANCH  13  17
ENDBRANCH   1  12
TORSDOF 5
ENDMDL
MODEL 2
REMARK VINA RESULT:      -5.2      1.816      2.474
REMARK  Name = 2046
REMARK  5 active torsions:
REMARK  status: ('A' for Active; 'I' for Inactive)
REMARK    1  A    between atoms: C_1  and  C_12
REMARK    2  A    between atoms: C_2  and  N_9
REMARK    3  A    between atoms: C_3  and  O_10
REMARK    4  A    between atoms: C_13  and  C_15
REMARK    5  A    between atoms: C_13  and  C_17
REMARK                            x       y       z     vdW  Elec       q    Type
REMARK                         _______ _______ _______ _____ _____    ______ ____
ROOT
ATOM      1  C   UNL     1     -35.863  24.252   4.649  0.00  0.00    +0.004 C 
ATOM      2  C   UNL     1     -37.347  22.620   2.941  0.00  0.00    +0.176 C 
ATOM      3  C   UNL     1     -36.244  22.100   3.619  0.00  0.00    +0.156 C 
ATOM      4  C   UNL     1     -35.502  22.916   4.472  0.00  0.00    +0.038 C 
ATOM      5  C   UNL     1     -36.966  24.772   3.970  0.00  0.00    +0.002 C 
ATOM      6  C   UNL     1     -37.708  23.956   3.117  0.00  0.00    +0.027 C 
ENDROOT
BRANCH   2   9
ATOM      7  O   UNL     1     -37.526  21.166   1.160  0.00  0.00    -0.126 OA
ATOM      8  O   UNL     1     -39.357  21.740   2.227  0.00  0.00    -0.126 OA
ATOM      9  N   UNL     1     -38.115  21.801   2.067  0.00  0.00    +0.061 N 
ENDBRANCH   2   9
BRANCH   3  10
ATOM     10  O   UNL     1     -35.873  20.797   3.463  0.00  0.00    -0.504 OA
ATOM     11  H   UNL     1     -35.619  20.480   2.619  0.00  0.00    +0.292 HD
ENDBRANCH   3  10
BRANCH   1  12
ATOM     12  C   UNL     1     -35.090  25.103   5.539  0.00  0.00    +0.021 C 
ATOM     13  C   UNL     1     -34.041  25.891   5.198  0.00  0.00    +0.136 C 
BRANCH  13  15
ATOM     14  N   UNL     1     -32.865  27.288   7.033  0.00  0.00    -0.190 NA
ATOM     15  C   UNL     1     -33.393  26.662   6.212  0.00  0.00    +0.111 C 
ENDBRANCH  13  15
BRANCH  13  17
ATOM     16  N   UNL     1     -33.159  25.996   2.767  0.00  0.00    -0.190 NA
ATOM     17  C   UNL     1     -33.555  25.950   3.858  0.00  0.00    +0.111 C 
ENDBRANCH  13  17
ENDBRANCH   1  12
TORSDOF 5
ENDMDL
MODEL 3
REMARK VINA RESULT:      -5.2      3.927      6.489
REMARK  Name = 2046
REMARK  5 active torsions:
REMARK  status: ('A' for Active; 'I' for Inactive)
REMARK    1  A    between atoms: C_1  and  C_12
REMARK    2  A    between atoms: C_2  and  N_9
REMARK    3  A    between atoms: C_3  and  O_10
REMARK    4  A    between atoms: C_13  and  C_15
REMARK    5  A    between atoms: C_13  and  C_17
REMARK                            x       y       z     vdW  Elec       q    Type
REMARK                         _______ _______ _______ _____ _____    ______ ____
ROOT
ATOM      1  C   UNL     1     -36.084  24.420   3.947  0.00  0.00    +0.004 C 
ATOM      2  C   UNL     1     -34.174  26.148   5.019  0.00  0.00    +0.176 C 
ATOM      3  C   UNL     1     -33.927  25.500   3.809  0.00  0.00    +0.156 C 
ATOM      4  C   UNL     1     -34.882  24.636   3.273  0.00  0.00    +0.038 C 
ATOM      5  C   UNL     1     -36.330  25.068   5.158  0.00  0.00    +0.002 C 
ATOM      6  C   UNL     1     -35.376  25.932   5.694  0.00  0.00    +0.027 C 
ENDROOT
BRANCH   2   9
ATOM      7  O   UNL     1     -32.896  28.066   4.942  0.00  0.00    -0.126 OA
ATOM      8  O   UNL     1     -32.705  26.753   6.691  0.00  0.00    -0.126 OA
ATOM      9  N   UNL     1     -33.211  27.033   5.579  0.00  0.00    +0.061 N 
ENDBRANCH   2   9
BRANCH   3  10
ATOM     10  O   UNL     1     -32.760  25.696   3.131  0.00  0.00    -0.504 OA
ATOM     11  H   UNL     1     -32.775  25.852   2.208  0.00  0.00    +0.292 HD
ENDBRANCH   3  10
BRANCH   1  12
ATOM     12  C   UNL     1     -37.080  23.520   3.389  0.00  0.00    +0.021 C 
ATOM     13  C   UNL     1     -38.257  23.869   2.815  0.00  0.00    +0.136 C 
BRANCH  13  15
ATOM     14  N   UNL     1     -39.823  22.010   1.923  0.00  0.00    -0.190 NA
ATOM     15  C   UNL     1     -39.121  22.843   2.322  0.00  0.00    +0.111 C 
ENDBRANCH  13  15
BRANCH  13  17
ATOM     16  N   UNL     1     -38.993  26.343   2.633  0.00  0.00    -0.190 NA
ATOM     17  C   UNL     1     -38.663  25.233   2.713  0.00  0.00    +0.111 C 
ENDBRANCH  13  17
ENDBRANCH   1  12
TORSDOF 5
ENDMDL
MODEL 4
REMARK VINA RESULT:      -5.2      1.914      2.737
REMARK  Name = 2046
REMARK  5 active torsions:
REMARK  status: ('A' for Active; 'I' for Inactive)
REMARK    1  A    between atoms: C_1  and  C_12
REMARK    2  A    between atoms: C_2  and  N_9
REMARK    3  A    between atoms: C_3  and  O_10
REMARK    4  A    between atoms: C_13  and  C_15
REMARK    5  A    between atoms: C_13  and  C_17
REMARK                            x       y       z     vdW  Elec       q    Type
REMARK                         _______ _______ _______ _____ _____    ______ ____
ROOT
ATOM      1  C   UNL     1     -35.788  23.041   2.763  0.00  0.00    +0.004 C 
ATOM      2  C   UNL     1     -36.759  20.907   1.251  0.00  0.00    +0.176 C 
ATOM      3  C   UNL     1     -37.600  21.566   2.148  0.00  0.00    +0.156 C 
ATOM      4  C   UNL     1     -37.114  22.633   2.904  0.00  0.00    +0.038 C 
ATOM      5  C   UNL     1     -34.947  22.382   1.866  0.00  0.00    +0.002 C 
ATOM      6  C   UNL     1     -35.432  21.315   1.110  0.00  0.00    +0.027 C 
ENDROOT
BRANCH   2   9
ATOM      7  O   UNL     1     -38.358  19.916  -0.083  0.00  0.00    -0.126 OA
ATOM      8  O   UNL     1     -36.528  18.790   0.364  0.00  0.00    -0.126 OA
ATOM      9  N   UNL     1     -37.238  19.817   0.472  0.00  0.00    +0.061 N 
ENDBRANCH   2   9
BRANCH   3  10
ATOM     10  O   UNL     1     -38.900  21.185   2.302  0.00  0.00    -0.504 OA
ATOM     11  H   UNL     1     -39.529  21.383   1.637  0.00  0.00    +0.292 HD
ENDBRANCH   3  10
BRANCH   1  12
ATOM     12  C   UNL     1     -35.282  24.153   3.550  0.00  0.00    +0.021 C 
ATOM     13  C   UNL     1     -35.113  24.184   4.895  0.00  0.00    +0.136 C 
BRANCH  13  15
ATOM     14  N   UNL     1     -34.190  26.336   5.998  0.00  0.00    -0.190 NA
ATOM     15  C   UNL     1     -34.604  25.371   5.505  0.00  0.00    +0.111 C 
ENDBRANCH  13  15
BRANCH  13  17
ATOM     16  N   UNL     1     -35.732  22.160   6.385  0.00  0.00    -0.190 NA
ATOM     17  C   UNL     1     -35.453  23.067   5.716  0.00  0.00    +0.111 C 
ENDBRANCH  13  17
ENDBRANCH   1  12
TORSDOF 5
ENDMDL
MODEL 5
REMARK VINA RESULT:      -5.1      3.809      6.370
REMARK  Name = 2046
REMARK  5 active torsions:
REMARK  status: ('A' for Active; 'I' for Inactive)
REMARK    1  A    between atoms: C_1  and  C_12
REMARK    2  A    between atoms: C_2  and  N_9
REMARK    3  A    between atoms: C_3  and  O_10
REMARK    4  A    between atoms: C_13  and  C_15
REMARK    5  A    between atoms: C_13  and  C_17
REMARK                            x       y       z     vdW  Elec       q    Type
REMARK                         _______ _______ _______ _____ _____    ______ ____
ROOT
ATOM      1  C   UNL     1     -36.717  24.557   3.949  0.00  0.00    +0.004 C 
ATOM      2  C   UNL     1     -34.550  25.972   4.992  0.00  0.00    +0.176 C 
ATOM      3  C   UNL     1     -35.405  26.582   4.074  0.00  0.00    +0.156 C 
ATOM      4  C   UNL     1     -36.489  25.875   3.553  0.00  0.00    +0.038 C 
ATOM      5  C   UNL     1     -35.861  23.946   4.866  0.00  0.00    +0.002 C 
ATOM      6  C   UNL     1     -34.778  24.653   5.387  0.00  0.00    +0.027 C 
ENDROOT
BRANCH   2   9
ATOM      7  O   UNL     1     -32.568  27.125   4.752  0.00  0.00    -0.126 OA
ATOM      8  O   UNL     1     -33.367  26.833   6.775  0.00  0.00    -0.126 OA
ATOM      9  N   UNL     1     -33.441  26.678   5.534  0.00  0.00    +0.061 N 
ENDBRANCH   2   9
BRANCH   3  10
ATOM     10  O   UNL     1     -35.202  27.870   3.674  0.00  0.00    -0.504 OA
ATOM     11  H   UNL     1     -35.885  28.337   3.234  0.00  0.00    +0.292 HD
ENDBRANCH   3  10
BRANCH   1  12
ATOM     12  C   UNL     1     -37.846  23.820   3.406  0.00  0.00    +0.021 C 
ATOM     13  C   UNL     1     -37.792  22.730   2.603  0.00  0.00    +0.136 C 
BRANCH  13  15
ATOM     14  N   UNL     1     -40.002  21.649   1.796  0.00  0.00    -0.190 NA
ATOM     15  C   UNL     1     -39.011  22.133   2.157  0.00  0.00    +0.111 C 
ENDBRANCH  13  15
BRANCH  13  17
ATOM     16  N   UNL     1     -35.533  21.731   1.828  0.00  0.00    -0.190 NA
ATOM     17  C   UNL     1     -36.547  22.179   2.174  0.00  0.00    +0.111 C 
ENDBRANCH  13  17
ENDBRANCH   1  12
TORSDOF 5
ENDMDL
MODEL 6
REMARK VINA RESULT:      -5.1      3.552      6.445
REMARK  Name = 2046
REMARK  5 active torsions:
REMARK  status: ('A' for Active; 'I' for Inactive)
REMARK    1  A    between atoms: C_1  and  C_12
REMARK    2  A    between atoms: C_2  and  N_9
REMARK    3  A    between atoms: C_3  and  O_10
REMARK    4  A    between atoms: C_13  and  C_15
REMARK    5  A    between atoms: C_13  and  C_17
REMARK                            x       y       z     vdW  Elec       q    Type
REMARK                         _______ _______ _______ _____ _____    ______ ____
ROOT
ATOM      1  C   UNL     1     -36.715  23.677   3.390  0.00  0.00    +0.004 C 
ATOM      2  C   UNL     1     -34.768  25.428   4.352  0.00  0.00    +0.176 C 
ATOM      3  C   UNL     1     -36.111  25.637   4.666  0.00  0.00    +0.156 C 
ATOM      4  C   UNL     1     -37.084  24.762   4.185  0.00  0.00    +0.038 C 
ATOM      5  C   UNL     1     -35.372  23.468   3.075  0.00  0.00    +0.002 C 
ATOM      6  C   UNL     1     -34.398  24.344   3.556  0.00  0.00    +0.027 C 
ENDROOT
BRANCH   2   9
ATOM      7  O   UNL     1     -33.815  26.694   6.028  0.00  0.00    -0.126 OA
ATOM      8  O   UNL     1     -32.855  26.683   4.053  0.00  0.00    -0.126 OA
ATOM      9  N   UNL     1     -33.762  26.311   4.835  0.00  0.00    +0.061 N 
ENDBRANCH   2   9
BRANCH   3  10
ATOM     10  O   UNL     1     -36.495  26.690   5.443  0.00  0.00    -0.504 OA
ATOM     11  H   UNL     1     -36.464  27.561   5.101  0.00  0.00    +0.292 HD
ENDBRANCH   3  10
BRANCH   1  12
ATOM     12  C   UNL     1     -37.729  22.764   2.889  0.00  0.00    +0.021 C 
ATOM     13  C   UNL     1     -38.534  22.957   1.816  0.00  0.00    +0.136 C 
BRANCH  13  15
ATOM     14  N   UNL     1     -40.255  21.127   1.188  0.00  0.00    -0.190 NA
ATOM     15  C   UNL     1     -39.484  21.948   1.468  0.00  0.00    +0.111 C 
ENDBRANCH  13  15
BRANCH  13  17
ATOM     16  N   UNL     1     -38.422  25.126   0.407  0.00  0.00    -0.190 NA
ATOM     17  C   UNL     1     -38.472  24.154   1.040  0.00  0.00    +0.111 C 
ENDBRANCH  13  17
ENDBRANCH   1  12
TORSDOF 5
ENDMDL
MODEL 7
REMARK VINA RESULT:      -5.0      2.665      4.289
REMARK  Name = 2046
REMARK  5 active torsions:
REMARK  status: ('A' for Active; 'I' for Inactive)
REMARK    1  A    between atoms: C_1  and  C_12
REMARK    2  A    between atoms: C_2  and  N_9
REMARK    3  A    between atoms: C_3  and  O_10
REMARK    4  A    between atoms: C_13  and  C_15
REMARK    5  A    between atoms: C_13  and  C_17
REMARK                            x       y       z     vdW  Elec       q    Type
REMARK                         _______ _______ _______ _____ _____    ______ ____
ROOT
ATOM      1  C   UNL     1     -34.502  25.756   5.256  0.00  0.00    +0.004 C 
ATOM      2  C   UNL     1     -36.315  24.076   3.963  0.00  0.00    +0.176 C 
ATOM      3  C   UNL     1     -36.695  25.370   4.318  0.00  0.00    +0.156 C 
ATOM      4  C   UNL     1     -35.788  26.211   4.965  0.00  0.00    +0.038 C 
ATOM      5  C   UNL     1     -34.123  24.461   4.902  0.00  0.00    +0.002 C 
ATOM      6  C   UNL     1     -35.029  23.621   4.255  0.00  0.00    +0.027 C 
ENDROOT
BRANCH   2   9
ATOM      7  O   UNL     1     -38.440  23.520   3.261  0.00  0.00    -0.126 OA
ATOM      8  O   UNL     1     -36.792  22.151   2.784  0.00  0.00    -0.126 OA
ATOM      9  N   UNL     1     -37.227  23.206   3.303  0.00  0.00    +0.061 N 
ENDBRANCH   2   9
BRANCH   3  10
ATOM     10  O   UNL     1     -37.946  25.837   4.042  0.00  0.00    -0.504 OA
ATOM     11  H   UNL     1     -38.698  25.349   4.314  0.00  0.00    +0.292 HD
ENDBRANCH   3  10
BRANCH   1  12
ATOM     12  C   UNL     1     -33.557  26.632   5.930  0.00  0.00    +0.021 C 
ATOM     13  C   UNL     1     -32.762  27.565   5.351  0.00  0.00    +0.136 C 
BRANCH  13  15
ATOM     14  N   UNL     1     -31.173  28.965   6.840  0.00  0.00    -0.190 NA
ATOM     15  C   UNL     1     -31.885  28.337   6.173  0.00  0.00    +0.111 C 
ENDBRANCH  13  15
BRANCH  13  17
ATOM     16  N   UNL     1     -32.768  27.955   2.793  0.00  0.00    -0.190 NA
ATOM     17  C   UNL     1     -32.766  27.779   3.940  0.00  0.00    +0.111 C 
ENDBRANCH  13  17
ENDBRANCH   1  12
TORSDOF 5
ENDMDL
MODEL 8
REMARK VINA RESULT:      -4.9      3.709      6.240
REMARK  Name = 2046
REMARK  5 active torsions:
REMARK  status: ('A' for Active; 'I' for Inactive)
REMARK    1  A    between atoms: C_1  and  C_12
REMARK    2  A    between atoms: C_2  and  N_9
REMARK    3  A    between atoms: C_3  and  O_10
REMARK    4  A    between atoms: C_13  and  C_15
REMARK    5  A    between atoms: C_13  and  C_17
REMARK                            x       y       z     vdW  Elec       q    Type
REMARK                         _______ _______ _______ _____ _____    ______ ____
ROOT
ATOM      1  C   UNL     1     -36.184  24.174   2.828  0.00  0.00    +0.004 C 
ATOM      2  C   UNL     1     -34.637  25.890   4.391  0.00  0.00    +0.176 C 
ATOM      3  C   UNL     1     -36.011  25.792   4.613  0.00  0.00    +0.156 C 
ATOM      4  C   UNL     1     -36.784  24.935   3.831  0.00  0.00    +0.038 C 
ATOM      5  C   UNL     1     -34.810  24.273   2.605  0.00  0.00    +0.002 C 
ATOM      6  C   UNL     1     -34.037  25.130   3.387  0.00  0.00    +0.027 C 
ENDROOT
BRANCH   2   9
ATOM      7  O   UNL     1     -33.705  26.521   6.404  0.00  0.00    -0.126 OA
ATOM      8  O   UNL     1     -33.278  27.739   4.629  0.00  0.00    -0.126 OA
ATOM      9  N   UNL     1     -33.833  26.760   5.180  0.00  0.00    +0.061 N 
ENDBRANCH   2   9
BRANCH   3  10
ATOM     10  O   UNL     1     -36.619  26.525   5.590  0.00  0.00    -0.504 OA
ATOM     11  H   UNL     1     -36.213  26.617   6.428  0.00  0.00    +0.292 HD
ENDBRANCH   3  10
BRANCH   1  12
ATOM     12  C   UNL     1     -36.990  23.280   2.012  0.00  0.00    +0.021 C 
ATOM     13  C   UNL     1     -36.932  21.926   1.995  0.00  0.00    +0.136 C 
BRANCH  13  15
ATOM     14  N   UNL     1     -38.507  20.619   0.410  0.00  0.00    -0.190 NA
ATOM     15  C   UNL     1     -37.802  21.204   1.122  0.00  0.00    +0.111 C 
ENDBRANCH  13  15
BRANCH  13  17
ATOM     16  N   UNL     1     -35.255  20.625   3.475  0.00  0.00    -0.190 NA
ATOM     17  C   UNL     1     -36.008  21.207   2.812  0.00  0.00    +0.111 C 
ENDBRANCH  13  17
ENDBRANCH   1  12
TORSDOF 5
ENDMDL
MODEL 9
REMARK VINA RESULT:      -4.8      4.079      5.205
REMARK  Name = 2046
REMARK  5 active torsions:
REMARK  status: ('A' for Active; 'I' for Inactive)
REMARK    1  A    between atoms: C_1  and  C_12
REMARK    2  A    between atoms: C_2  and  N_9
REMARK    3  A    between atoms: C_3  and  O_10
REMARK    4  A    between atoms: C_13  and  C_15
REMARK    5  A    between atoms: C_13  and  C_17
REMARK                            x       y       z     vdW  Elec       q    Type
REMARK                         _______ _______ _______ _____ _____    ______ ____
ROOT
ATOM      1  C   UNL     1     -35.937  21.406   2.629  0.00  0.00    +0.004 C 
ATOM      2  C   UNL     1     -37.570  23.624   3.076  0.00  0.00    +0.176 C 
ATOM      3  C   UNL     1     -36.390  23.469   3.803  0.00  0.00    +0.156 C 
ATOM      4  C   UNL     1     -35.573  22.360   3.579  0.00  0.00    +0.038 C 
ATOM      5  C   UNL     1     -37.119  21.560   1.903  0.00  0.00    +0.002 C 
ATOM      6  C   UNL     1     -37.935  22.669   2.126  0.00  0.00    +0.027 C 
ENDROOT
BRANCH   2   9
ATOM      7  O   UNL     1     -39.580  24.558   3.713  0.00  0.00    -0.126 OA
ATOM      8  O   UNL     1     -37.969  25.895   3.051  0.00  0.00    -0.126 OA
ATOM      9  N   UNL     1     -38.414  24.748   3.291  0.00  0.00    +0.061 N 
ENDBRANCH   2   9
BRANCH   3  10
ATOM     10  O   UNL     1     -36.013  24.389   4.736  0.00  0.00    -0.504 OA
ATOM     11  H   UNL     1     -35.394  24.157   5.400  0.00  0.00    +0.292 HD
ENDBRANCH   3  10
BRANCH   1  12
ATOM     12  C   UNL     1     -35.087  20.251   2.395  0.00  0.00    +0.021 C 
ATOM     13  C   UNL     1     -34.127  20.129   1.446  0.00  0.00    +0.136 C 
BRANCH  13  15
ATOM     14  N   UNL     1     -32.787  17.920   1.287  0.00  0.00    -0.190 NA
ATOM     15  C   UNL     1     -33.386  18.911   1.358  0.00  0.00    +0.111 C 
ENDBRANCH  13  15
BRANCH  13  17
ATOM     16  N   UNL     1     -33.633  22.033  -0.236  0.00  0.00    -0.190 NA
ATOM     17  C   UNL     1     -33.856  21.180   0.519  0.00  0.00    +0.111 C 
ENDBRANCH  13  17
ENDBRANCH   1  12
TORSDOF 5
ENDMDL
