MODEL 1
REMARK VINA RESULT:      -7.8      0.000      0.000
REMARK  Name = 5489408
REMARK  9 active torsions:
REMARK  status: ('A' for Active; 'I' for Inactive)
REMARK    1  A    between atoms: CA_4  and  C_34
REMARK    2  A    between atoms: CA_9  and  N_17
REMARK    3  A    between atoms: N_17  and  CA_20
REMARK    4  A    between atoms: CA_20  and  C_22
REMARK    5  A    between atoms: CA_20  and  C_25
REMARK    6  A    between atoms: C_22  and  O_23
REMARK    7  A    between atoms: C_25  and  C_26
REMARK    8  A    between atoms: C_26  and  C_27
REMARK    9  A    between atoms: C_34  and  O_35
REMARK                            x       y       z     vdW  Elec       q    Type
REMARK                         _______ _______ _______ _____ _____    ______ ____
ROOT
ATOM      1  O   UNL     1     -35.112  20.733   3.821  0.00  0.00    -0.277 OA
ATOM      2  N   UNL     1     -35.345  22.956   3.179  0.00  0.00    -0.271 N 
ATOM      3  C   UNL     1     -35.848  23.935   2.186  0.00  0.00    +0.098 C 
ATOM      4  CA  UNL     1     -34.758  23.447   4.433  0.00  0.00    +0.175 C 
ATOM      5  C   UNL     1     -34.909  25.155   2.068  0.00  0.00    +0.024 C 
ATOM      6  C   UNL     1     -33.871  24.675   4.281  0.00  0.00    +0.031 C 
ATOM      7  C   UNL     1     -34.503  25.749   3.408  0.00  0.00    +0.004 C 
ATOM      8  C   UNL     1     -37.344  24.173   2.360  0.00  0.00    -0.008 C 
ATOM      9  CA  UNL     1     -36.481  21.184   1.886  0.00  0.00    +0.022 C 
ATOM     10  C   UNL     1     -35.567  21.576   3.044  0.00  0.00    +0.206 C 
ATOM     11  C   UNL     1     -37.922  21.623   2.171  0.00  0.00    +0.014 C 
ATOM     12  C   UNL     1     -38.265  23.097   2.328  0.00  0.00    -0.026 C 
ATOM     13  C   UNL     1     -37.854  25.476   2.526  0.00  0.00    -0.003 C 
ATOM     14  C   UNL     1     -39.643  23.371   2.481  0.00  0.00    -0.005 C 
ATOM     15  C   UNL     1     -39.220  25.722   2.672  0.00  0.00    -0.000 C 
ATOM     16  C   UNL     1     -40.117  24.667   2.652  0.00  0.00    -0.000 C 
ENDROOT
BRANCH   9  17
ATOM     17  N   UNL     1     -36.425  19.722   1.749  0.00  0.00    +0.399 N 
ATOM     18  H1  UNL     1     -37.310  19.322   2.057  0.00  0.00    -0.083 HD
ATOM     19  H2  UNL     1     -35.659  19.366   2.321  0.00  0.00    -0.083 HD
BRANCH  17  20
ATOM     20  CA  UNL     1     -36.187  19.350   0.365  0.00  0.00    +0.041 C 
BRANCH  20  22
ATOM     21  OXT UNL     1     -38.279  18.850  -0.776  0.00  0.00    -0.253 OA
ATOM     22  C   UNL     1     -37.353  18.477  -0.066  0.00  0.00    +0.293 C 
BRANCH  22  23
ATOM     23  O   UNL     1     -37.254  17.208   0.404  0.00  0.00    -0.482 OA
ATOM     24  H   UNL     1     -36.441  16.900   0.753  0.00  0.00    +0.295 HD
ENDBRANCH  22  23
ENDBRANCH  20  22
BRANCH  20  25
ATOM     25  C   UNL     1     -34.859  18.588   0.267  0.00  0.00    -0.006 C 
BRANCH  25  26
ATOM     26  C   UNL     1     -33.804  19.009   1.302  0.00  0.00    +0.025 C 
BRANCH  26  27
ATOM     27  C   UNL     1     -32.391  19.048   0.775  0.00  0.00    -0.022 C 
ATOM     28  C   UNL     1     -31.964  20.153   0.055  0.00  0.00    -0.004 C 
ATOM     29  C   UNL     1     -31.544  17.978   1.019  0.00  0.00    -0.004 C 
ATOM     30  C   UNL     1     -30.657  20.189  -0.433  0.00  0.00    -0.000 C 
ATOM     31  C   UNL     1     -30.237  18.014   0.532  0.00  0.00    -0.000 C 
ATOM     32  C   UNL     1     -29.794  19.119  -0.193  0.00  0.00    -0.000 C 
ENDBRANCH  26  27
ENDBRANCH  25  26
ENDBRANCH  20  25
ENDBRANCH  17  20
ENDBRANCH   9  17
BRANCH   4  34
ATOM     33  OXT UNL     1     -36.452  24.770   5.547  0.00  0.00    -0.248 OA
ATOM     34  C   UNL     1     -35.901  23.692   5.376  0.00  0.00    +0.332 C 
BRANCH  34  35
ATOM     35  O   UNL     1     -36.244  22.549   6.019  0.00  0.00    -0.479 OA
ATOM     36  H   UNL     1     -36.695  21.869   5.558  0.00  0.00    +0.295 HD
ENDBRANCH  34  35
ENDBRANCH   4  34
TORSDOF 9
ENDMDL
MODEL 2
REMARK VINA RESULT:      -7.6      3.561      7.821
REMARK  Name = 5489408
REMARK  9 active torsions:
REMARK  status: ('A' for Active; 'I' for Inactive)
REMARK    1  A    between atoms: CA_4  and  C_34
REMARK    2  A    between atoms: CA_9  and  N_17
REMARK    3  A    between atoms: N_17  and  CA_20
REMARK    4  A    between atoms: CA_20  and  C_22
REMARK    5  A    between atoms: CA_20  and  C_25
REMARK    6  A    between atoms: C_22  and  O_23
REMARK    7  A    between atoms: C_25  and  C_26
REMARK    8  A    between atoms: C_26  and  C_27
REMARK    9  A    between atoms: C_34  and  O_35
REMARK                            x       y       z     vdW  Elec       q    Type
REMARK                         _______ _______ _______ _____ _____    ______ ____
ROOT
ATOM      1  O   UNL     1     -37.527  26.715   2.257  0.00  0.00    -0.277 OA
ATOM      2  N   UNL     1     -36.508  24.640   1.999  0.00  0.00    -0.271 N 
ATOM      3  C   UNL     1     -35.325  23.780   2.233  0.00  0.00    +0.098 C 
ATOM      4  CA  UNL     1     -37.715  24.051   1.403  0.00  0.00    +0.175 C 
ATOM      5  C   UNL     1     -35.098  22.799   1.062  0.00  0.00    +0.024 C 
ATOM      6  C   UNL     1     -37.449  23.058   0.280  0.00  0.00    +0.031 C 
ATOM      7  C   UNL     1     -36.354  22.060   0.628  0.00  0.00    +0.004 C 
ATOM      8  C   UNL     1     -35.314  23.238   3.658  0.00  0.00    -0.008 C 
ATOM      9  CA  UNL     1     -35.423  26.371   3.386  0.00  0.00    +0.022 C 
ATOM     10  C   UNL     1     -36.582  25.956   2.486  0.00  0.00    +0.206 C 
ATOM     11  C   UNL     1     -35.493  25.626   4.725  0.00  0.00    +0.014 C 
ATOM     12  C   UNL     1     -35.371  24.111   4.773  0.00  0.00    -0.026 C 
ATOM     13  C   UNL     1     -35.213  21.854   3.905  0.00  0.00    -0.003 C 
ATOM     14  C   UNL     1     -35.345  23.560   6.075  0.00  0.00    -0.005 C 
ATOM     15  C   UNL     1     -35.186  21.335   5.200  0.00  0.00    -0.000 C 
ATOM     16  C   UNL     1     -35.255  22.189   6.288  0.00  0.00    -0.000 C 
ENDROOT
BRANCH   9  17
ATOM     17  N   UNL     1     -35.534  27.819   3.617  0.00  0.00    +0.399 N 
ATOM     18  H1  UNL     1     -35.453  28.006   4.616  0.00  0.00    -0.083 HD
ATOM     19  H2  UNL     1     -36.438  28.140   3.270  0.00  0.00    -0.083 HD
BRANCH  17  20
ATOM     20  CA  UNL     1     -34.482  28.528   2.910  0.00  0.00    +0.041 C 
BRANCH  20  22
ATOM     21  OXT UNL     1     -34.525  29.319   0.608  0.00  0.00    -0.253 OA
ATOM     22  C   UNL     1     -35.112  29.130   1.666  0.00  0.00    +0.293 C 
BRANCH  22  23
ATOM     23  O   UNL     1     -36.426  29.421   1.838  0.00  0.00    -0.482 OA
ATOM     24  H   UNL     1     -36.974  28.841   2.329  0.00  0.00    +0.295 HD
ENDBRANCH  22  23
ENDBRANCH  20  22
BRANCH  20  25
ATOM     25  C   UNL     1     -33.365  27.542   2.543  0.00  0.00    -0.006 C 
BRANCH  25  26
ATOM     26  C   UNL     1     -31.951  28.009   2.929  0.00  0.00    +0.025 C 
BRANCH  26  27
ATOM     27  C   UNL     1     -31.849  28.628   4.301  0.00  0.00    -0.022 C 
ATOM     28  C   UNL     1     -31.467  29.955   4.421  0.00  0.00    -0.004 C 
ATOM     29  C   UNL     1     -32.138  27.859   5.417  0.00  0.00    -0.004 C 
ATOM     30  C   UNL     1     -31.372  30.528   5.689  0.00  0.00    -0.000 C 
ATOM     31  C   UNL     1     -32.043  28.432   6.686  0.00  0.00    -0.000 C 
ATOM     32  C   UNL     1     -31.661  29.766   6.822  0.00  0.00    -0.000 C 
ENDBRANCH  26  27
ENDBRANCH  25  26
ENDBRANCH  20  25
ENDBRANCH  17  20
ENDBRANCH   9  17
BRANCH   4  34
ATOM     33  OXT UNL     1     -38.762  22.242   2.625  0.00  0.00    -0.248 OA
ATOM     34  C   UNL     1     -38.491  23.430   2.529  0.00  0.00    +0.332 C 
BRANCH  34  35
ATOM     35  O   UNL     1     -38.857  24.371   3.434  0.00  0.00    -0.479 OA
ATOM     36  H   UNL     1     -38.229  24.702   4.045  0.00  0.00    +0.295 HD
ENDBRANCH  34  35
ENDBRANCH   4  34
TORSDOF 9
ENDMDL
MODEL 3
REMARK VINA RESULT:      -7.5      2.991      7.371
REMARK  Name = 5489408
REMARK  9 active torsions:
REMARK  status: ('A' for Active; 'I' for Inactive)
REMARK    1  A    between atoms: CA_4  and  C_34
REMARK    2  A    between atoms: CA_9  and  N_17
REMARK    3  A    between atoms: N_17  and  CA_20
REMARK    4  A    between atoms: CA_20  and  C_22
REMARK    5  A    between atoms: CA_20  and  C_25
REMARK    6  A    between atoms: C_22  and  O_23
REMARK    7  A    between atoms: C_25  and  C_26
REMARK    8  A    between atoms: C_26  and  C_27
REMARK    9  A    between atoms: C_34  and  O_35
REMARK                            x       y       z     vdW  Elec       q    Type
REMARK                         _______ _______ _______ _____ _____    ______ ____
ROOT
ATOM      1  O   UNL     1     -37.020  24.778   0.425  0.00  0.00    -0.277 OA
ATOM      2  N   UNL     1     -36.190  22.797   1.316  0.00  0.00    -0.271 N 
ATOM      3  C   UNL     1     -35.101  22.101   2.042  0.00  0.00    +0.098 C 
ATOM      4  CA  UNL     1     -37.422  22.063   1.000  0.00  0.00    +0.175 C 
ATOM      5  C   UNL     1     -34.921  20.652   1.536  0.00  0.00    +0.024 C 
ATOM      6  C   UNL     1     -37.207  20.626   0.544  0.00  0.00    +0.031 C 
ATOM      7  C   UNL     1     -36.224  19.873   1.429  0.00  0.00    +0.004 C 
ATOM      8  C   UNL     1     -35.195  22.349   3.543  0.00  0.00    -0.008 C 
ATOM      9  CA  UNL     1     -35.002  24.921   1.739  0.00  0.00    +0.022 C 
ATOM     10  C   UNL     1     -36.160  24.181   1.076  0.00  0.00    +0.206 C 
ATOM     11  C   UNL     1     -35.192  24.955   3.260  0.00  0.00    +0.014 C 
ATOM     12  C   UNL     1     -35.214  23.665   4.066  0.00  0.00    -0.026 C 
ATOM     13  C   UNL     1     -35.233  21.274   4.453  0.00  0.00    -0.003 C 
ATOM     14  C   UNL     1     -35.289  23.844   5.467  0.00  0.00    -0.005 C 
ATOM     15  C   UNL     1     -35.304  21.476   5.832  0.00  0.00    -0.000 C 
ATOM     16  C   UNL     1     -35.334  22.763   6.341  0.00  0.00    -0.000 C 
ENDROOT
BRANCH   9  17
ATOM     17  N   UNL     1     -34.987  26.291   1.209  0.00  0.00    +0.399 N 
ATOM     18  H1  UNL     1     -35.607  26.346   0.402  0.00  0.00    -0.083 HD
ATOM     19  H2  UNL     1     -34.033  26.529   0.937  0.00  0.00    -0.083 HD
BRANCH  17  20
ATOM     20  CA  UNL     1     -35.434  27.233   2.221  0.00  0.00    +0.041 C 
BRANCH  20  22
ATOM     21  OXT UNL     1     -36.856  28.816   1.038  0.00  0.00    -0.253 OA
ATOM     22  C   UNL     1     -36.751  27.814   1.734  0.00  0.00    +0.293 C 
BRANCH  22  23
ATOM     23  O   UNL     1     -37.821  27.082   2.133  0.00  0.00    -0.482 OA
ATOM     24  H   UNL     1     -38.577  27.019   1.584  0.00  0.00    +0.295 HD
ENDBRANCH  22  23
ENDBRANCH  20  22
BRANCH  20  25
ATOM     25  C   UNL     1     -34.376  28.330   2.394  0.00  0.00    -0.006 C 
BRANCH  25  26
ATOM     26  C   UNL     1     -32.988  27.816   2.813  0.00  0.00    +0.025 C 
BRANCH  26  27
ATOM     27  C   UNL     1     -32.631  28.083   4.254  0.00  0.00    -0.022 C 
ATOM     28  C   UNL     1     -32.959  27.144   5.221  0.00  0.00    -0.004 C 
ATOM     29  C   UNL     1     -31.983  29.261   4.588  0.00  0.00    -0.004 C 
ATOM     30  C   UNL     1     -32.629  27.391   6.554  0.00  0.00    -0.000 C 
ATOM     31  C   UNL     1     -31.653  29.508   5.921  0.00  0.00    -0.000 C 
ATOM     32  C   UNL     1     -31.975  28.573   6.904  0.00  0.00    -0.000 C 
ENDBRANCH  26  27
ENDBRANCH  25  26
ENDBRANCH  20  25
ENDBRANCH  17  20
ENDBRANCH   9  17
BRANCH   4  34
ATOM     33  OXT UNL     1     -38.305  23.066   3.018  0.00  0.00    -0.248 OA
ATOM     34  C   UNL     1     -38.295  22.141   2.219  0.00  0.00    +0.332 C 
BRANCH  34  35
ATOM     35  O   UNL     1     -39.079  21.039   2.319  0.00  0.00    -0.479 OA
ATOM     36  H   UNL     1     -39.975  21.124   2.580  0.00  0.00    +0.295 HD
ENDBRANCH  34  35
ENDBRANCH   4  34
TORSDOF 9
ENDMDL
MODEL 4
REMARK VINA RESULT:      -7.4      3.914      8.857
REMARK  Name = 5489408
REMARK  9 active torsions:
REMARK  status: ('A' for Active; 'I' for Inactive)
REMARK    1  A    between atoms: CA_4  and  C_34
REMARK    2  A    between atoms: CA_9  and  N_17
REMARK    3  A    between atoms: N_17  and  CA_20
REMARK    4  A    between atoms: CA_20  and  C_22
REMARK    5  A    between atoms: CA_20  and  C_25
REMARK    6  A    between atoms: C_22  and  O_23
REMARK    7  A    between atoms: C_25  and  C_26
REMARK    8  A    between atoms: C_26  and  C_27
REMARK    9  A    between atoms: C_34  and  O_35
REMARK                            x       y       z     vdW  Elec       q    Type
REMARK                         _______ _______ _______ _____ _____    ______ ____
ROOT
ATOM      1  O   UNL     1     -36.243  27.432   2.796  0.00  0.00    -0.277 OA
ATOM      2  N   UNL     1     -35.892  25.178   2.344  0.00  0.00    -0.271 N 
ATOM      3  C   UNL     1     -35.014  23.990   2.468  0.00  0.00    +0.098 C 
ATOM      4  CA  UNL     1     -37.228  25.022   1.755  0.00  0.00    +0.175 C 
ATOM      5  C   UNL     1     -35.107  23.086   1.219  0.00  0.00    +0.024 C 
ATOM      6  C   UNL     1     -37.287  24.091   0.551  0.00  0.00    +0.031 C 
ATOM      7  C   UNL     1     -36.533  22.789   0.781  0.00  0.00    +0.004 C 
ATOM      8  C   UNL     1     -35.142  23.354   3.847  0.00  0.00    -0.008 C 
ATOM      9  CA  UNL     1     -34.319  26.391   3.812  0.00  0.00    +0.022 C 
ATOM     10  C   UNL     1     -35.564  26.412   2.930  0.00  0.00    +0.206 C 
ATOM     11  C   UNL     1     -34.586  25.592   5.093  0.00  0.00    +0.014 C 
ATOM     12  C   UNL     1     -34.920  24.110   5.025  0.00  0.00    -0.026 C 
ATOM     13  C   UNL     1     -35.453  21.987   3.986  0.00  0.00    -0.003 C 
ATOM     14  C   UNL     1     -35.038  23.471   6.280  0.00  0.00    -0.005 C 
ATOM     15  C   UNL     1     -35.562  21.378   5.238  0.00  0.00    -0.000 C 
ATOM     16  C   UNL     1     -35.356  22.121   6.387  0.00  0.00    -0.000 C 
ENDROOT
BRANCH   9  17
ATOM     17  N   UNL     1     -33.991  27.783   4.154  0.00  0.00    +0.399 N 
ATOM     18  H1  UNL     1     -34.227  27.953   5.131  0.00  0.00    -0.083 HD
ATOM     19  H2  UNL     1     -34.526  28.406   3.549  0.00  0.00    -0.083 HD
BRANCH  17  20
ATOM     20  CA  UNL     1     -32.575  28.036   3.952  0.00  0.00    +0.041 C 
BRANCH  20  22
ATOM     21  OXT UNL     1     -32.562  28.182   6.382  0.00  0.00    -0.253 OA
ATOM     22  C   UNL     1     -31.940  28.119   5.329  0.00  0.00    +0.293 C 
BRANCH  22  23
ATOM     23  O   UNL     1     -30.584  28.090   5.278  0.00  0.00    -0.482 OA
ATOM     24  H   UNL     1     -30.095  28.886   5.354  0.00  0.00    +0.295 HD
ENDBRANCH  22  23
ENDBRANCH  20  22
BRANCH  20  25
ATOM     25  C   UNL     1     -32.401  29.351   3.182  0.00  0.00    -0.006 C 
BRANCH  25  26
ATOM     26  C   UNL     1     -33.048  30.573   3.852  0.00  0.00    +0.025 C 
BRANCH  26  27
ATOM     27  C   UNL     1     -34.063  31.292   2.997  0.00  0.00    -0.022 C 
ATOM     28  C   UNL     1     -33.660  32.373   2.228  0.00  0.00    -0.004 C 
ATOM     29  C   UNL     1     -35.379  30.861   2.997  0.00  0.00    -0.004 C 
ATOM     30  C   UNL     1     -34.598  33.038   1.438  0.00  0.00    -0.000 C 
ATOM     31  C   UNL     1     -36.318  31.526   2.206  0.00  0.00    -0.000 C 
ATOM     32  C   UNL     1     -35.927  32.614   1.427  0.00  0.00    -0.000 C 
ENDBRANCH  26  27
ENDBRANCH  25  26
ENDBRANCH  20  25
ENDBRANCH  17  20
ENDBRANCH   9  17
BRANCH   4  34
ATOM     33  OXT UNL     1     -38.560  23.429   3.000  0.00  0.00    -0.248 OA
ATOM     34  C   UNL     1     -38.136  24.567   2.861  0.00  0.00    +0.332 C 
BRANCH  34  35
ATOM     35  O   UNL     1     -38.428  25.596   3.695  0.00  0.00    -0.479 OA
ATOM     36  H   UNL     1     -39.160  25.535   4.276  0.00  0.00    +0.295 HD
ENDBRANCH  34  35
ENDBRANCH   4  34
TORSDOF 9
ENDMDL
MODEL 5
REMARK VINA RESULT:      -7.4      2.022      4.157
REMARK  Name = 5489408
REMARK  9 active torsions:
REMARK  status: ('A' for Active; 'I' for Inactive)
REMARK    1  A    between atoms: CA_4  and  C_34
REMARK    2  A    between atoms: CA_9  and  N_17
REMARK    3  A    between atoms: N_17  and  CA_20
REMARK    4  A    between atoms: CA_20  and  C_22
REMARK    5  A    between atoms: CA_20  and  C_25
REMARK    6  A    between atoms: C_22  and  O_23
REMARK    7  A    between atoms: C_25  and  C_26
REMARK    8  A    between atoms: C_26  and  C_27
REMARK    9  A    between atoms: C_34  and  O_35
REMARK                            x       y       z     vdW  Elec       q    Type
REMARK                         _______ _______ _______ _____ _____    ______ ____
ROOT
ATOM      1  O   UNL     1     -35.169  20.725   3.710  0.00  0.00    -0.277 OA
ATOM      2  N   UNL     1     -35.391  22.967   3.131  0.00  0.00    -0.271 N 
ATOM      3  C   UNL     1     -35.907  23.976   2.177  0.00  0.00    +0.098 C 
ATOM      4  CA  UNL     1     -34.766  23.417   4.383  0.00  0.00    +0.175 C 
ATOM      5  C   UNL     1     -34.955  25.188   2.066  0.00  0.00    +0.024 C 
ATOM      6  C   UNL     1     -33.867  24.638   4.240  0.00  0.00    +0.031 C 
ATOM      7  C   UNL     1     -34.508  25.742   3.411  0.00  0.00    +0.004 C 
ATOM      8  C   UNL     1     -37.394  24.228   2.396  0.00  0.00    -0.008 C 
ATOM      9  CA  UNL     1     -36.581  21.243   1.823  0.00  0.00    +0.022 C 
ATOM     10  C   UNL     1     -35.634  21.593   2.967  0.00  0.00    +0.206 C 
ATOM     11  C   UNL     1     -38.009  21.691   2.156  0.00  0.00    +0.014 C 
ATOM     12  C   UNL     1     -38.329  23.164   2.360  0.00  0.00    -0.026 C 
ATOM     13  C   UNL     1     -37.883  25.533   2.608  0.00  0.00    -0.003 C 
ATOM     14  C   UNL     1     -39.700  23.451   2.556  0.00  0.00    -0.005 C 
ATOM     15  C   UNL     1     -39.242  25.790   2.796  0.00  0.00    -0.000 C 
ATOM     16  C   UNL     1     -40.152  24.748   2.772  0.00  0.00    -0.000 C 
ENDROOT
BRANCH   9  17
ATOM     17  N   UNL     1     -36.547  19.784   1.647  0.00  0.00    +0.399 N 
ATOM     18  H1  UNL     1     -37.458  19.395   1.889  0.00  0.00    -0.083 HD
ATOM     19  H2  UNL     1     -35.825  19.395   2.253  0.00  0.00    -0.083 HD
BRANCH  17  20
ATOM     20  CA  UNL     1     -36.234  19.446   0.269  0.00  0.00    +0.041 C 
BRANCH  20  22
ATOM     21  OXT UNL     1     -34.668  17.779  -0.567  0.00  0.00    -0.253 OA
ATOM     22  C   UNL     1     -34.979  18.590   0.297  0.00  0.00    +0.293 C 
BRANCH  22  23
ATOM     23  O   UNL     1     -34.207  18.835   1.385  0.00  0.00    -0.482 OA
ATOM     24  H   UNL     1     -34.532  18.645   2.244  0.00  0.00    +0.295 HD
ENDBRANCH  22  23
ENDBRANCH  20  22
BRANCH  20  25
ATOM     25  C   UNL     1     -36.006  20.736  -0.529  0.00  0.00    -0.006 C 
BRANCH  25  26
ATOM     26  C   UNL     1     -37.055  21.004  -1.621  0.00  0.00    +0.025 C 
BRANCH  26  27
ATOM     27  C   UNL     1     -37.874  22.253  -1.408  0.00  0.00    -0.022 C 
ATOM     28  C   UNL     1     -37.234  23.480  -1.322  0.00  0.00    -0.004 C 
ATOM     29  C   UNL     1     -39.252  22.152  -1.301  0.00  0.00    -0.004 C 
ATOM     30  C   UNL     1     -37.992  24.635  -1.125  0.00  0.00    -0.000 C 
ATOM     31  C   UNL     1     -40.010  23.307  -1.103  0.00  0.00    -0.000 C 
ATOM     32  C   UNL     1     -39.380  24.548  -1.016  0.00  0.00    -0.000 C 
ENDBRANCH  26  27
ENDBRANCH  25  26
ENDBRANCH  20  25
ENDBRANCH  17  20
ENDBRANCH   9  17
BRANCH   4  34
ATOM     33  OXT UNL     1     -36.399  24.735   5.589  0.00  0.00    -0.248 OA
ATOM     34  C   UNL     1     -35.881  23.651   5.360  0.00  0.00    +0.332 C 
BRANCH  34  35
ATOM     35  O   UNL     1     -36.241  22.491   5.963  0.00  0.00    -0.479 OA
ATOM     36  H   UNL     1     -36.059  22.360   6.873  0.00  0.00    +0.295 HD
ENDBRANCH  34  35
ENDBRANCH   4  34
TORSDOF 9
ENDMDL
MODEL 6
REMARK VINA RESULT:      -7.3      2.020      3.533
REMARK  Name = 5489408
REMARK  9 active torsions:
REMARK  status: ('A' for Active; 'I' for Inactive)
REMARK    1  A    between atoms: CA_4  and  C_34
REMARK    2  A    between atoms: CA_9  and  N_17
REMARK    3  A    between atoms: N_17  and  CA_20
REMARK    4  A    between atoms: CA_20  and  C_22
REMARK    5  A    between atoms: CA_20  and  C_25
REMARK    6  A    between atoms: C_22  and  O_23
REMARK    7  A    between atoms: C_25  and  C_26
REMARK    8  A    between atoms: C_26  and  C_27
REMARK    9  A    between atoms: C_34  and  O_35
REMARK                            x       y       z     vdW  Elec       q    Type
REMARK                         _______ _______ _______ _____ _____    ______ ____
ROOT
ATOM      1  O   UNL     1     -38.325  22.876   3.213  0.00  0.00    -0.277 OA
ATOM      2  N   UNL     1     -36.298  23.918   3.676  0.00  0.00    -0.271 N 
ATOM      3  C   UNL     1     -34.817  23.861   3.649  0.00  0.00    +0.098 C 
ATOM      4  CA  UNL     1     -36.959  25.163   4.089  0.00  0.00    +0.175 C 
ATOM      5  C   UNL     1     -34.202  24.590   4.864  0.00  0.00    +0.024 C 
ATOM      6  C   UNL     1     -36.300  25.873   5.264  0.00  0.00    +0.031 C 
ATOM      7  C   UNL     1     -34.788  25.971   5.114  0.00  0.00    +0.004 C 
ATOM      8  C   UNL     1     -34.281  24.174   2.256  0.00  0.00    -0.008 C 
ATOM      9  CA  UNL     1     -36.321  21.783   2.435  0.00  0.00    +0.022 C 
ATOM     10  C   UNL     1     -37.094  22.885   3.153  0.00  0.00    +0.206 C 
ATOM     11  C   UNL     1     -35.735  22.311   1.120  0.00  0.00    +0.014 C 
ATOM     12  C   UNL     1     -34.706  23.432   1.126  0.00  0.00    -0.026 C 
ATOM     13  C   UNL     1     -33.322  25.187   2.061  0.00  0.00    -0.003 C 
ATOM     14  C   UNL     1     -34.170  23.751  -0.142  0.00  0.00    -0.005 C 
ATOM     15  C   UNL     1     -32.805  25.482   0.798  0.00  0.00    -0.000 C 
ATOM     16  C   UNL     1     -33.231  24.764  -0.306  0.00  0.00    -0.000 C 
ENDROOT
BRANCH   9  17
ATOM     17  N   UNL     1     -37.260  20.688   2.155  0.00  0.00    +0.399 N 
ATOM     18  H1  UNL     1     -38.176  20.928   2.534  0.00  0.00    -0.083 HD
ATOM     19  H2  UNL     1     -36.911  19.835   2.591  0.00  0.00    -0.083 HD
BRANCH  17  20
ATOM     20  CA  UNL     1     -37.377  20.470   0.724  0.00  0.00    +0.041 C 
BRANCH  20  22
ATOM     21  OXT UNL     1     -39.277  20.676  -0.784  0.00  0.00    -0.253 OA
ATOM     22  C   UNL     1     -38.832  20.702   0.357  0.00  0.00    +0.293 C 
BRANCH  22  23
ATOM     23  O   UNL     1     -39.614  20.921   1.444  0.00  0.00    -0.482 OA
ATOM     24  H   UNL     1     -39.802  21.797   1.718  0.00  0.00    +0.295 HD
ENDBRANCH  22  23
ENDBRANCH  20  22
BRANCH  20  25
ATOM     25  C   UNL     1     -36.945  19.035   0.394  0.00  0.00    -0.006 C 
BRANCH  25  26
ATOM     26  C   UNL     1     -35.922  18.924  -0.748  0.00  0.00    +0.025 C 
BRANCH  26  27
ATOM     27  C   UNL     1     -34.504  19.251  -0.352  0.00  0.00    -0.022 C 
ATOM     28  C   UNL     1     -33.944  18.629   0.753  0.00  0.00    -0.004 C 
ATOM     29  C   UNL     1     -33.784  20.170  -1.099  0.00  0.00    -0.004 C 
ATOM     30  C   UNL     1     -32.633  18.931   1.119  0.00  0.00    -0.000 C 
ATOM     31  C   UNL     1     -32.472  20.473  -0.733  0.00  0.00    -0.000 C 
ATOM     32  C   UNL     1     -31.897  19.854   0.375  0.00  0.00    -0.000 C 
ENDBRANCH  26  27
ENDBRANCH  25  26
ENDBRANCH  20  25
ENDBRANCH  17  20
ENDBRANCH   9  17
BRANCH   4  34
ATOM     33  OXT UNL     1     -36.301  26.995   2.650  0.00  0.00    -0.248 OA
ATOM     34  C   UNL     1     -37.029  26.038   2.871  0.00  0.00    +0.332 C 
BRANCH  34  35
ATOM     35  O   UNL     1     -38.018  25.625   2.040  0.00  0.00    -0.479 OA
ATOM     36  H   UNL     1     -38.141  24.710   1.878  0.00  0.00    +0.295 HD
ENDBRANCH  34  35
ENDBRANCH   4  34
TORSDOF 9
ENDMDL
MODEL 7
REMARK VINA RESULT:      -7.3      4.301      9.176
REMARK  Name = 5489408
REMARK  9 active torsions:
REMARK  status: ('A' for Active; 'I' for Inactive)
REMARK    1  A    between atoms: CA_4  and  C_34
REMARK    2  A    between atoms: CA_9  and  N_17
REMARK    3  A    between atoms: N_17  and  CA_20
REMARK    4  A    between atoms: CA_20  and  C_22
REMARK    5  A    between atoms: CA_20  and  C_25
REMARK    6  A    between atoms: C_22  and  O_23
REMARK    7  A    between atoms: C_25  and  C_26
REMARK    8  A    between atoms: C_26  and  C_27
REMARK    9  A    between atoms: C_34  and  O_35
REMARK                            x       y       z     vdW  Elec       q    Type
REMARK                         _______ _______ _______ _____ _____    ______ ____
ROOT
ATOM      1  O   UNL     1     -37.379  27.011   2.459  0.00  0.00    -0.277 OA
ATOM      2  N   UNL     1     -36.536  24.869   2.129  0.00  0.00    -0.271 N 
ATOM      3  C   UNL     1     -35.411  23.918   2.295  0.00  0.00    +0.098 C 
ATOM      4  CA  UNL     1     -37.813  24.380   1.591  0.00  0.00    +0.175 C 
ATOM      5  C   UNL     1     -35.319  22.938   1.104  0.00  0.00    +0.024 C 
ATOM      6  C   UNL     1     -37.680  23.385   0.446  0.00  0.00    +0.031 C 
ATOM      7  C   UNL     1     -36.649  22.302   0.729  0.00  0.00    +0.004 C 
ATOM      8  C   UNL     1     -35.370  23.358   3.712  0.00  0.00    -0.008 C 
ATOM      9  CA  UNL     1     -35.253  26.494   3.475  0.00  0.00    +0.022 C 
ATOM     10  C   UNL     1     -36.485  26.180   2.631  0.00  0.00    +0.206 C 
ATOM     11  C   UNL     1     -35.312  25.739   4.808  0.00  0.00    +0.014 C 
ATOM     12  C   UNL     1     -35.305  24.218   4.837  0.00  0.00    -0.026 C 
ATOM     13  C   UNL     1     -35.363  21.968   3.941  0.00  0.00    -0.003 C 
ATOM     14  C   UNL     1     -35.255  23.651   6.130  0.00  0.00    -0.005 C 
ATOM     15  C   UNL     1     -35.310  21.431   5.228  0.00  0.00    -0.000 C 
ATOM     16  C   UNL     1     -35.258  22.273   6.326  0.00  0.00    -0.000 C 
ENDROOT
BRANCH   9  17
ATOM     17  N   UNL     1     -35.242  27.943   3.725  0.00  0.00    +0.399 N 
ATOM     18  H1  UNL     1     -35.079  28.111   4.717  0.00  0.00    -0.083 HD
ATOM     19  H2  UNL     1     -36.142  28.333   3.444  0.00  0.00    -0.083 HD
BRANCH  17  20
ATOM     20  CA  UNL     1     -34.192  28.583   2.952  0.00  0.00    +0.041 C 
BRANCH  20  22
ATOM     21  OXT UNL     1     -31.993  27.653   3.430  0.00  0.00    -0.253 OA
ATOM     22  C   UNL     1     -32.901  28.417   3.735  0.00  0.00    +0.293 C 
BRANCH  22  23
ATOM     23  O   UNL     1     -32.840  29.235   4.816  0.00  0.00    -0.482 OA
ATOM     24  H   UNL     1     -32.513  28.910   5.632  0.00  0.00    +0.295 HD
ENDBRANCH  22  23
ENDBRANCH  20  22
BRANCH  20  25
ATOM     25  C   UNL     1     -34.537  30.067   2.762  0.00  0.00    -0.006 C 
BRANCH  25  26
ATOM     26  C   UNL     1     -35.882  30.324   2.065  0.00  0.00    +0.025 C 
BRANCH  26  27
ATOM     27  C   UNL     1     -36.152  31.772   1.740  0.00  0.00    -0.022 C 
ATOM     28  C   UNL     1     -37.456  32.243   1.758  0.00  0.00    -0.004 C 
ATOM     29  C   UNL     1     -35.091  32.608   1.427  0.00  0.00    -0.004 C 
ATOM     30  C   UNL     1     -37.705  33.582   1.458  0.00  0.00    -0.000 C 
ATOM     31  C   UNL     1     -35.340  33.947   1.126  0.00  0.00    -0.000 C 
ATOM     32  C   UNL     1     -36.646  34.434   1.142  0.00  0.00    -0.000 C 
ENDBRANCH  26  27
ENDBRANCH  25  26
ENDBRANCH  20  25
ENDBRANCH  17  20
ENDBRANCH   9  17
BRANCH   4  34
ATOM     33  OXT UNL     1     -39.024  22.669   2.801  0.00  0.00    -0.248 OA
ATOM     34  C   UNL     1     -38.576  23.805   2.749  0.00  0.00    +0.332 C 
BRANCH  34  35
ATOM     35  O   UNL     1     -38.706  24.722   3.740  0.00  0.00    -0.479 OA
ATOM     36  H   UNL     1     -38.413  25.602   3.604  0.00  0.00    +0.295 HD
ENDBRANCH  34  35
ENDBRANCH   4  34
TORSDOF 9
ENDMDL
MODEL 8
REMARK VINA RESULT:      -7.2      4.194      7.904
REMARK  Name = 5489408
REMARK  9 active torsions:
REMARK  status: ('A' for Active; 'I' for Inactive)
REMARK    1  A    between atoms: CA_4  and  C_34
REMARK    2  A    between atoms: CA_9  and  N_17
REMARK    3  A    between atoms: N_17  and  CA_20
REMARK    4  A    between atoms: CA_20  and  C_22
REMARK    5  A    between atoms: CA_20  and  C_25
REMARK    6  A    between atoms: C_22  and  O_23
REMARK    7  A    between atoms: C_25  and  C_26
REMARK    8  A    between atoms: C_26  and  C_27
REMARK    9  A    between atoms: C_34  and  O_35
REMARK                            x       y       z     vdW  Elec       q    Type
REMARK                         _______ _______ _______ _____ _____    ______ ____
ROOT
ATOM      1  O   UNL     1     -35.397  28.004   3.644  0.00  0.00    -0.277 OA
ATOM      2  N   UNL     1     -35.203  25.920   2.630  0.00  0.00    -0.271 N 
ATOM      3  C   UNL     1     -34.461  24.643   2.507  0.00  0.00    +0.098 C 
ATOM      4  CA  UNL     1     -36.464  26.089   1.896  0.00  0.00    +0.175 C 
ATOM      5  C   UNL     1     -34.481  24.115   1.056  0.00  0.00    +0.024 C 
ATOM      6  C   UNL     1     -36.458  25.519   0.484  0.00  0.00    +0.031 C 
ATOM      7  C   UNL     1     -35.863  24.120   0.420  0.00  0.00    +0.004 C 
ATOM      8  C   UNL     1     -34.819  23.690   3.642  0.00  0.00    -0.008 C 
ATOM      9  CA  UNL     1     -33.719  26.506   4.516  0.00  0.00    +0.022 C 
ATOM     10  C   UNL     1     -34.837  26.909   3.559  0.00  0.00    +0.206 C 
ATOM     11  C   UNL     1     -34.217  25.439   5.499  0.00  0.00    +0.014 C 
ATOM     12  C   UNL     1     -34.676  24.079   4.997  0.00  0.00    -0.026 C 
ATOM     13  C   UNL     1     -35.270  22.382   3.372  0.00  0.00    -0.003 C 
ATOM     14  C   UNL     1     -35.008  23.154   6.013  0.00  0.00    -0.005 C 
ATOM     15  C   UNL     1     -35.590  21.486   4.393  0.00  0.00    -0.000 C 
ATOM     16  C   UNL     1     -35.460  21.872   5.716  0.00  0.00    -0.000 C 
ENDROOT
BRANCH   9  17
ATOM     17  N   UNL     1     -33.309  27.709   5.254  0.00  0.00    +0.399 N 
ATOM     18  H1  UNL     1     -33.303  27.504   6.253  0.00  0.00    -0.083 HD
ATOM     19  H2  UNL     1     -33.968  28.461   5.052  0.00  0.00    -0.083 HD
BRANCH  17  20
ATOM     20  CA  UNL     1     -31.980  28.128   4.844  0.00  0.00    +0.041 C 
BRANCH  20  22
ATOM     21  OXT UNL     1     -29.974  27.799   6.184  0.00  0.00    -0.253 OA
ATOM     22  C   UNL     1     -31.129  28.196   6.101  0.00  0.00    +0.293 C 
BRANCH  22  23
ATOM     23  O   UNL     1     -31.782  28.777   7.139  0.00  0.00    -0.482 OA
ATOM     24  H   UNL     1     -32.574  28.398   7.466  0.00  0.00    +0.295 HD
ENDBRANCH  22  23
ENDBRANCH  20  22
BRANCH  20  25
ATOM     25  C   UNL     1     -32.070  29.500   4.162  0.00  0.00    -0.006 C 
BRANCH  25  26
ATOM     26  C   UNL     1     -31.417  29.565   2.772  0.00  0.00    +0.025 C 
BRANCH  26  27
ATOM     27  C   UNL     1     -32.169  28.828   1.692  0.00  0.00    -0.022 C 
ATOM     28  C   UNL     1     -33.328  29.384   1.170  0.00  0.00    -0.004 C 
ATOM     29  C   UNL     1     -31.691  27.609   1.240  0.00  0.00    -0.004 C 
ATOM     30  C   UNL     1     -34.024  28.703   0.172  0.00  0.00    -0.000 C 
ATOM     31  C   UNL     1     -32.387  26.927   0.241  0.00  0.00    -0.000 C 
ATOM     32  C   UNL     1     -33.553  27.475  -0.294  0.00  0.00    -0.000 C 
ENDBRANCH  26  27
ENDBRANCH  25  26
ENDBRANCH  20  25
ENDBRANCH  17  20
ENDBRANCH   9  17
BRANCH   4  34
ATOM     33  OXT UNL     1     -38.062  24.389   2.543  0.00  0.00    -0.248 OA
ATOM     34  C   UNL     1     -37.541  25.476   2.745  0.00  0.00    +0.332 C 
BRANCH  34  35
ATOM     35  O   UNL     1     -37.863  26.296   3.775  0.00  0.00    -0.479 OA
ATOM     36  H   UNL     1     -37.528  27.171   3.800  0.00  0.00    +0.295 HD
ENDBRANCH  34  35
ENDBRANCH   4  34
TORSDOF 9
ENDMDL
MODEL 9
REMARK VINA RESULT:      -6.9      3.871      7.745
REMARK  Name = 5489408
REMARK  9 active torsions:
REMARK  status: ('A' for Active; 'I' for Inactive)
REMARK    1  A    between atoms: CA_4  and  C_34
REMARK    2  A    between atoms: CA_9  and  N_17
REMARK    3  A    between atoms: N_17  and  CA_20
REMARK    4  A    between atoms: CA_20  and  C_22
REMARK    5  A    between atoms: CA_20  and  C_25
REMARK    6  A    between atoms: C_22  and  O_23
REMARK    7  A    between atoms: C_25  and  C_26
REMARK    8  A    between atoms: C_26  and  C_27
REMARK    9  A    between atoms: C_34  and  O_35
REMARK                            x       y       z     vdW  Elec       q    Type
REMARK                         _______ _______ _______ _____ _____    ______ ____
ROOT
ATOM      1  O   UNL     1     -35.910  25.583   5.631  0.00  0.00    -0.277 OA
ATOM      2  N   UNL     1     -36.729  25.727   3.458  0.00  0.00    -0.271 N 
ATOM      3  C   UNL     1     -36.558  26.242   2.079  0.00  0.00    +0.098 C 
ATOM      4  CA  UNL     1     -37.836  24.805   3.746  0.00  0.00    +0.175 C 
ATOM      5  C   UNL     1     -37.918  26.586   1.432  0.00  0.00    +0.024 C 
ATOM      6  C   UNL     1     -39.148  25.153   3.057  0.00  0.00    +0.031 C 
ATOM      7  C   UNL     1     -38.964  25.492   1.585  0.00  0.00    +0.004 C 
ATOM      8  C   UNL     1     -35.564  25.393   1.295  0.00  0.00    -0.008 C 
ATOM      9  CA  UNL     1     -34.489  26.626   3.984  0.00  0.00    +0.022 C 
ATOM     10  C   UNL     1     -35.770  25.948   4.461  0.00  0.00    +0.206 C 
ATOM     11  C   UNL     1     -33.680  25.674   3.095  0.00  0.00    +0.014 C 
ATOM     12  C   UNL     1     -34.251  25.170   1.779  0.00  0.00    -0.026 C 
ATOM     13  C   UNL     1     -35.915  24.833   0.051  0.00  0.00    -0.003 C 
ATOM     14  C   UNL     1     -33.362  24.386   1.009  0.00  0.00    -0.005 C 
ATOM     15  C   UNL     1     -35.018  24.064  -0.693  0.00  0.00    -0.000 C 
ATOM     16  C   UNL     1     -33.740  23.838  -0.212  0.00  0.00    -0.000 C 
ENDROOT
BRANCH   9  17
ATOM     17  N   UNL     1     -33.704  26.984   5.174  0.00  0.00    +0.399 N 
ATOM     18  H1  UNL     1     -33.367  26.133   5.622  0.00  0.00    -0.083 HD
ATOM     19  H2  UNL     1     -34.299  27.508   5.816  0.00  0.00    -0.083 HD
BRANCH  17  20
ATOM     20  CA  UNL     1     -32.569  27.812   4.804  0.00  0.00    +0.041 C 
BRANCH  20  22
ATOM     21  OXT UNL     1     -32.095  29.464   6.528  0.00  0.00    -0.253 OA
ATOM     22  C   UNL     1     -31.957  28.326   6.095  0.00  0.00    +0.293 C 
BRANCH  22  23
ATOM     23  O   UNL     1     -31.248  27.373   6.750  0.00  0.00    -0.482 OA
ATOM     24  H   UNL     1     -30.925  27.539   7.614  0.00  0.00    +0.295 HD
ENDBRANCH  22  23
ENDBRANCH  20  22
BRANCH  20  25
ATOM     25  C   UNL     1     -33.054  28.969   3.921  0.00  0.00    -0.006 C 
BRANCH  25  26
ATOM     26  C   UNL     1     -32.184  29.233   2.681  0.00  0.00    +0.025 C 
BRANCH  26  27
ATOM     27  C   UNL     1     -32.768  28.721   1.387  0.00  0.00    -0.022 C 
ATOM     28  C   UNL     1     -31.975  27.968   0.534  0.00  0.00    -0.004 C 
ATOM     29  C   UNL     1     -34.085  29.014   1.073  0.00  0.00    -0.004 C 
ATOM     30  C   UNL     1     -32.515  27.495  -0.662  0.00  0.00    -0.000 C 
ATOM     31  C   UNL     1     -34.625  28.541  -0.124  0.00  0.00    -0.000 C 
ATOM     32  C   UNL     1     -33.840  27.782  -0.991  0.00  0.00    -0.000 C 
ENDBRANCH  26  27
ENDBRANCH  25  26
ENDBRANCH  20  25
ENDBRANCH  17  20
ENDBRANCH   9  17
BRANCH   4  34
ATOM     33  OXT UNL     1     -37.540  22.886   2.300  0.00  0.00    -0.248 OA
ATOM     34  C   UNL     1     -37.356  23.430   3.379  0.00  0.00    +0.332 C 
BRANCH  34  35
ATOM     35  O   UNL     1     -36.687  22.864   4.413  0.00  0.00    -0.479 OA
ATOM     36  H   UNL     1     -36.942  22.021   4.731  0.00  0.00    +0.295 HD
ENDBRANCH  34  35
ENDBRANCH   4  34
TORSDOF 9
ENDMDL
