MODEL 1
REMARK VINA RESULT:      -6.7      0.000      0.000
REMARK  Name = 54692969
REMARK  3 active torsions:
REMARK  status: ('A' for Active; 'I' for Inactive)
REMARK    1  A    between atoms: C_7  and  C_16
REMARK    2  A    between atoms: C_9  and  O_25
REMARK    3  A    between atoms: C_20  and  O_23
REMARK                            x       y       z     vdW  Elec       q    Type
REMARK                         _______ _______ _______ _____ _____    ______ ____
ROOT
ATOM      1  S   UNL     1     -37.474  22.395   1.734  0.00  0.00    +0.077 S 
ATOM      2  S   UNL     1     -40.438  25.314   1.963  0.00  0.00    -0.082 S 
ATOM      3  O   UNL     1     -38.017  21.058   1.857  0.00  0.00    -0.150 OA
ATOM      4  O   UNL     1     -36.631  22.785   0.623  0.00  0.00    -0.150 OA
ATOM      5  N   UNL     1     -36.753  22.867   3.213  0.00  0.00    -0.181 N 
ATOM      6  C   UNL     1     -38.855  23.379   1.555  0.00  0.00    +0.135 C 
ATOM      7  C   UNL     1     -36.961  24.219   3.704  0.00  0.00    +0.156 C 
ATOM      8  C   UNL     1     -38.964  24.501   2.338  0.00  0.00    +0.083 C 
ATOM      9  C   UNL     1     -38.024  24.961   3.313  0.00  0.00    +0.160 C 
ATOM     10  C   UNL     1     -39.922  23.164   0.654  0.00  0.00    +0.028 C 
ATOM     11  C   UNL     1     -35.575  22.074   3.644  0.00  0.00    +0.139 C 
ATOM     12  C   UNL     1     -40.867  24.156   0.775  0.00  0.00    +0.037 C 
ENDROOT
BRANCH   7  16
ATOM     13  O   UNL     1     -36.000  24.274   5.832  0.00  0.00    -0.268 OA
ATOM     14  N   UNL     1     -35.216  25.751   4.173  0.00  0.00    -0.265 N 
ATOM     15  N   UNL     1     -33.532  27.432   4.149  0.00  0.00    -0.226 NA
ATOM     16  C   UNL     1     -36.009  24.743   4.698  0.00  0.00    +0.269 C 
ATOM     17  C   UNL     1     -34.200  26.478   4.838  0.00  0.00    +0.135 C 
ATOM     18  C   UNL     1     -33.952  26.165   6.165  0.00  0.00    +0.038 C 
ATOM     19  C   UNL     1     -32.956  26.874   6.827  0.00  0.00    +0.041 C 
ATOM     20  C   UNL     1     -32.248  27.862   6.151  0.00  0.00    +0.153 C 
ATOM     21  C   UNL     1     -32.571  28.101   4.825  0.00  0.00    +0.137 C 
ATOM     22  H   UNL     1     -35.379  25.988   3.232  0.00  0.00    +0.157 HD
BRANCH  20  23
ATOM     23  O   UNL     1     -31.273  28.572   6.771  0.00  0.00    -0.504 OA
ATOM     24  H   UNL     1     -31.000  29.397   6.420  0.00  0.00    +0.292 HD
ENDBRANCH  20  23
ENDBRANCH   7  16
BRANCH   9  25
ATOM     25  O   UNL     1     -38.317  26.223   3.798  0.00  0.00    -0.504 OA
ATOM     26  H   UNL     1     -37.672  26.699   4.283  0.00  0.00    +0.292 HD
ENDBRANCH   9  25
TORSDOF 3
ENDMDL
MODEL 2
REMARK VINA RESULT:      -6.5      2.361      3.481
REMARK  Name = 54692969
REMARK  3 active torsions:
REMARK  status: ('A' for Active; 'I' for Inactive)
REMARK    1  A    between atoms: C_7  and  C_16
REMARK    2  A    between atoms: C_9  and  O_25
REMARK    3  A    between atoms: C_20  and  O_23
REMARK                            x       y       z     vdW  Elec       q    Type
REMARK                         _______ _______ _______ _____ _____    ______ ____
ROOT
ATOM      1  S   UNL     1     -39.362  21.860   1.300  0.00  0.00    +0.077 S 
ATOM      2  S   UNL     1     -36.195  19.360   0.260  0.00  0.00    -0.082 S 
ATOM      3  O   UNL     1     -39.950  22.501   0.142  0.00  0.00    -0.150 OA
ATOM      4  O   UNL     1     -40.154  21.107   2.250  0.00  0.00    -0.150 OA
ATOM      5  N   UNL     1     -38.350  22.968   2.124  0.00  0.00    -0.181 N 
ATOM      6  C   UNL     1     -38.320  20.689   0.628  0.00  0.00    +0.135 C 
ATOM      7  C   UNL     1     -37.065  22.513   2.630  0.00  0.00    +0.156 C 
ATOM      8  C   UNL     1     -37.031  20.617   1.094  0.00  0.00    +0.083 C 
ATOM      9  C   UNL     1     -36.441  21.429   2.113  0.00  0.00    +0.160 C 
ATOM     10  C   UNL     1     -38.655  19.751  -0.375  0.00  0.00    +0.028 C 
ATOM     11  C   UNL     1     -39.024  24.150   2.714  0.00  0.00    +0.139 C 
ATOM     12  C   UNL     1     -37.573  18.956  -0.675  0.00  0.00    +0.037 C 
ENDROOT
BRANCH   7  16
ATOM     13  O   UNL     1     -36.687  23.069   4.867  0.00  0.00    -0.268 OA
ATOM     14  N   UNL     1     -35.571  24.269   3.175  0.00  0.00    -0.265 N 
ATOM     15  N   UNL     1     -34.016  26.070   3.207  0.00  0.00    -0.226 NA
ATOM     16  C   UNL     1     -36.425  23.308   3.692  0.00  0.00    +0.269 C 
ATOM     17  C   UNL     1     -34.795  25.206   3.898  0.00  0.00    +0.135 C 
ATOM     18  C   UNL     1     -34.882  25.179   5.281  0.00  0.00    +0.038 C 
ATOM     19  C   UNL     1     -34.124  26.097   6.000  0.00  0.00    +0.041 C 
ATOM     20  C   UNL     1     -33.312  27.000   5.324  0.00  0.00    +0.153 C 
ATOM     21  C   UNL     1     -33.294  26.947   3.939  0.00  0.00    +0.137 C 
ATOM     22  H   UNL     1     -35.497  24.304   2.194  0.00  0.00    +0.157 HD
BRANCH  20  23
ATOM     23  O   UNL     1     -32.563  27.907   5.997  0.00  0.00    -0.504 OA
ATOM     24  H   UNL     1     -32.949  28.710   6.288  0.00  0.00    +0.292 HD
ENDBRANCH  20  23
ENDBRANCH   7  16
BRANCH   9  25
ATOM     25  O   UNL     1     -35.187  20.990   2.500  0.00  0.00    -0.504 OA
ATOM     26  H   UNL     1     -34.593  20.651   1.861  0.00  0.00    +0.292 HD
ENDBRANCH   9  25
TORSDOF 3
ENDMDL
MODEL 3
REMARK VINA RESULT:      -6.3      3.973      6.372
REMARK  Name = 54692969
REMARK  3 active torsions:
REMARK  status: ('A' for Active; 'I' for Inactive)
REMARK    1  A    between atoms: C_7  and  C_16
REMARK    2  A    between atoms: C_9  and  O_25
REMARK    3  A    between atoms: C_20  and  O_23
REMARK                            x       y       z     vdW  Elec       q    Type
REMARK                         _______ _______ _______ _____ _____    ______ ____
ROOT
ATOM      1  S   UNL     1     -33.541  30.108   2.174  0.00  0.00    +0.077 S 
ATOM      2  S   UNL     1     -37.076  29.444   0.072  0.00  0.00    -0.082 S 
ATOM      3  O   UNL     1     -32.402  30.247   1.291  0.00  0.00    -0.150 OA
ATOM      4  O   UNL     1     -33.866  31.104   3.175  0.00  0.00    -0.150 OA
ATOM      5  N   UNL     1     -33.545  28.547   2.875  0.00  0.00    -0.181 N 
ATOM      6  C   UNL     1     -34.879  30.148   1.118  0.00  0.00    +0.135 C 
ATOM      7  C   UNL     1     -34.802  27.825   2.991  0.00  0.00    +0.156 C 
ATOM      8  C   UNL     1     -35.842  29.178   1.247  0.00  0.00    +0.083 C 
ATOM      9  C   UNL     1     -35.860  28.108   2.195  0.00  0.00    +0.160 C 
ATOM     10  C   UNL     1     -35.116  31.106   0.107  0.00  0.00    +0.028 C 
ATOM     11  C   UNL     1     -32.402  28.231   3.765  0.00  0.00    +0.139 C 
ATOM     12  C   UNL     1     -36.294  30.835  -0.551  0.00  0.00    +0.037 C 
ENDROOT
BRANCH   7  16
ATOM     13  O   UNL     1     -34.783  26.971   5.164  0.00  0.00    -0.268 OA
ATOM     14  N   UNL     1     -35.041  25.495   3.347  0.00  0.00    -0.265 N 
ATOM     15  N   UNL     1     -35.309  23.136   3.188  0.00  0.00    -0.226 NA
ATOM     16  C   UNL     1     -34.873  26.723   3.966  0.00  0.00    +0.269 C 
ATOM     17  C   UNL     1     -35.147  24.228   3.970  0.00  0.00    +0.135 C 
ATOM     18  C   UNL     1     -35.080  24.186   5.353  0.00  0.00    +0.038 C 
ATOM     19  C   UNL     1     -35.183  22.946   5.974  0.00  0.00    +0.041 C 
ATOM     20  C   UNL     1     -35.349  21.801   5.203  0.00  0.00    +0.153 C 
ATOM     21  C   UNL     1     -35.405  21.948   3.826  0.00  0.00    +0.137 C 
ATOM     22  H   UNL     1     -35.090  25.505   2.365  0.00  0.00    +0.157 HD
BRANCH  20  23
ATOM     23  O   UNL     1     -35.451  20.578   5.779  0.00  0.00    -0.504 OA
ATOM     24  H   UNL     1     -36.212  20.359   6.280  0.00  0.00    +0.292 HD
ENDBRANCH  20  23
ENDBRANCH   7  16
BRANCH   9  25
ATOM     25  O   UNL     1     -37.055  27.411   2.206  0.00  0.00    -0.504 OA
ATOM     26  H   UNL     1     -37.619  27.439   1.459  0.00  0.00    +0.292 HD
ENDBRANCH   9  25
TORSDOF 3
ENDMDL
MODEL 4
REMARK VINA RESULT:      -6.2      3.646      5.166
REMARK  Name = 54692969
REMARK  3 active torsions:
REMARK  status: ('A' for Active; 'I' for Inactive)
REMARK    1  A    between atoms: C_7  and  C_16
REMARK    2  A    between atoms: C_9  and  O_25
REMARK    3  A    between atoms: C_20  and  O_23
REMARK                            x       y       z     vdW  Elec       q    Type
REMARK                         _______ _______ _______ _____ _____    ______ ____
ROOT
ATOM      1  S   UNL     1     -43.060  25.296   0.847  0.00  0.00    +0.077 S 
ATOM      2  S   UNL     1     -44.135  27.157   4.417  0.00  0.00    -0.082 S 
ATOM      3  O   UNL     1     -43.664  23.987   0.714  0.00  0.00    -0.150 OA
ATOM      4  O   UNL     1     -43.191  26.314  -0.175  0.00  0.00    -0.150 OA
ATOM      5  N   UNL     1     -41.419  25.134   1.308  0.00  0.00    -0.181 N 
ATOM      6  C   UNL     1     -43.857  25.975   2.194  0.00  0.00    +0.135 C 
ATOM      7  C   UNL     1     -40.875  26.027   2.317  0.00  0.00    +0.156 C 
ATOM      8  C   UNL     1     -43.096  26.550   3.182  0.00  0.00    +0.083 C 
ATOM      9  C   UNL     1     -41.670  26.657   3.213  0.00  0.00    +0.160 C 
ATOM     10  C   UNL     1     -45.254  26.021   2.401  0.00  0.00    +0.028 C 
ATOM     11  C   UNL     1     -40.532  24.463   0.327  0.00  0.00    +0.139 C 
ATOM     12  C   UNL     1     -45.547  26.644   3.592  0.00  0.00    +0.037 C 
ENDROOT
BRANCH   7  16
ATOM     13  O   UNL     1     -38.856  26.976   1.626  0.00  0.00    -0.268 OA
ATOM     14  N   UNL     1     -38.843  25.356   3.335  0.00  0.00    -0.265 N 
ATOM     15  N   UNL     1     -37.111  24.371   4.636  0.00  0.00    -0.226 NA
ATOM     16  C   UNL     1     -39.411  26.182   2.379  0.00  0.00    +0.269 C 
ATOM     17  C   UNL     1     -37.471  25.241   3.665  0.00  0.00    +0.135 C 
ATOM     18  C   UNL     1     -36.576  26.035   2.966  0.00  0.00    +0.038 C 
ATOM     19  C   UNL     1     -35.226  25.928   3.282  0.00  0.00    +0.041 C 
ATOM     20  C   UNL     1     -34.818  25.044   4.275  0.00  0.00    +0.153 C 
ATOM     21  C   UNL     1     -35.791  24.294   4.916  0.00  0.00    +0.137 C 
ATOM     22  H   UNL     1     -39.464  24.784   3.841  0.00  0.00    +0.157 HD
BRANCH  20  23
ATOM     23  O   UNL     1     -33.509  24.917   4.604  0.00  0.00    -0.504 OA
ATOM     24  H   UNL     1     -32.870  24.772   3.934  0.00  0.00    +0.292 HD
ENDBRANCH  20  23
ENDBRANCH   7  16
BRANCH   9  25
ATOM     25  O   UNL     1     -41.208  27.460   4.241  0.00  0.00    -0.504 OA
ATOM     26  H   UNL     1     -40.458  27.199   4.737  0.00  0.00    +0.292 HD
ENDBRANCH   9  25
TORSDOF 3
ENDMDL
MODEL 5
REMARK VINA RESULT:      -5.8      3.996      5.522
REMARK  Name = 54692969
REMARK  3 active torsions:
REMARK  status: ('A' for Active; 'I' for Inactive)
REMARK    1  A    between atoms: C_7  and  C_16
REMARK    2  A    between atoms: C_9  and  O_25
REMARK    3  A    between atoms: C_20  and  O_23
REMARK                            x       y       z     vdW  Elec       q    Type
REMARK                         _______ _______ _______ _____ _____    ______ ____
ROOT
ATOM      1  S   UNL     1     -34.737  18.613  -0.816  0.00  0.00    +0.077 S 
ATOM      2  S   UNL     1     -38.881  18.504  -1.233  0.00  0.00    -0.082 S 
ATOM      3  O   UNL     1     -34.159  17.285  -0.791  0.00  0.00    -0.150 OA
ATOM      4  O   UNL     1     -34.281  19.634  -1.737  0.00  0.00    -0.150 OA
ATOM      5  N   UNL     1     -34.811  19.244   0.773  0.00  0.00    -0.181 N 
ATOM      6  C   UNL     1     -36.353  18.341  -1.286  0.00  0.00    +0.135 C 
ATOM      7  C   UNL     1     -36.001  19.964   1.195  0.00  0.00    +0.156 C 
ATOM      8  C   UNL     1     -37.354  18.933  -0.555  0.00  0.00    +0.083 C 
ATOM      9  C   UNL     1     -37.196  19.781   0.585  0.00  0.00    +0.160 C 
ATOM     10  C   UNL     1     -36.785  17.563  -2.383  0.00  0.00    +0.028 C 
ATOM     11  C   UNL     1     -33.508  19.469   1.445  0.00  0.00    +0.139 C 
ATOM     12  C   UNL     1     -38.158  17.565  -2.469  0.00  0.00    +0.037 C 
ENDROOT
BRANCH   7  16
ATOM     13  O   UNL     1     -35.450  20.426   3.417  0.00  0.00    -0.268 OA
ATOM     14  N   UNL     1     -36.308  22.149   2.059  0.00  0.00    -0.265 N 
ATOM     15  N   UNL     1     -36.789  24.446   2.449  0.00  0.00    -0.226 NA
ATOM     16  C   UNL     1     -35.884  20.863   2.356  0.00  0.00    +0.269 C 
ATOM     17  C   UNL     1     -36.337  23.266   2.929  0.00  0.00    +0.135 C 
ATOM     18  C   UNL     1     -35.895  23.076   4.229  0.00  0.00    +0.038 C 
ATOM     19  C   UNL     1     -35.921  24.167   5.091  0.00  0.00    +0.041 C 
ATOM     20  C   UNL     1     -36.379  25.397   4.633  0.00  0.00    +0.153 C 
ATOM     21  C   UNL     1     -36.799  25.484   3.315  0.00  0.00    +0.137 C 
ATOM     22  H   UNL     1     -36.626  22.302   1.141  0.00  0.00    +0.157 HD
BRANCH  20  23
ATOM     23  O   UNL     1     -36.417  26.478   5.451  0.00  0.00    -0.504 OA
ATOM     24  H   UNL     1     -35.837  27.198   5.301  0.00  0.00    +0.292 HD
ENDBRANCH  20  23
ENDBRANCH   7  16
BRANCH   9  25
ATOM     25  O   UNL     1     -38.377  20.380   0.985  0.00  0.00    -0.504 OA
ATOM     26  H   UNL     1     -38.630  21.205   0.620  0.00  0.00    +0.292 HD
ENDBRANCH   9  25
TORSDOF 3
ENDMDL
MODEL 6
REMARK VINA RESULT:      -5.8      3.869      6.292
REMARK  Name = 54692969
REMARK  3 active torsions:
REMARK  status: ('A' for Active; 'I' for Inactive)
REMARK    1  A    between atoms: C_7  and  C_16
REMARK    2  A    between atoms: C_9  and  O_25
REMARK    3  A    between atoms: C_20  and  O_23
REMARK                            x       y       z     vdW  Elec       q    Type
REMARK                         _______ _______ _______ _____ _____    ______ ____
ROOT
ATOM      1  S   UNL     1     -36.153  28.608   0.672  0.00  0.00    +0.077 S 
ATOM      2  S   UNL     1     -33.044  30.943   2.170  0.00  0.00    -0.082 S 
ATOM      3  O   UNL     1     -37.346  29.390   0.421  0.00  0.00    -0.150 OA
ATOM      4  O   UNL     1     -35.552  27.770  -0.345  0.00  0.00    -0.150 OA
ATOM      5  N   UNL     1     -36.330  27.729   2.129  0.00  0.00    -0.181 N 
ATOM      6  C   UNL     1     -34.957  29.784   0.980  0.00  0.00    +0.135 C 
ATOM      7  C   UNL     1     -35.208  27.648   3.050  0.00  0.00    +0.156 C 
ATOM      8  C   UNL     1     -34.162  29.633   2.089  0.00  0.00    +0.083 C 
ATOM      9  C   UNL     1     -34.216  28.569   3.044  0.00  0.00    +0.160 C 
ATOM     10  C   UNL     1     -34.680  30.922   0.188  0.00  0.00    +0.028 C 
ATOM     11  C   UNL     1     -37.401  26.703   2.143  0.00  0.00    +0.139 C 
ATOM     12  C   UNL     1     -33.648  31.651   0.731  0.00  0.00    +0.037 C 
ENDROOT
BRANCH   7  16
ATOM     13  O   UNL     1     -35.170  26.830   5.237  0.00  0.00    -0.268 OA
ATOM     14  N   UNL     1     -35.262  25.312   3.439  0.00  0.00    -0.265 N 
ATOM     15  N   UNL     1     -35.330  22.937   3.312  0.00  0.00    -0.226 NA
ATOM     16  C   UNL     1     -35.211  26.559   4.041  0.00  0.00    +0.269 C 
ATOM     17  C   UNL     1     -35.278  24.049   4.080  0.00  0.00    +0.135 C 
ATOM     18  C   UNL     1     -35.240  24.033   5.465  0.00  0.00    +0.038 C 
ATOM     19  C   UNL     1     -35.254  22.798   6.103  0.00  0.00    +0.041 C 
ATOM     20  C   UNL     1     -35.307  21.633   5.347  0.00  0.00    +0.153 C 
ATOM     21  C   UNL     1     -35.343  21.754   3.967  0.00  0.00    +0.137 C 
ATOM     22  H   UNL     1     -35.289  25.303   2.455  0.00  0.00    +0.157 HD
BRANCH  20  23
ATOM     23  O   UNL     1     -35.321  20.414   5.941  0.00  0.00    -0.504 OA
ATOM     24  H   UNL     1     -34.888  20.288   6.763  0.00  0.00    +0.292 HD
ENDBRANCH  20  23
ENDBRANCH   7  16
BRANCH   9  25
ATOM     25  O   UNL     1     -33.162  28.588   3.939  0.00  0.00    -0.504 OA
ATOM     26  H   UNL     1     -32.349  28.983   3.695  0.00  0.00    +0.292 HD
ENDBRANCH   9  25
TORSDOF 3
ENDMDL
MODEL 7
REMARK VINA RESULT:      -5.8      3.369      7.294
REMARK  Name = 54692969
REMARK  3 active torsions:
REMARK  status: ('A' for Active; 'I' for Inactive)
REMARK    1  A    between atoms: C_7  and  C_16
REMARK    2  A    between atoms: C_9  and  O_25
REMARK    3  A    between atoms: C_20  and  O_23
REMARK                            x       y       z     vdW  Elec       q    Type
REMARK                         _______ _______ _______ _____ _____    ______ ____
ROOT
ATOM      1  S   UNL     1     -34.532  25.585   4.686  0.00  0.00    +0.077 S 
ATOM      2  S   UNL     1     -33.934  29.211   2.724  0.00  0.00    -0.082 S 
ATOM      3  O   UNL     1     -33.387  24.706   4.564  0.00  0.00    -0.150 OA
ATOM      4  O   UNL     1     -35.105  25.929   5.971  0.00  0.00    -0.150 OA
ATOM      5  N   UNL     1     -35.763  25.087   3.606  0.00  0.00    -0.181 N 
ATOM      6  C   UNL     1     -33.962  27.077   4.088  0.00  0.00    +0.135 C 
ATOM      7  C   UNL     1     -36.498  26.093   2.857  0.00  0.00    +0.156 C 
ATOM      8  C   UNL     1     -34.725  27.743   3.161  0.00  0.00    +0.083 C 
ATOM      9  C   UNL     1     -35.983  27.323   2.625  0.00  0.00    +0.160 C 
ATOM     10  C   UNL     1     -32.764  27.725   4.464  0.00  0.00    +0.028 C 
ATOM     11  C   UNL     1     -36.350  23.749   3.861  0.00  0.00    +0.139 C 
ATOM     12  C   UNL     1     -32.622  28.913   3.785  0.00  0.00    +0.037 C 
ENDROOT
BRANCH   7  16
ATOM     13  O   UNL     1     -37.855  24.951   1.338  0.00  0.00    -0.268 OA
ATOM     14  N   UNL     1     -38.854  26.310   2.983  0.00  0.00    -0.265 N 
ATOM     15  N   UNL     1     -41.113  26.840   3.509  0.00  0.00    -0.226 NA
ATOM     16  C   UNL     1     -37.807  25.713   2.299  0.00  0.00    +0.269 C 
ATOM     17  C   UNL     1     -40.239  26.172   2.723  0.00  0.00    +0.135 C 
ATOM     18  C   UNL     1     -40.614  25.353   1.670  0.00  0.00    +0.038 C 
ATOM     19  C   UNL     1     -41.972  25.212   1.405  0.00  0.00    +0.041 C 
ATOM     20  C   UNL     1     -42.900  25.884   2.192  0.00  0.00    +0.153 C 
ATOM     21  C   UNL     1     -42.424  26.679   3.222  0.00  0.00    +0.137 C 
ATOM     22  H   UNL     1     -38.606  26.896   3.734  0.00  0.00    +0.157 HD
BRANCH  20  23
ATOM     23  O   UNL     1     -44.231  25.768   1.958  0.00  0.00    -0.504 OA
ATOM     24  H   UNL     1     -44.539  25.575   1.095  0.00  0.00    +0.292 HD
ENDBRANCH  20  23
ENDBRANCH   7  16
BRANCH   9  25
ATOM     25  O   UNL     1     -36.599  28.297   1.859  0.00  0.00    -0.504 OA
ATOM     26  H   UNL     1     -36.338  29.192   1.943  0.00  0.00    +0.292 HD
ENDBRANCH   9  25
TORSDOF 3
ENDMDL
MODEL 8
REMARK VINA RESULT:      -5.7      4.288      8.649
REMARK  Name = 54692969
REMARK  3 active torsions:
REMARK  status: ('A' for Active; 'I' for Inactive)
REMARK    1  A    between atoms: C_7  and  C_16
REMARK    2  A    between atoms: C_9  and  O_25
REMARK    3  A    between atoms: C_20  and  O_23
REMARK                            x       y       z     vdW  Elec       q    Type
REMARK                         _______ _______ _______ _____ _____    ______ ____
ROOT
ATOM      1  S   UNL     1     -31.319  30.298   3.311  0.00  0.00    +0.077 S 
ATOM      2  S   UNL     1     -28.517  29.867   6.364  0.00  0.00    -0.082 S 
ATOM      3  O   UNL     1     -31.807  31.658   3.210  0.00  0.00    -0.150 OA
ATOM      4  O   UNL     1     -30.766  29.591   2.175  0.00  0.00    -0.150 OA
ATOM      5  N   UNL     1     -32.481  29.322   4.102  0.00  0.00    -0.181 N 
ATOM      6  C   UNL     1     -30.002  30.419   4.388  0.00  0.00    +0.135 C 
ATOM      7  C   UNL     1     -32.038  28.353   5.092  0.00  0.00    +0.156 C 
ATOM      8  C   UNL     1     -29.930  29.534   5.435  0.00  0.00    +0.083 C 
ATOM      9  C   UNL     1     -30.855  28.485   5.736  0.00  0.00    +0.160 C 
ATOM     10  C   UNL     1     -28.942  31.350   4.309  0.00  0.00    +0.028 C 
ATOM     11  C   UNL     1     -33.776  29.152   3.399  0.00  0.00    +0.139 C 
ATOM     12  C   UNL     1     -28.052  31.159   5.340  0.00  0.00    +0.037 C 
ENDROOT
BRANCH   7  16
ATOM     13  O   UNL     1     -33.323  27.095   6.582  0.00  0.00    -0.268 OA
ATOM     14  N   UNL     1     -33.270  26.487   4.307  0.00  0.00    -0.265 N 
ATOM     15  N   UNL     1     -34.304  24.744   3.060  0.00  0.00    -0.226 NA
ATOM     16  C   UNL     1     -32.950  27.244   5.423  0.00  0.00    +0.269 C 
ATOM     17  C   UNL     1     -34.114  25.352   4.253  0.00  0.00    +0.135 C 
ATOM     18  C   UNL     1     -34.697  24.931   5.438  0.00  0.00    +0.038 C 
ATOM     19  C   UNL     1     -35.527  23.816   5.395  0.00  0.00    +0.041 C 
ATOM     20  C   UNL     1     -35.746  23.165   4.186  0.00  0.00    +0.153 C 
ATOM     21  C   UNL     1     -35.116  23.664   3.057  0.00  0.00    +0.137 C 
ATOM     22  H   UNL     1     -32.864  26.770   3.457  0.00  0.00    +0.157 HD
BRANCH  20  23
ATOM     23  O   UNL     1     -36.548  22.075   4.114  0.00  0.00    -0.504 OA
ATOM     24  H   UNL     1     -37.446  22.170   3.861  0.00  0.00    +0.292 HD
ENDBRANCH  20  23
ENDBRANCH   7  16
BRANCH   9  25
ATOM     25  O   UNL     1     -30.411  27.639   6.736  0.00  0.00    -0.504 OA
ATOM     26  H   UNL     1     -30.297  26.727   6.561  0.00  0.00    +0.292 HD
ENDBRANCH   9  25
TORSDOF 3
ENDMDL
MODEL 9
REMARK VINA RESULT:      -5.7      3.519      6.395
REMARK  Name = 54692969
REMARK  3 active torsions:
REMARK  status: ('A' for Active; 'I' for Inactive)
REMARK    1  A    between atoms: C_7  and  C_16
REMARK    2  A    between atoms: C_9  and  O_25
REMARK    3  A    between atoms: C_20  and  O_23
REMARK                            x       y       z     vdW  Elec       q    Type
REMARK                         _______ _______ _______ _____ _____    ______ ____
ROOT
ATOM      1  S   UNL     1     -37.044  24.930   3.315  0.00  0.00    +0.077 S 
ATOM      2  S   UNL     1     -40.357  23.211   1.463  0.00  0.00    -0.082 S 
ATOM      3  O   UNL     1     -36.690  26.203   2.721  0.00  0.00    -0.150 OA
ATOM      4  O   UNL     1     -37.275  24.781   4.737  0.00  0.00    -0.150 OA
ATOM      5  N   UNL     1     -35.976  23.713   2.761  0.00  0.00    -0.181 N 
ATOM      6  C   UNL     1     -38.561  24.569   2.623  0.00  0.00    +0.135 C 
ATOM      7  C   UNL     1     -36.511  22.410   2.401  0.00  0.00    +0.156 C 
ATOM      8  C   UNL     1     -38.755  23.318   2.092  0.00  0.00    +0.083 C 
ATOM      9  C   UNL     1     -37.809  22.246   2.054  0.00  0.00    +0.160 C 
ATOM     10  C   UNL     1     -39.672  25.438   2.547  0.00  0.00    +0.028 C 
ATOM     11  C   UNL     1     -34.554  23.870   3.151  0.00  0.00    +0.139 C 
ATOM     12  C   UNL     1     -40.732  24.817   1.928  0.00  0.00    +0.037 C 
ENDROOT
BRANCH   7  16
ATOM     13  O   UNL     1     -35.346  20.647   3.395  0.00  0.00    -0.268 OA
ATOM     14  N   UNL     1     -35.066  21.063   1.094  0.00  0.00    -0.265 N 
ATOM     15  N   UNL     1     -33.765  20.023  -0.605  0.00  0.00    -0.226 NA
ATOM     16  C   UNL     1     -35.577  21.272   2.365  0.00  0.00    +0.269 C 
ATOM     17  C   UNL     1     -34.146  20.064   0.692  0.00  0.00    +0.135 C 
ATOM     18  C   UNL     1     -33.692  19.184   1.661  0.00  0.00    +0.038 C 
ATOM     19  C   UNL     1     -32.788  18.201   1.276  0.00  0.00    +0.041 C 
ATOM     20  C   UNL     1     -32.372  18.127  -0.048  0.00  0.00    +0.153 C 
ATOM     21  C   UNL     1     -32.885  19.053  -0.943  0.00  0.00    +0.137 C 
ATOM     22  H   UNL     1     -35.376  21.679   0.392  0.00  0.00    +0.157 HD
BRANCH  20  23
ATOM     23  O   UNL     1     -31.490  17.180  -0.454  0.00  0.00    -0.504 OA
ATOM     24  H   UNL     1     -31.051  16.648   0.180  0.00  0.00    +0.292 HD
ENDBRANCH  20  23
ENDBRANCH   7  16
BRANCH   9  25
ATOM     25  O   UNL     1     -38.360  21.049   1.633  0.00  0.00    -0.504 OA
ATOM     26  H   UNL     1     -37.825  20.416   1.198  0.00  0.00    +0.292 HD
ENDBRANCH   9  25
TORSDOF 3
ENDMDL
