MODEL 1
REMARK VINA RESULT:      -5.7      0.000      0.000
REMARK  Name = 54147064
REMARK  7 active torsions:
REMARK  status: ('A' for Active; 'I' for Inactive)
REMARK    1  A    between atoms: N_2  and  C1*_15
REMARK    2  A    between atoms: N_3  and  C_26
REMARK    3  A    between atoms: N_5  and  C_28
REMARK    4  A    between atoms: C2*_16  and  O2*_19
REMARK    5  A    between atoms: C3*_17  and  O3*_21
REMARK    6  A    between atoms: C4*_18  and  C5*_23
REMARK    7  A    between atoms: C5*_23  and  O5*_24
REMARK                            x       y       z     vdW  Elec       q    Type
REMARK                         _______ _______ _______ _____ _____    ______ ____
ROOT
ATOM      1  O   UNL     1     -33.053  29.889   3.448  0.00  0.00    -0.272 OA
ATOM      2  N   UNL     1     -35.144  25.864   3.924  0.00  0.00    -0.247 N 
ATOM      3  N   UNL     1     -33.525  27.265   4.690  0.00  0.00    -0.243 NA
ATOM      4  N   UNL     1     -35.978  27.358   2.095  0.00  0.00    -0.361 NA
ATOM      5  N   UNL     1     -34.799  29.432   1.947  0.00  0.00    -0.221 N 
ATOM      6  N   UNL     1     -36.612  28.868   0.462  0.00  0.00    -0.320 N 
ATOM      7  C   UNL     1     -34.123  25.957   4.978  0.00  0.00    +0.173 C 
ATOM      8  C   UNL     1     -35.161  27.030   3.141  0.00  0.00    +0.189 C 
ATOM      9  C   UNL     1     -34.188  27.835   3.615  0.00  0.00    +0.204 C 
ATOM     10  C   UNL     1     -33.935  29.152   3.019  0.00  0.00    +0.255 C 
ATOM     11  C   UNL     1     -35.800  28.522   1.519  0.00  0.00    +0.242 C 
ATOM     12  H   UNL     1     -37.310  28.246   0.154  0.00  0.00    +0.146 HD
ATOM     13  H   UNL     1     -36.495  29.738   0.016  0.00  0.00    +0.146 HD
ENDROOT
BRANCH   2  15
ATOM     14  O4* UNL     1     -36.273  24.214   5.199  0.00  0.00    -0.333 OA
ATOM     15  C1* UNL     1     -36.088  24.776   3.887  0.00  0.00    +0.225 C 
ATOM     16  C2* UNL     1     -35.571  23.648   3.009  0.00  0.00    +0.187 C 
ATOM     17  C3* UNL     1     -36.211  22.431   3.643  0.00  0.00    +0.171 C 
ATOM     18  C4* UNL     1     -36.153  22.777   5.124  0.00  0.00    +0.175 C 
BRANCH  16  19
ATOM     19  O2* UNL     1     -35.942  23.800   1.653  0.00  0.00    -0.378 OA
ATOM     20  H2* UNL     1     -36.077  24.742   1.459  0.00  0.00    +0.211 HD
ENDBRANCH  16  19
BRANCH  17  21
ATOM     21  O3* UNL     1     -37.584  22.340   3.266  0.00  0.00    -0.379 OA
ATOM     22  H3* UNL     1     -37.744  21.491   2.824  0.00  0.00    +0.211 HD
ENDBRANCH  17  21
BRANCH  18  23
ATOM     23  C5* UNL     1     -34.843  22.374   5.787  0.00  0.00    +0.169 C 
BRANCH  23  24
ATOM     24  O5* UNL     1     -34.782  20.960   5.848  0.00  0.00    -0.379 OA
ATOM     25  H5* UNL     1     -33.855  20.675   5.818  0.00  0.00    +0.211 HD
ENDBRANCH  23  24
ENDBRANCH  18  23
ENDBRANCH   2  15
BRANCH   3  26
ATOM     26  C   UNL     1     -32.462  27.800   5.498  0.00  0.00    +0.075 C 
ATOM     27  C   UNL     1     -32.570  27.273   6.917  0.00  0.00    +0.019 C 
ENDBRANCH   3  26
BRANCH   5  28
ATOM     28  C   UNL     1     -34.645  30.717   1.268  0.00  0.00    +0.102 C 
ATOM     29  C   UNL     1     -35.452  31.784   1.982  0.00  0.00    +0.024 C 
ENDBRANCH   5  28
TORSDOF 7
ENDMDL
MODEL 2
REMARK VINA RESULT:      -5.6      2.848      4.557
REMARK  Name = 54147064
REMARK  7 active torsions:
REMARK  status: ('A' for Active; 'I' for Inactive)
REMARK    1  A    between atoms: N_2  and  C1*_15
REMARK    2  A    between atoms: N_3  and  C_26
REMARK    3  A    between atoms: N_5  and  C_28
REMARK    4  A    between atoms: C2*_16  and  O2*_19
REMARK    5  A    between atoms: C3*_17  and  O3*_21
REMARK    6  A    between atoms: C4*_18  and  C5*_23
REMARK    7  A    between atoms: C5*_23  and  O5*_24
REMARK                            x       y       z     vdW  Elec       q    Type
REMARK                         _______ _______ _______ _____ _____    ______ ____
ROOT
ATOM      1  O   UNL     1     -33.345  24.756   4.871  0.00  0.00    -0.272 OA
ATOM      2  N   UNL     1     -37.440  24.481   2.882  0.00  0.00    -0.247 N 
ATOM      3  N   UNL     1     -35.794  23.380   4.000  0.00  0.00    -0.243 NA
ATOM      4  N   UNL     1     -36.330  26.726   2.872  0.00  0.00    -0.361 NA
ATOM      5  N   UNL     1     -34.192  26.738   3.939  0.00  0.00    -0.221 N 
ATOM      6  N   UNL     1     -35.157  28.717   2.960  0.00  0.00    -0.320 N 
ATOM      7  C   UNL     1     -37.124  23.152   3.425  0.00  0.00    +0.173 C 
ATOM      8  C   UNL     1     -36.409  25.393   3.165  0.00  0.00    +0.189 C 
ATOM      9  C   UNL     1     -35.449  24.710   3.820  0.00  0.00    +0.204 C 
ATOM     10  C   UNL     1     -34.220  25.372   4.273  0.00  0.00    +0.255 C 
ATOM     11  C   UNL     1     -35.254  27.374   3.248  0.00  0.00    +0.242 C 
ATOM     12  H   UNL     1     -35.886  29.172   2.480  0.00  0.00    +0.146 HD
ATOM     13  H   UNL     1     -34.357  29.222   3.234  0.00  0.00    +0.146 HD
ENDROOT
BRANCH   2  15
ATOM     14  O4* UNL     1     -39.672  23.727   2.623  0.00  0.00    -0.333 OA
ATOM     15  C1* UNL     1     -38.733  24.775   2.320  0.00  0.00    +0.225 C 
ATOM     16  C2* UNL     1     -38.654  24.851   0.803  0.00  0.00    +0.187 C 
ATOM     17  C3* UNL     1     -40.044  24.417   0.389  0.00  0.00    +0.171 C 
ATOM     18  C4* UNL     1     -40.359  23.337   1.414  0.00  0.00    +0.175 C 
BRANCH  16  19
ATOM     19  O2* UNL     1     -38.339  26.149   0.340  0.00  0.00    -0.378 OA
ATOM     20  H2* UNL     1     -39.107  26.730   0.459  0.00  0.00    +0.211 HD
ENDBRANCH  16  19
BRANCH  17  21
ATOM     21  O3* UNL     1     -40.972  25.485   0.576  0.00  0.00    -0.379 OA
ATOM     22  H3* UNL     1     -40.688  26.034   1.323  0.00  0.00    +0.211 HD
ENDBRANCH  17  21
BRANCH  18  23
ATOM     23  C5* UNL     1     -39.859  21.957   1.008  0.00  0.00    +0.169 C 
BRANCH  23  24
ATOM     24  O5* UNL     1     -40.142  21.047   2.057  0.00  0.00    -0.379 OA
ATOM     25  H5* UNL     1     -40.992  20.611   1.886  0.00  0.00    +0.211 HD
ENDBRANCH  23  24
ENDBRANCH  18  23
ENDBRANCH   2  15
BRANCH   3  26
ATOM     26  C   UNL     1     -35.076  22.331   4.674  0.00  0.00    +0.075 C 
ATOM     27  C   UNL     1     -35.525  22.239   6.120  0.00  0.00    +0.019 C 
ENDBRANCH   3  26
BRANCH   5  28
ATOM     28  C   UNL     1     -33.015  27.509   4.336  0.00  0.00    +0.102 C 
ATOM     29  C   UNL     1     -31.971  27.468   3.237  0.00  0.00    +0.024 C 
ENDBRANCH   5  28
TORSDOF 7
ENDMDL
MODEL 3
REMARK VINA RESULT:      -5.6      4.127      7.097
REMARK  Name = 54147064
REMARK  7 active torsions:
REMARK  status: ('A' for Active; 'I' for Inactive)
REMARK    1  A    between atoms: N_2  and  C1*_15
REMARK    2  A    between atoms: N_3  and  C_26
REMARK    3  A    between atoms: N_5  and  C_28
REMARK    4  A    between atoms: C2*_16  and  O2*_19
REMARK    5  A    between atoms: C3*_17  and  O3*_21
REMARK    6  A    between atoms: C4*_18  and  C5*_23
REMARK    7  A    between atoms: C5*_23  and  O5*_24
REMARK                            x       y       z     vdW  Elec       q    Type
REMARK                         _______ _______ _______ _____ _____    ______ ____
ROOT
ATOM      1  O   UNL     1     -36.375  22.156  -2.130  0.00  0.00    -0.272 OA
ATOM      2  N   UNL     1     -36.295  22.811   2.383  0.00  0.00    -0.247 N 
ATOM      3  N   UNL     1     -36.153  23.763   0.323  0.00  0.00    -0.243 NA
ATOM      4  N   UNL     1     -36.646  20.461   1.591  0.00  0.00    -0.361 NA
ATOM      5  N   UNL     1     -36.664  20.250  -0.789  0.00  0.00    -0.221 N 
ATOM      6  N   UNL     1     -36.960  18.360   0.677  0.00  0.00    -0.320 N 
ATOM      7  C   UNL     1     -36.137  24.125   1.744  0.00  0.00    +0.173 C 
ATOM      8  C   UNL     1     -36.439  21.801   1.417  0.00  0.00    +0.189 C 
ATOM      9  C   UNL     1     -36.344  22.395   0.211  0.00  0.00    +0.204 C 
ATOM     10  C   UNL     1     -36.458  21.619  -1.030  0.00  0.00    +0.255 C 
ATOM     11  C   UNL     1     -36.754  19.712   0.520  0.00  0.00    +0.242 C 
ATOM     12  H   UNL     1     -37.024  17.973   1.580  0.00  0.00    +0.146 HD
ATOM     13  H   UNL     1     -37.045  17.780  -0.114  0.00  0.00    +0.146 HD
ENDROOT
BRANCH   2  15
ATOM     14  O4* UNL     1     -36.623  23.976   4.421  0.00  0.00    -0.333 OA
ATOM     15  C1* UNL     1     -36.463  22.683   3.808  0.00  0.00    +0.225 C 
ATOM     16  C2* UNL     1     -35.228  22.061   4.440  0.00  0.00    +0.187 C 
ATOM     17  C3* UNL     1     -35.242  22.665   5.829  0.00  0.00    +0.171 C 
ATOM     18  C4* UNL     1     -35.735  24.079   5.555  0.00  0.00    +0.175 C 
BRANCH  16  19
ATOM     19  O2* UNL     1     -35.287  20.649   4.472  0.00  0.00    -0.378 OA
ATOM     20  H2* UNL     1     -35.848  20.333   3.746  0.00  0.00    +0.211 HD
ENDBRANCH  16  19
BRANCH  17  21
ATOM     21  O3* UNL     1     -36.213  22.011   6.644  0.00  0.00    -0.379 OA
ATOM     22  H3* UNL     1     -37.069  22.006   6.188  0.00  0.00    +0.211 HD
ENDBRANCH  17  21
BRANCH  18  23
ATOM     23  C5* UNL     1     -34.617  25.049   5.196  0.00  0.00    +0.169 C 
BRANCH  23  24
ATOM     24  O5* UNL     1     -35.019  26.358   5.558  0.00  0.00    -0.379 OA
ATOM     25  H5* UNL     1     -35.941  26.341   5.861  0.00  0.00    +0.211 HD
ENDBRANCH  23  24
ENDBRANCH  18  23
ENDBRANCH   2  15
BRANCH   3  26
ATOM     26  C   UNL     1     -36.041  24.760  -0.708  0.00  0.00    +0.075 C 
ATOM     27  C   UNL     1     -34.582  25.092  -0.956  0.00  0.00    +0.019 C 
ENDBRANCH   3  26
BRANCH   5  28
ATOM     28  C   UNL     1     -36.792  19.369  -1.949  0.00  0.00    +0.102 C 
ATOM     29  C   UNL     1     -35.423  18.897  -2.399  0.00  0.00    +0.024 C 
ENDBRANCH   5  28
TORSDOF 7
ENDMDL
MODEL 4
REMARK VINA RESULT:      -5.6      4.163      7.441
REMARK  Name = 54147064
REMARK  7 active torsions:
REMARK  status: ('A' for Active; 'I' for Inactive)
REMARK    1  A    between atoms: N_2  and  C1*_15
REMARK    2  A    between atoms: N_3  and  C_26
REMARK    3  A    between atoms: N_5  and  C_28
REMARK    4  A    between atoms: C2*_16  and  O2*_19
REMARK    5  A    between atoms: C3*_17  and  O3*_21
REMARK    6  A    between atoms: C4*_18  and  C5*_23
REMARK    7  A    between atoms: C5*_23  and  O5*_24
REMARK                            x       y       z     vdW  Elec       q    Type
REMARK                         _______ _______ _______ _____ _____    ______ ____
ROOT
ATOM      1  O   UNL     1     -39.025  20.281   0.111  0.00  0.00    -0.272 OA
ATOM      2  N   UNL     1     -36.790  23.389   2.590  0.00  0.00    -0.247 N 
ATOM      3  N   UNL     1     -38.721  22.844   1.521  0.00  0.00    -0.243 NA
ATOM      4  N   UNL     1     -35.559  21.273   2.058  0.00  0.00    -0.361 NA
ATOM      5  N   UNL     1     -36.835  19.730   0.754  0.00  0.00    -0.221 N 
ATOM      6  N   UNL     1     -34.583  19.260   1.473  0.00  0.00    -0.320 N 
ATOM      7  C   UNL     1     -38.138  23.916   2.335  0.00  0.00    +0.173 C 
ATOM      8  C   UNL     1     -36.636  22.114   2.018  0.00  0.00    +0.189 C 
ATOM      9  C   UNL     1     -37.792  21.825   1.389  0.00  0.00    +0.204 C 
ATOM     10  C   UNL     1     -37.974  20.550   0.683  0.00  0.00    +0.255 C 
ATOM     11  C   UNL     1     -35.659  20.119   1.444  0.00  0.00    +0.242 C 
ATOM     12  H   UNL     1     -33.760  19.517   1.947  0.00  0.00    +0.146 HD
ATOM     13  H   UNL     1     -34.638  18.388   1.018  0.00  0.00    +0.146 HD
ENDROOT
BRANCH   2  15
ATOM     14  O4* UNL     1     -34.908  23.138   4.009  0.00  0.00    -0.333 OA
ATOM     15  C1* UNL     1     -35.875  24.062   3.476  0.00  0.00    +0.225 C 
ATOM     16  C2* UNL     1     -36.614  24.643   4.670  0.00  0.00    +0.187 C 
ATOM     17  C3* UNL     1     -35.553  24.607   5.750  0.00  0.00    +0.171 C 
ATOM     18  C4* UNL     1     -34.829  23.304   5.442  0.00  0.00    +0.175 C 
BRANCH  16  19
ATOM     19  O2* UNL     1     -37.089  25.953   4.431  0.00  0.00    -0.378 OA
ATOM     20  H2* UNL     1     -37.519  26.292   5.232  0.00  0.00    +0.211 HD
ENDBRANCH  16  19
BRANCH  17  21
ATOM     21  O3* UNL     1     -34.628  25.678   5.572  0.00  0.00    -0.379 OA
ATOM     22  H3* UNL     1     -34.319  25.689   4.652  0.00  0.00    +0.211 HD
ENDBRANCH  17  21
BRANCH  18  23
ATOM     23  C5* UNL     1     -35.470  22.088   6.097  0.00  0.00    +0.169 C 
BRANCH  23  24
ATOM     24  O5* UNL     1     -35.188  20.947   5.306  0.00  0.00    -0.379 OA
ATOM     25  H5* UNL     1     -35.548  21.075   4.414  0.00  0.00    +0.211 HD
ENDBRANCH  23  24
ENDBRANCH  18  23
ENDBRANCH   2  15
BRANCH   3  26
ATOM     26  C   UNL     1     -40.075  22.918   1.039  0.00  0.00    +0.075 C 
ATOM     27  C   UNL     1     -40.698  24.242   1.437  0.00  0.00    +0.019 C 
ENDBRANCH   3  26
BRANCH   5  28
ATOM     28  C   UNL     1     -36.892  18.431   0.086  0.00  0.00    +0.102 C 
ATOM     29  C   UNL     1     -36.492  18.575  -1.370  0.00  0.00    +0.024 C 
ENDBRANCH   5  28
TORSDOF 7
ENDMDL
MODEL 5
REMARK VINA RESULT:      -5.5      3.754      6.697
REMARK  Name = 54147064
REMARK  7 active torsions:
REMARK  status: ('A' for Active; 'I' for Inactive)
REMARK    1  A    between atoms: N_2  and  C1*_15
REMARK    2  A    between atoms: N_3  and  C_26
REMARK    3  A    between atoms: N_5  and  C_28
REMARK    4  A    between atoms: C2*_16  and  O2*_19
REMARK    5  A    between atoms: C3*_17  and  O3*_21
REMARK    6  A    between atoms: C4*_18  and  C5*_23
REMARK    7  A    between atoms: C5*_23  and  O5*_24
REMARK                            x       y       z     vdW  Elec       q    Type
REMARK                         _______ _______ _______ _____ _____    ______ ____
ROOT
ATOM      1  O   UNL     1     -41.059  23.469   1.003  0.00  0.00    -0.272 OA
ATOM      2  N   UNL     1     -37.213  24.966   2.943  0.00  0.00    -0.247 N 
ATOM      3  N   UNL     1     -39.295  25.495   2.198  0.00  0.00    -0.243 NA
ATOM      4  N   UNL     1     -37.311  22.530   2.367  0.00  0.00    -0.361 NA
ATOM      5  N   UNL     1     -39.374  21.873   1.355  0.00  0.00    -0.221 N 
ATOM      6  N   UNL     1     -37.583  20.313   1.769  0.00  0.00    -0.320 N 
ATOM      7  C   UNL     1     -38.135  26.107   2.854  0.00  0.00    +0.173 C 
ATOM      8  C   UNL     1     -37.811  23.801   2.433  0.00  0.00    +0.189 C 
ATOM      9  C   UNL     1     -39.037  24.149   1.995  0.00  0.00    +0.204 C 
ATOM     10  C   UNL     1     -39.942  23.158   1.400  0.00  0.00    +0.255 C 
ATOM     11  C   UNL     1     -38.071  21.599   1.844  0.00  0.00    +0.242 C 
ATOM     12  H   UNL     1     -36.681  20.109   2.104  0.00  0.00    +0.146 HD
ATOM     13  H   UNL     1     -38.138  19.599   1.380  0.00  0.00    +0.146 HD
ENDROOT
BRANCH   2  15
ATOM     14  O4* UNL     1     -35.230  23.826   3.566  0.00  0.00    -0.333 OA
ATOM     15  C1* UNL     1     -35.959  25.065   3.646  0.00  0.00    +0.225 C 
ATOM     16  C2* UNL     1     -36.193  25.327   5.125  0.00  0.00    +0.187 C 
ATOM     17  C3* UNL     1     -34.980  24.682   5.760  0.00  0.00    +0.171 C 
ATOM     18  C4* UNL     1     -34.782  23.451   4.886  0.00  0.00    +0.175 C 
BRANCH  16  19
ATOM     19  O2* UNL     1     -36.283  26.706   5.425  0.00  0.00    -0.378 OA
ATOM     20  H2* UNL     1     -37.093  27.070   5.034  0.00  0.00    +0.211 HD
ENDBRANCH  16  19
BRANCH  17  21
ATOM     21  O3* UNL     1     -33.835  25.519   5.606  0.00  0.00    -0.379 OA
ATOM     22  H3* UNL     1     -33.552  25.844   6.475  0.00  0.00    +0.211 HD
ENDBRANCH  17  21
BRANCH  18  23
ATOM     23  C5* UNL     1     -35.600  22.250   5.342  0.00  0.00    +0.169 C 
BRANCH  23  24
ATOM     24  O5* UNL     1     -35.592  21.278   4.311  0.00  0.00    -0.379 OA
ATOM     25  H5* UNL     1     -35.134  21.636   3.534  0.00  0.00    +0.211 HD
ENDBRANCH  23  24
ENDBRANCH  18  23
ENDBRANCH   2  15
BRANCH   3  26
ATOM     26  C   UNL     1     -40.484  26.254   1.913  0.00  0.00    +0.075 C 
ATOM     27  C   UNL     1     -41.291  26.455   3.181  0.00  0.00    +0.019 C 
ENDBRANCH   3  26
BRANCH   5  28
ATOM     28  C   UNL     1     -40.178  20.795   0.781  0.00  0.00    +0.102 C 
ATOM     29  C   UNL     1     -39.976  20.736  -0.721  0.00  0.00    +0.024 C 
ENDBRANCH   5  28
TORSDOF 7
ENDMDL
MODEL 6
REMARK VINA RESULT:      -5.5      4.312      6.968
REMARK  Name = 54147064
REMARK  7 active torsions:
REMARK  status: ('A' for Active; 'I' for Inactive)
REMARK    1  A    between atoms: N_2  and  C1*_15
REMARK    2  A    between atoms: N_3  and  C_26
REMARK    3  A    between atoms: N_5  and  C_28
REMARK    4  A    between atoms: C2*_16  and  O2*_19
REMARK    5  A    between atoms: C3*_17  and  O3*_21
REMARK    6  A    between atoms: C4*_18  and  C5*_23
REMARK    7  A    between atoms: C5*_23  and  O5*_24
REMARK                            x       y       z     vdW  Elec       q    Type
REMARK                         _______ _______ _______ _____ _____    ______ ____
ROOT
ATOM      1  O   UNL     1     -35.040  20.625   3.317  0.00  0.00    -0.272 OA
ATOM      2  N   UNL     1     -38.040  24.060   3.355  0.00  0.00    -0.247 N 
ATOM      3  N   UNL     1     -36.193  23.141   4.311  0.00  0.00    -0.243 NA
ATOM      4  N   UNL     1     -38.357  22.306   1.596  0.00  0.00    -0.361 NA
ATOM      5  N   UNL     1     -36.726  20.562   1.684  0.00  0.00    -0.221 N 
ATOM      6  N   UNL     1     -38.492  20.597   0.044  0.00  0.00    -0.320 N 
ATOM      7  C   UNL     1     -37.062  24.318   4.422  0.00  0.00    +0.173 C 
ATOM      8  C   UNL     1     -37.728  22.875   2.668  0.00  0.00    +0.189 C 
ATOM      9  C   UNL     1     -36.636  22.353   3.261  0.00  0.00    +0.204 C 
ATOM     10  C   UNL     1     -36.035  21.102   2.782  0.00  0.00    +0.255 C 
ATOM     11  C   UNL     1     -37.870  21.185   1.122  0.00  0.00    +0.242 C 
ATOM     12  H   UNL     1     -39.286  21.018  -0.356  0.00  0.00    +0.146 HD
ATOM     13  H   UNL     1     -38.141  19.755  -0.328  0.00  0.00    +0.146 HD
ENDROOT
BRANCH   2  15
ATOM     14  O4* UNL     1     -40.262  24.390   2.596  0.00  0.00    -0.333 OA
ATOM     15  C1* UNL     1     -39.040  25.035   3.000  0.00  0.00    +0.225 C 
ATOM     16  C2* UNL     1     -38.582  25.864   1.811  0.00  0.00    +0.187 C 
ATOM     17  C3* UNL     1     -39.895  26.231   1.153  0.00  0.00    +0.171 C 
ATOM     18  C4* UNL     1     -40.714  24.963   1.350  0.00  0.00    +0.175 C 
BRANCH  16  19
ATOM     19  O2* UNL     1     -37.841  27.005   2.197  0.00  0.00    -0.378 OA
ATOM     20  H2* UNL     1     -37.205  26.759   2.887  0.00  0.00    +0.211 HD
ENDBRANCH  16  19
BRANCH  17  21
ATOM     21  O3* UNL     1     -40.533  27.284   1.873  0.00  0.00    -0.379 OA
ATOM     22  H3* UNL     1     -40.697  27.000   2.786  0.00  0.00    +0.211 HD
ENDBRANCH  17  21
BRANCH  18  23
ATOM     23  C5* UNL     1     -40.504  23.932   0.250  0.00  0.00    +0.169 C 
BRANCH  23  24
ATOM     24  O5* UNL     1     -40.990  22.680   0.703  0.00  0.00    -0.379 OA
ATOM     25  H5* UNL     1     -41.788  22.818   1.237  0.00  0.00    +0.211 HD
ENDBRANCH  23  24
ENDBRANCH  18  23
ENDBRANCH   2  15
BRANCH   3  26
ATOM     26  C   UNL     1     -35.053  22.966   5.171  0.00  0.00    +0.075 C 
ATOM     27  C   UNL     1     -35.432  22.125   6.375  0.00  0.00    +0.019 C 
ENDBRANCH   3  26
BRANCH   5  28
ATOM     28  C   UNL     1     -36.224  19.312   1.115  0.00  0.00    +0.102 C 
ATOM     29  C   UNL     1     -35.111  19.599   0.127  0.00  0.00    +0.024 C 
ENDBRANCH   5  28
TORSDOF 7
ENDMDL
MODEL 7
REMARK VINA RESULT:      -5.5      4.067      6.360
REMARK  Name = 54147064
REMARK  7 active torsions:
REMARK  status: ('A' for Active; 'I' for Inactive)
REMARK    1  A    between atoms: N_2  and  C1*_15
REMARK    2  A    between atoms: N_3  and  C_26
REMARK    3  A    between atoms: N_5  and  C_28
REMARK    4  A    between atoms: C2*_16  and  O2*_19
REMARK    5  A    between atoms: C3*_17  and  O3*_21
REMARK    6  A    between atoms: C4*_18  and  C5*_23
REMARK    7  A    between atoms: C5*_23  and  O5*_24
REMARK                            x       y       z     vdW  Elec       q    Type
REMARK                         _______ _______ _______ _____ _____    ______ ____
ROOT
ATOM      1  O   UNL     1     -34.249  25.295   2.829  0.00  0.00    -0.272 OA
ATOM      2  N   UNL     1     -35.664  21.238   1.301  0.00  0.00    -0.247 N 
ATOM      3  N   UNL     1     -34.758  23.256   0.773  0.00  0.00    -0.243 NA
ATOM      4  N   UNL     1     -35.863  21.647   3.764  0.00  0.00    -0.361 NA
ATOM      5  N   UNL     1     -35.093  23.807   4.437  0.00  0.00    -0.221 N 
ATOM      6  N   UNL     1     -35.970  22.201   6.006  0.00  0.00    -0.320 N 
ATOM      7  C   UNL     1     -35.145  21.986   0.147  0.00  0.00    +0.173 C 
ATOM      8  C   UNL     1     -35.539  21.990   2.481  0.00  0.00    +0.189 C 
ATOM      9  C   UNL     1     -35.007  23.179   2.134  0.00  0.00    +0.204 C 
ATOM     10  C   UNL     1     -34.735  24.213   3.140  0.00  0.00    +0.255 C 
ATOM     11  C   UNL     1     -35.647  22.529   4.709  0.00  0.00    +0.242 C 
ATOM     12  H   UNL     1     -36.355  21.319   6.210  0.00  0.00    +0.146 HD
ATOM     13  H   UNL     1     -35.814  22.850   6.731  0.00  0.00    +0.146 HD
ENDROOT
BRANCH   2  15
ATOM     14  O4* UNL     1     -34.927  19.037   0.820  0.00  0.00    -0.333 OA
ATOM     15  C1* UNL     1     -36.053  19.855   1.186  0.00  0.00    +0.225 C 
ATOM     16  C2* UNL     1     -37.086  19.678   0.085  0.00  0.00    +0.187 C 
ATOM     17  C3* UNL     1     -36.814  18.263  -0.381  0.00  0.00    +0.171 C 
ATOM     18  C4* UNL     1     -35.297  18.181  -0.283  0.00  0.00    +0.175 C 
BRANCH  16  19
ATOM     19  O2* UNL     1     -38.410  19.841   0.551  0.00  0.00    -0.378 OA
ATOM     20  H2* UNL     1     -38.422  20.496   1.268  0.00  0.00    +0.211 HD
ENDBRANCH  16  19
BRANCH  17  21
ATOM     21  O3* UNL     1     -37.367  17.323   0.539  0.00  0.00    -0.379 OA
ATOM     22  H3* UNL     1     -38.196  17.674   0.901  0.00  0.00    +0.211 HD
ENDBRANCH  17  21
BRANCH  18  23
ATOM     23  C5* UNL     1     -34.584  18.680  -1.532  0.00  0.00    +0.169 C 
BRANCH  23  24
ATOM     24  O5* UNL     1     -33.341  19.242  -1.150  0.00  0.00    -0.379 OA
ATOM     25  H5* UNL     1     -33.366  19.471  -0.207  0.00  0.00    +0.211 HD
ENDBRANCH  23  24
ENDBRANCH  18  23
ENDBRANCH   2  15
BRANCH   3  26
ATOM     26  C   UNL     1     -34.168  24.322   0.008  0.00  0.00    +0.075 C 
ATOM     27  C   UNL     1     -32.674  24.100  -0.129  0.00  0.00    +0.019 C 
ENDBRANCH   3  26
BRANCH   5  28
ATOM     28  C   UNL     1     -34.873  24.753   5.529  0.00  0.00    +0.102 C 
ATOM     29  C   UNL     1     -35.989  25.779   5.564  0.00  0.00    +0.024 C 
ENDBRANCH   5  28
TORSDOF 7
ENDMDL
MODEL 8
REMARK VINA RESULT:      -5.5      2.216      5.636
REMARK  Name = 54147064
REMARK  7 active torsions:
REMARK  status: ('A' for Active; 'I' for Inactive)
REMARK    1  A    between atoms: N_2  and  C1*_15
REMARK    2  A    between atoms: N_3  and  C_26
REMARK    3  A    between atoms: N_5  and  C_28
REMARK    4  A    between atoms: C2*_16  and  O2*_19
REMARK    5  A    between atoms: C3*_17  and  O3*_21
REMARK    6  A    between atoms: C4*_18  and  C5*_23
REMARK    7  A    between atoms: C5*_23  and  O5*_24
REMARK                            x       y       z     vdW  Elec       q    Type
REMARK                         _______ _______ _______ _____ _____    ______ ____
ROOT
ATOM      1  O   UNL     1     -37.926  23.149   3.155  0.00  0.00    -0.272 OA
ATOM      2  N   UNL     1     -34.250  25.672   4.112  0.00  0.00    -0.247 N 
ATOM      3  N   UNL     1     -35.344  23.707   4.446  0.00  0.00    -0.243 NA
ATOM      4  N   UNL     1     -35.930  26.675   2.549  0.00  0.00    -0.361 NA
ATOM      5  N   UNL     1     -37.809  25.259   2.132  0.00  0.00    -0.221 N 
ATOM      6  N   UNL     1     -37.586  27.438   1.126  0.00  0.00    -0.320 N 
ATOM      7  C   UNL     1     -34.101  24.391   4.817  0.00  0.00    +0.173 C 
ATOM      8  C   UNL     1     -35.441  25.696   3.367  0.00  0.00    +0.189 C 
ATOM      9  C   UNL     1     -36.068  24.524   3.592  0.00  0.00    +0.204 C 
ATOM     10  C   UNL     1     -37.354  24.215   2.956  0.00  0.00    +0.255 C 
ATOM     11  C   UNL     1     -37.078  26.461   1.952  0.00  0.00    +0.242 C 
ATOM     12  H   UNL     1     -37.090  28.277   0.993  0.00  0.00    +0.146 HD
ATOM     13  H   UNL     1     -38.447  27.296   0.668  0.00  0.00    +0.146 HD
ENDROOT
BRANCH   2  15
ATOM     14  O4* UNL     1     -33.688  27.961   4.367  0.00  0.00    -0.333 OA
ATOM     15  C1* UNL     1     -33.185  26.642   4.082  0.00  0.00    +0.225 C 
ATOM     16  C2* UNL     1     -32.563  26.714   2.697  0.00  0.00    +0.187 C 
ATOM     17  C3* UNL     1     -32.085  28.149   2.635  0.00  0.00    +0.171 C 
ATOM     18  C4* UNL     1     -33.193  28.885   3.375  0.00  0.00    +0.175 C 
BRANCH  16  19
ATOM     19  O2* UNL     1     -31.506  25.791   2.528  0.00  0.00    -0.378 OA
ATOM     20  H2* UNL     1     -31.477  25.498   1.603  0.00  0.00    +0.211 HD
ENDBRANCH  16  19
BRANCH  17  21
ATOM     21  O3* UNL     1     -30.880  28.302   3.383  0.00  0.00    -0.379 OA
ATOM     22  H3* UNL     1     -30.117  28.192   2.794  0.00  0.00    +0.211 HD
ENDBRANCH  17  21
BRANCH  18  23
ATOM     23  C5* UNL     1     -34.356  29.284   2.476  0.00  0.00    +0.169 C 
BRANCH  23  24
ATOM     24  O5* UNL     1     -35.464  29.621   3.291  0.00  0.00    -0.379 OA
ATOM     25  H5* UNL     1     -35.294  29.333   4.202  0.00  0.00    +0.211 HD
ENDBRANCH  23  24
ENDBRANCH  18  23
ENDBRANCH   2  15
BRANCH   3  26
ATOM     26  C   UNL     1     -35.635  22.376   4.907  0.00  0.00    +0.075 C 
ATOM     27  C   UNL     1     -35.297  22.248   6.380  0.00  0.00    +0.019 C 
ENDBRANCH   3  26
BRANCH   5  28
ATOM     28  C   UNL     1     -39.084  25.071   1.441  0.00  0.00    +0.102 C 
ATOM     29  C   UNL     1     -40.230  25.496   2.339  0.00  0.00    +0.024 C 
ENDBRANCH   5  28
TORSDOF 7
ENDMDL
MODEL 9
REMARK VINA RESULT:      -5.4      4.413      7.467
REMARK  Name = 54147064
REMARK  7 active torsions:
REMARK  status: ('A' for Active; 'I' for Inactive)
REMARK    1  A    between atoms: N_2  and  C1*_15
REMARK    2  A    between atoms: N_3  and  C_26
REMARK    3  A    between atoms: N_5  and  C_28
REMARK    4  A    between atoms: C2*_16  and  O2*_19
REMARK    5  A    between atoms: C3*_17  and  O3*_21
REMARK    6  A    between atoms: C4*_18  and  C5*_23
REMARK    7  A    between atoms: C5*_23  and  O5*_24
REMARK                            x       y       z     vdW  Elec       q    Type
REMARK                         _______ _______ _______ _____ _____    ______ ____
ROOT
ATOM      1  O   UNL     1     -35.624  21.445   3.217  0.00  0.00    -0.272 OA
ATOM      2  N   UNL     1     -39.342  23.736   1.900  0.00  0.00    -0.247 N 
ATOM      3  N   UNL     1     -38.053  21.884   1.617  0.00  0.00    -0.243 NA
ATOM      4  N   UNL     1     -37.970  24.766   3.725  0.00  0.00    -0.361 NA
ATOM      5  N   UNL     1     -36.051  23.473   4.320  0.00  0.00    -0.221 N 
ATOM      6  N   UNL     1     -36.584  25.563   5.396  0.00  0.00    -0.320 N 
ATOM      7  C   UNL     1     -39.290  22.493   1.117  0.00  0.00    +0.173 C 
ATOM      8  C   UNL     1     -38.264  23.804   2.799  0.00  0.00    +0.189 C 
ATOM      9  C   UNL     1     -37.518  22.699   2.602  0.00  0.00    +0.204 C 
ATOM     10  C   UNL     1     -36.305  22.450   3.391  0.00  0.00    +0.255 C 
ATOM     11  C   UNL     1     -36.897  24.603   4.460  0.00  0.00    +0.242 C 
ATOM     12  H   UNL     1     -37.162  26.352   5.503  0.00  0.00    +0.146 HD
ATOM     13  H   UNL     1     -35.783  25.459   5.958  0.00  0.00    +0.146 HD
ENDROOT
BRANCH   2  15
ATOM     14  O4* UNL     1     -41.570  23.994   1.134  0.00  0.00    -0.333 OA
ATOM     15  C1* UNL     1     -40.479  24.618   1.835  0.00  0.00    +0.225 C 
ATOM     16  C2* UNL     1     -40.136  25.877   1.055  0.00  0.00    +0.187 C 
ATOM     17  C3* UNL     1     -41.476  26.264   0.467  0.00  0.00    +0.171 C 
ATOM     18  C4* UNL     1     -42.083  24.907   0.139  0.00  0.00    +0.175 C 
BRANCH  16  19
ATOM     19  O2* UNL     1     -39.599  26.896   1.876  0.00  0.00    -0.378 OA
ATOM     20  H2* UNL     1     -40.321  27.359   2.330  0.00  0.00    +0.211 HD
ENDBRANCH  16  19
BRANCH  17  21
ATOM     21  O3* UNL     1     -42.293  26.882   1.460  0.00  0.00    -0.379 OA
ATOM     22  H3* UNL     1     -41.739  27.166   2.204  0.00  0.00    +0.211 HD
ENDBRANCH  17  21
BRANCH  18  23
ATOM     23  C5* UNL     1     -41.684  24.384  -1.235  0.00  0.00    +0.169 C 
BRANCH  23  24
ATOM     24  O5* UNL     1     -41.868  22.979  -1.256  0.00  0.00    -0.379 OA
ATOM     25  H5* UNL     1     -42.295  22.722  -2.088  0.00  0.00    +0.211 HD
ENDBRANCH  23  24
ENDBRANCH  18  23
ENDBRANCH   2  15
BRANCH   3  26
ATOM     26  C   UNL     1     -37.593  20.609   1.134  0.00  0.00    +0.075 C 
ATOM     27  C   UNL     1     -38.384  20.202  -0.095  0.00  0.00    +0.019 C 
ENDBRANCH   3  26
BRANCH   5  28
ATOM     28  C   UNL     1     -34.866  23.341   5.167  0.00  0.00    +0.102 C 
ATOM     29  C   UNL     1     -35.147  22.389   6.313  0.00  0.00    +0.024 C 
ENDBRANCH   5  28
TORSDOF 7
ENDMDL
