MODEL 1
REMARK VINA RESULT:      -5.5      0.000      0.000
REMARK  Name = 5358942
REMARK  7 active torsions:
REMARK  status: ('A' for Active; 'I' for Inactive)
REMARK    1  A    between atoms: C_1  and  C_6
REMARK    2  A    between atoms: C_1  and  C_13
REMARK    3  A    between atoms: C_1  and  O_14
REMARK    4  A    between atoms: O_14  and  C_15
REMARK    5  A    between atoms: C_15  and  C_17
REMARK    6  A    between atoms: C_15  and  C_18
REMARK    7  A    between atoms: C_18  and  O_19
REMARK                            x       y       z     vdW  Elec       q    Type
REMARK                         _______ _______ _______ _____ _____    ______ ____
ROOT
ATOM      1  C   UNL     1     -36.696  23.989   3.373  0.00  0.00    +0.208 C 
ENDROOT
BRANCH   1   6
ATOM      2  O   UNL     1     -36.360  21.267   2.595  0.00  0.00    -0.270 OA
ATOM      3  O   UNL     1     -40.729  20.815   1.180  0.00  0.00    -0.252 OA
ATOM      4  N   UNL     1     -38.542  21.028   1.886  0.00  0.00    -0.236 N 
ATOM      5  N   UNL     1     -40.022  22.831   2.035  0.00  0.00    -0.267 N 
ATOM      6  C   UNL     1     -37.790  23.156   2.787  0.00  0.00    +0.081 C 
ATOM      7  C   UNL     1     -37.480  21.743   2.423  0.00  0.00    +0.253 C 
ATOM      8  C   UNL     1     -39.032  23.607   2.572  0.00  0.00    +0.068 C 
ATOM      9  C   UNL     1     -39.835  21.509   1.665  0.00  0.00    +0.310 C 
ATOM     10  H   UNL     1     -38.368  20.092   1.636  0.00  0.00    +0.159 HD
ATOM     11  H   UNL     1     -40.911  23.233   1.904  0.00  0.00    +0.156 HD
ENDBRANCH   1   6
BRANCH   1  13
ATOM     12  O   UNL     1     -36.277  26.367   3.201  0.00  0.00    -0.285 OA
ATOM     13  C   UNL     1     -37.080  25.438   3.205  0.00  0.00    +0.241 C 
ENDBRANCH   1  13
BRANCH   1  14
ATOM     14  O   UNL     1     -36.568  23.677   4.743  0.00  0.00    -0.336 OA
BRANCH  14  15
ATOM     15  C   UNL     1     -35.266  23.189   5.059  0.00  0.00    +0.209 C 
BRANCH  15  17
ATOM     16  O   UNL     1     -33.604  24.936   4.779  0.00  0.00    -0.286 OA
ATOM     17  C   UNL     1     -34.399  24.346   5.506  0.00  0.00    +0.239 C 
ENDBRANCH  15  17
BRANCH  15  18
ATOM     18  C   UNL     1     -35.384  22.158   6.170  0.00  0.00    +0.175 C 
BRANCH  18  19
ATOM     19  O   UNL     1     -35.359  20.849   5.616  0.00  0.00    -0.379 OA
ATOM     20  H   UNL     1     -36.052  20.770   4.942  0.00  0.00    +0.211 HD
ENDBRANCH  18  19
ENDBRANCH  15  18
ENDBRANCH  14  15
ENDBRANCH   1  14
TORSDOF 7
ENDMDL
MODEL 2
REMARK VINA RESULT:      -5.2      0.713      1.824
REMARK  Name = 5358942
REMARK  7 active torsions:
REMARK  status: ('A' for Active; 'I' for Inactive)
REMARK    1  A    between atoms: C_1  and  C_6
REMARK    2  A    between atoms: C_1  and  C_13
REMARK    3  A    between atoms: C_1  and  O_14
REMARK    4  A    between atoms: O_14  and  C_15
REMARK    5  A    between atoms: C_15  and  C_17
REMARK    6  A    between atoms: C_15  and  C_18
REMARK    7  A    between atoms: C_18  and  O_19
REMARK                            x       y       z     vdW  Elec       q    Type
REMARK                         _______ _______ _______ _____ _____    ______ ____
ROOT
ATOM      1  C   UNL     1     -36.816  24.400   3.473  0.00  0.00    +0.208 C 
ENDROOT
BRANCH   1   6
ATOM      2  O   UNL     1     -36.287  21.675   2.823  0.00  0.00    -0.270 OA
ATOM      3  O   UNL     1     -40.582  20.882   1.331  0.00  0.00    -0.252 OA
ATOM      4  N   UNL     1     -38.431  21.266   2.076  0.00  0.00    -0.236 N 
ATOM      5  N   UNL     1     -40.026  22.974   2.112  0.00  0.00    -0.267 N 
ATOM      6  C   UNL     1     -37.840  23.475   2.900  0.00  0.00    +0.081 C 
ATOM      7  C   UNL     1     -37.430  22.070   2.605  0.00  0.00    +0.253 C 
ATOM      8  C   UNL     1     -39.102  23.835   2.637  0.00  0.00    +0.068 C 
ATOM      9  C   UNL     1     -39.746  21.653   1.805  0.00  0.00    +0.310 C 
ATOM     10  H   UNL     1     -38.192  20.333   1.871  0.00  0.00    +0.159 HD
ATOM     11  H   UNL     1     -40.936  23.311   1.944  0.00  0.00    +0.156 HD
ENDBRANCH   1   6
BRANCH   1  13
ATOM     12  O   UNL     1     -36.768  26.499   2.268  0.00  0.00    -0.285 OA
ATOM     13  C   UNL     1     -37.248  25.813   3.165  0.00  0.00    +0.241 C 
ENDBRANCH   1  13
BRANCH   1  14
ATOM     14  O   UNL     1     -36.754  24.205   4.869  0.00  0.00    -0.336 OA
BRANCH  14  15
ATOM     15  C   UNL     1     -35.409  24.141   5.338  0.00  0.00    +0.209 C 
BRANCH  15  17
ATOM     16  O   UNL     1     -36.093  22.055   6.375  0.00  0.00    -0.286 OA
ATOM     17  C   UNL     1     -35.190  22.811   6.028  0.00  0.00    +0.239 C 
ENDBRANCH  15  17
BRANCH  15  18
ATOM     18  C   UNL     1     -34.468  24.282   4.153  0.00  0.00    +0.175 C 
BRANCH  18  19
ATOM     19  O   UNL     1     -33.359  25.094   4.513  0.00  0.00    -0.379 OA
ATOM     20  H   UNL     1     -32.773  24.597   5.103  0.00  0.00    +0.211 HD
ENDBRANCH  18  19
ENDBRANCH  15  18
ENDBRANCH  14  15
ENDBRANCH   1  14
TORSDOF 7
ENDMDL
MODEL 3
REMARK VINA RESULT:      -5.1      2.778      5.320
REMARK  Name = 5358942
REMARK  7 active torsions:
REMARK  status: ('A' for Active; 'I' for Inactive)
REMARK    1  A    between atoms: C_1  and  C_6
REMARK    2  A    between atoms: C_1  and  C_13
REMARK    3  A    between atoms: C_1  and  O_14
REMARK    4  A    between atoms: O_14  and  C_15
REMARK    5  A    between atoms: C_15  and  C_17
REMARK    6  A    between atoms: C_15  and  C_18
REMARK    7  A    between atoms: C_18  and  O_19
REMARK                            x       y       z     vdW  Elec       q    Type
REMARK                         _______ _______ _______ _____ _____    ______ ____
ROOT
ATOM      1  C   UNL     1     -37.905  24.125   3.499  0.00  0.00    +0.208 C 
ENDROOT
BRANCH   1   6
ATOM      2  O   UNL     1     -36.163  22.998   5.454  0.00  0.00    -0.270 OA
ATOM      3  O   UNL     1     -33.620  26.830   5.838  0.00  0.00    -0.252 OA
ATOM      4  N   UNL     1     -34.883  24.907   5.653  0.00  0.00    -0.236 N 
ATOM      5  N   UNL     1     -35.398  26.796   4.377  0.00  0.00    -0.267 N 
ATOM      6  C   UNL     1     -36.763  24.868   4.113  0.00  0.00    +0.081 C 
ATOM      7  C   UNL     1     -35.927  24.159   5.126  0.00  0.00    +0.253 C 
ATOM      8  C   UNL     1     -36.447  26.132   3.805  0.00  0.00    +0.068 C 
ATOM      9  C   UNL     1     -34.563  26.227   5.325  0.00  0.00    +0.310 C 
ATOM     10  H   UNL     1     -34.313  24.466   6.324  0.00  0.00    +0.159 HD
ATOM     11  H   UNL     1     -35.227  27.726   4.101  0.00  0.00    +0.156 HD
ENDBRANCH   1   6
BRANCH   1  13
ATOM     12  O   UNL     1     -40.127  24.977   3.056  0.00  0.00    -0.285 OA
ATOM     13  C   UNL     1     -38.912  25.142   3.021  0.00  0.00    +0.241 C 
ENDBRANCH   1  13
BRANCH   1  14
ATOM     14  O   UNL     1     -37.426  23.368   2.410  0.00  0.00    -0.336 OA
BRANCH  14  15
ATOM     15  C   UNL     1     -37.765  21.988   2.530  0.00  0.00    +0.209 C 
BRANCH  15  17
ATOM     16  O   UNL     1     -40.117  21.636   2.046  0.00  0.00    -0.286 OA
ATOM     17  C   UNL     1     -38.958  21.694   1.646  0.00  0.00    +0.239 C 
ENDBRANCH  15  17
BRANCH  15  18
ATOM     18  C   UNL     1     -36.571  21.150   2.102  0.00  0.00    +0.175 C 
BRANCH  18  19
ATOM     19  O   UNL     1     -36.736  19.813   2.552  0.00  0.00    -0.379 OA
ATOM     20  H   UNL     1     -36.216  19.677   3.359  0.00  0.00    +0.211 HD
ENDBRANCH  18  19
ENDBRANCH  15  18
ENDBRANCH  14  15
ENDBRANCH   1  14
TORSDOF 7
ENDMDL
MODEL 4
REMARK VINA RESULT:      -5.1      3.244      5.998
REMARK  Name = 5358942
REMARK  7 active torsions:
REMARK  status: ('A' for Active; 'I' for Inactive)
REMARK    1  A    between atoms: C_1  and  C_6
REMARK    2  A    between atoms: C_1  and  C_13
REMARK    3  A    between atoms: C_1  and  O_14
REMARK    4  A    between atoms: O_14  and  C_15
REMARK    5  A    between atoms: C_15  and  C_17
REMARK    6  A    between atoms: C_15  and  C_18
REMARK    7  A    between atoms: C_18  and  O_19
REMARK                            x       y       z     vdW  Elec       q    Type
REMARK                         _______ _______ _______ _____ _____    ______ ____
ROOT
ATOM      1  C   UNL     1     -35.543  23.350   4.394  0.00  0.00    +0.208 C 
ENDROOT
BRANCH   1   6
ATOM      2  O   UNL     1     -34.037  24.565   2.301  0.00  0.00    -0.270 OA
ATOM      3  O   UNL     1     -32.754  28.157   4.899  0.00  0.00    -0.252 OA
ATOM      4  N   UNL     1     -33.391  26.367   3.589  0.00  0.00    -0.236 N 
ATOM      5  N   UNL     1     -34.093  26.524   5.812  0.00  0.00    -0.267 N 
ATOM      6  C   UNL     1     -34.803  24.639   4.551  0.00  0.00    +0.081 C 
ATOM      7  C   UNL     1     -34.053  25.165   3.373  0.00  0.00    +0.253 C 
ATOM      8  C   UNL     1     -34.776  25.346   5.687  0.00  0.00    +0.068 C 
ATOM      9  C   UNL     1     -33.368  27.097   4.780  0.00  0.00    +0.310 C 
ATOM     10  H   UNL     1     -32.887  26.740   2.829  0.00  0.00    +0.159 HD
ATOM     11  H   UNL     1     -34.118  26.989   6.680  0.00  0.00    +0.156 HD
ENDBRANCH   1   6
BRANCH   1  13
ATOM     12  O   UNL     1     -35.969  22.106   6.427  0.00  0.00    -0.285 OA
ATOM     13  C   UNL     1     -35.178  22.464   5.560  0.00  0.00    +0.241 C 
ENDBRANCH   1  13
BRANCH   1  14
ATOM     14  O   UNL     1     -36.929  23.614   4.402  0.00  0.00    -0.336 OA
BRANCH  14  15
ATOM     15  C   UNL     1     -37.423  23.907   3.098  0.00  0.00    +0.209 C 
BRANCH  15  17
ATOM     16  O   UNL     1     -39.305  22.789   2.048  0.00  0.00    -0.286 OA
ATOM     17  C   UNL     1     -38.204  22.715   2.586  0.00  0.00    +0.239 C 
ENDBRANCH  15  17
BRANCH  15  18
ATOM     18  C   UNL     1     -38.320  25.132   3.175  0.00  0.00    +0.175 C 
BRANCH  18  19
ATOM     19  O   UNL     1     -39.456  24.846   3.980  0.00  0.00    -0.379 OA
ATOM     20  H   UNL     1     -39.705  25.639   4.479  0.00  0.00    +0.211 HD
ENDBRANCH  18  19
ENDBRANCH  15  18
ENDBRANCH  14  15
ENDBRANCH   1  14
TORSDOF 7
ENDMDL
MODEL 5
REMARK VINA RESULT:      -5.1      1.799      3.440
REMARK  Name = 5358942
REMARK  7 active torsions:
REMARK  status: ('A' for Active; 'I' for Inactive)
REMARK    1  A    between atoms: C_1  and  C_6
REMARK    2  A    between atoms: C_1  and  C_13
REMARK    3  A    between atoms: C_1  and  O_14
REMARK    4  A    between atoms: O_14  and  C_15
REMARK    5  A    between atoms: C_15  and  C_17
REMARK    6  A    between atoms: C_15  and  C_18
REMARK    7  A    between atoms: C_18  and  O_19
REMARK                            x       y       z     vdW  Elec       q    Type
REMARK                         _______ _______ _______ _____ _____    ______ ____
ROOT
ATOM      1  C   UNL     1     -35.688  23.394   4.836  0.00  0.00    +0.208 C 
ENDROOT
BRANCH   1   6
ATOM      2  O   UNL     1     -38.107  23.996   3.453  0.00  0.00    -0.270 OA
ATOM      3  O   UNL     1     -37.699  20.422   0.562  0.00  0.00    -0.252 OA
ATOM      4  N   UNL     1     -37.913  22.214   2.001  0.00  0.00    -0.236 N 
ATOM      5  N   UNL     1     -36.082  20.771   2.161  0.00  0.00    -0.267 N 
ATOM      6  C   UNL     1     -36.209  22.584   3.693  0.00  0.00    +0.081 C 
ATOM      7  C   UNL     1     -37.490  23.010   3.057  0.00  0.00    +0.253 C 
ATOM      8  C   UNL     1     -35.591  21.500   3.208  0.00  0.00    +0.068 C 
ATOM      9  C   UNL     1     -37.261  21.083   1.503  0.00  0.00    +0.310 C 
ATOM     10  H   UNL     1     -38.756  22.470   1.560  0.00  0.00    +0.159 HD
ATOM     11  H   UNL     1     -35.573  19.984   1.860  0.00  0.00    +0.156 HD
ENDBRANCH   1   6
BRANCH   1  13
ATOM     12  O   UNL     1     -35.965  21.916   6.732  0.00  0.00    -0.285 OA
ATOM     13  C   UNL     1     -35.223  22.436   5.905  0.00  0.00    +0.241 C 
ENDBRANCH   1  13
BRANCH   1  14
ATOM     14  O   UNL     1     -34.606  24.179   4.384  0.00  0.00    -0.336 OA
BRANCH  14  15
ATOM     15  C   UNL     1     -34.602  25.474   4.981  0.00  0.00    +0.209 C 
BRANCH  15  17
ATOM     16  O   UNL     1     -34.137  27.705   4.146  0.00  0.00    -0.286 OA
ATOM     17  C   UNL     1     -34.255  26.503   3.926  0.00  0.00    +0.239 C 
ENDBRANCH  15  17
BRANCH  15  18
ATOM     18  C   UNL     1     -35.981  25.753   5.558  0.00  0.00    +0.175 C 
BRANCH  18  19
ATOM     19  O   UNL     1     -36.753  26.491   4.621  0.00  0.00    -0.379 OA
ATOM     20  H   UNL     1     -37.489  25.944   4.307  0.00  0.00    +0.211 HD
ENDBRANCH  18  19
ENDBRANCH  15  18
ENDBRANCH  14  15
ENDBRANCH   1  14
TORSDOF 7
ENDMDL
MODEL 6
REMARK VINA RESULT:      -5.0      2.915      5.378
REMARK  Name = 5358942
REMARK  7 active torsions:
REMARK  status: ('A' for Active; 'I' for Inactive)
REMARK    1  A    between atoms: C_1  and  C_6
REMARK    2  A    between atoms: C_1  and  C_13
REMARK    3  A    between atoms: C_1  and  O_14
REMARK    4  A    between atoms: O_14  and  C_15
REMARK    5  A    between atoms: C_15  and  C_17
REMARK    6  A    between atoms: C_15  and  C_18
REMARK    7  A    between atoms: C_18  and  O_19
REMARK                            x       y       z     vdW  Elec       q    Type
REMARK                         _______ _______ _______ _____ _____    ______ ____
ROOT
ATOM      1  C   UNL     1     -35.643  23.268   4.284  0.00  0.00    +0.208 C 
ENDROOT
BRANCH   1   6
ATOM      2  O   UNL     1     -34.114  24.287   2.105  0.00  0.00    -0.270 OA
ATOM      3  O   UNL     1     -34.600  28.682   3.424  0.00  0.00    -0.252 OA
ATOM      4  N   UNL     1     -34.351  26.488   2.753  0.00  0.00    -0.236 N 
ATOM      5  N   UNL     1     -35.573  27.013   4.675  0.00  0.00    -0.267 N 
ATOM      6  C   UNL     1     -35.375  24.722   4.072  0.00  0.00    +0.081 C 
ATOM      7  C   UNL     1     -34.559  25.122   2.889  0.00  0.00    +0.253 C 
ATOM      8  C   UNL     1     -35.828  25.686   4.884  0.00  0.00    +0.068 C 
ATOM      9  C   UNL     1     -34.827  27.486   3.607  0.00  0.00    +0.310 C 
ATOM     10  H   UNL     1     -33.816  26.782   1.980  0.00  0.00    +0.159 HD
ATOM     11  H   UNL     1     -35.938  27.666   5.316  0.00  0.00    +0.156 HD
ENDBRANCH   1   6
BRANCH   1  13
ATOM     12  O   UNL     1     -36.001  22.091   6.369  0.00  0.00    -0.285 OA
ATOM     13  C   UNL     1     -35.407  22.963   5.743  0.00  0.00    +0.241 C 
ENDBRANCH   1  13
BRANCH   1  14
ATOM     14  O   UNL     1     -36.985  22.995   3.943  0.00  0.00    -0.336 OA
BRANCH  14  15
ATOM     15  C   UNL     1     -37.114  22.573   2.587  0.00  0.00    +0.209 C 
BRANCH  15  17
ATOM     16  O   UNL     1     -36.228  20.701   1.321  0.00  0.00    -0.286 OA
ATOM     17  C   UNL     1     -36.352  21.279   2.397  0.00  0.00    +0.239 C 
ENDBRANCH  15  17
BRANCH  15  18
ATOM     18  C   UNL     1     -38.588  22.368   2.276  0.00  0.00    +0.175 C 
BRANCH  18  19
ATOM     19  O   UNL     1     -38.904  20.984   2.334  0.00  0.00    -0.379 OA
ATOM     20  H   UNL     1     -39.848  20.860   2.153  0.00  0.00    +0.211 HD
ENDBRANCH  18  19
ENDBRANCH  15  18
ENDBRANCH  14  15
ENDBRANCH   1  14
TORSDOF 7
ENDMDL
MODEL 7
REMARK VINA RESULT:      -4.9      2.235      3.021
REMARK  Name = 5358942
REMARK  7 active torsions:
REMARK  status: ('A' for Active; 'I' for Inactive)
REMARK    1  A    between atoms: C_1  and  C_6
REMARK    2  A    between atoms: C_1  and  C_13
REMARK    3  A    between atoms: C_1  and  O_14
REMARK    4  A    between atoms: O_14  and  C_15
REMARK    5  A    between atoms: C_15  and  C_17
REMARK    6  A    between atoms: C_15  and  C_18
REMARK    7  A    between atoms: C_18  and  O_19
REMARK                            x       y       z     vdW  Elec       q    Type
REMARK                         _______ _______ _______ _____ _____    ______ ____
ROOT
ATOM      1  C   UNL     1     -36.620  23.158   3.041  0.00  0.00    +0.208 C 
ENDROOT
BRANCH   1   6
ATOM      2  O   UNL     1     -34.380  23.053   1.281  0.00  0.00    -0.270 OA
ATOM      3  O   UNL     1     -35.046  18.614   0.210  0.00  0.00    -0.252 OA
ATOM      4  N   UNL     1     -34.702  20.834   0.739  0.00  0.00    -0.236 N 
ATOM      5  N   UNL     1     -36.481  19.648   1.682  0.00  0.00    -0.267 N 
ATOM      6  C   UNL     1     -36.216  21.930   2.292  0.00  0.00    +0.081 C 
ATOM      7  C   UNL     1     -35.021  22.011   1.402  0.00  0.00    +0.253 C 
ATOM      8  C   UNL     1     -36.865  20.762   2.375  0.00  0.00    +0.068 C 
ATOM      9  C   UNL     1     -35.387  19.620   0.832  0.00  0.00    +0.310 C 
ATOM     10  H   UNL     1     -33.917  20.856   0.144  0.00  0.00    +0.159 HD
ATOM     11  H   UNL     1     -37.009  18.824   1.792  0.00  0.00    +0.156 HD
ENDBRANCH   1   6
BRANCH   1  13
ATOM     12  O   UNL     1     -38.851  24.074   3.252  0.00  0.00    -0.285 OA
ATOM     13  C   UNL     1     -37.983  23.574   2.543  0.00  0.00    +0.241 C 
ENDBRANCH   1  13
BRANCH   1  14
ATOM     14  O   UNL     1     -36.678  22.856   4.418  0.00  0.00    -0.336 OA
BRANCH  14  15
ATOM     15  C   UNL     1     -35.442  23.125   5.075  0.00  0.00    +0.209 C 
BRANCH  15  17
ATOM     16  O   UNL     1     -34.402  25.221   5.721  0.00  0.00    -0.286 OA
ATOM     17  C   UNL     1     -35.425  24.572   5.522  0.00  0.00    +0.239 C 
ENDBRANCH  15  17
BRANCH  15  18
ATOM     18  C   UNL     1     -35.312  22.200   6.274  0.00  0.00    +0.175 C 
BRANCH  18  19
ATOM     19  O   UNL     1     -35.373  20.847   5.846  0.00  0.00    -0.379 OA
ATOM     20  H   UNL     1     -34.949  20.763   4.978  0.00  0.00    +0.211 HD
ENDBRANCH  18  19
ENDBRANCH  15  18
ENDBRANCH  14  15
ENDBRANCH   1  14
TORSDOF 7
ENDMDL
MODEL 8
REMARK VINA RESULT:      -4.8      1.998      2.154
REMARK  Name = 5358942
REMARK  7 active torsions:
REMARK  status: ('A' for Active; 'I' for Inactive)
REMARK    1  A    between atoms: C_1  and  C_6
REMARK    2  A    between atoms: C_1  and  C_13
REMARK    3  A    between atoms: C_1  and  O_14
REMARK    4  A    between atoms: O_14  and  C_15
REMARK    5  A    between atoms: C_15  and  C_17
REMARK    6  A    between atoms: C_15  and  C_18
REMARK    7  A    between atoms: C_18  and  O_19
REMARK                            x       y       z     vdW  Elec       q    Type
REMARK                         _______ _______ _______ _____ _____    ______ ____
ROOT
ATOM      1  C   UNL     1     -35.832  22.919   2.792  0.00  0.00    +0.208 C 
ENDROOT
BRANCH   1   6
ATOM      2  O   UNL     1     -35.069  20.180   2.999  0.00  0.00    -0.270 OA
ATOM      3  O   UNL     1     -38.038  18.792  -0.250  0.00  0.00    -0.252 OA
ATOM      4  N   UNL     1     -36.551  19.474   1.378  0.00  0.00    -0.236 N 
ATOM      5  N   UNL     1     -37.934  21.023   0.306  0.00  0.00    -0.267 N 
ATOM      6  C   UNL     1     -36.436  21.829   1.967  0.00  0.00    +0.081 C 
ATOM      7  C   UNL     1     -35.945  20.435   2.176  0.00  0.00    +0.253 C 
ATOM      8  C   UNL     1     -37.393  22.032   1.053  0.00  0.00    +0.068 C 
ATOM      9  C   UNL     1     -37.548  19.698   0.425  0.00  0.00    +0.310 C 
ATOM     10  H   UNL     1     -36.247  18.544   1.494  0.00  0.00    +0.159 HD
ATOM     11  H   UNL     1     -38.633  21.249  -0.349  0.00  0.00    +0.156 HD
ENDBRANCH   1   6
BRANCH   1  13
ATOM     12  O   UNL     1     -35.456  25.101   1.814  0.00  0.00    -0.285 OA
ATOM     13  C   UNL     1     -36.245  24.237   2.186  0.00  0.00    +0.241 C 
ENDBRANCH   1  13
BRANCH   1  14
ATOM     14  O   UNL     1     -36.321  22.818   4.112  0.00  0.00    -0.336 OA
BRANCH  14  15
ATOM     15  C   UNL     1     -35.284  22.982   5.077  0.00  0.00    +0.209 C 
BRANCH  15  17
ATOM     16  O   UNL     1     -36.246  25.172   5.495  0.00  0.00    -0.286 OA
ATOM     17  C   UNL     1     -35.278  24.418   5.556  0.00  0.00    +0.239 C 
ENDBRANCH  15  17
BRANCH  15  18
ATOM     18  C   UNL     1     -35.543  22.038   6.240  0.00  0.00    +0.175 C 
BRANCH  18  19
ATOM     19  O   UNL     1     -35.374  20.693   5.815  0.00  0.00    -0.379 OA
ATOM     20  H   UNL     1     -34.884  20.200   6.491  0.00  0.00    +0.211 HD
ENDBRANCH  18  19
ENDBRANCH  15  18
ENDBRANCH  14  15
ENDBRANCH   1  14
TORSDOF 7
ENDMDL
MODEL 9
REMARK VINA RESULT:      -4.8      2.828      5.028
REMARK  Name = 5358942
REMARK  7 active torsions:
REMARK  status: ('A' for Active; 'I' for Inactive)
REMARK    1  A    between atoms: C_1  and  C_6
REMARK    2  A    between atoms: C_1  and  C_13
REMARK    3  A    between atoms: C_1  and  O_14
REMARK    4  A    between atoms: O_14  and  C_15
REMARK    5  A    between atoms: C_15  and  C_17
REMARK    6  A    between atoms: C_15  and  C_18
REMARK    7  A    between atoms: C_18  and  O_19
REMARK                            x       y       z     vdW  Elec       q    Type
REMARK                         _______ _______ _______ _____ _____    ______ ____
ROOT
ATOM      1  C   UNL     1     -37.686  24.186   3.127  0.00  0.00    +0.208 C 
ENDROOT
BRANCH   1   6
ATOM      2  O   UNL     1     -36.222  22.884   5.198  0.00  0.00    -0.270 OA
ATOM      3  O   UNL     1     -33.748  26.641   6.227  0.00  0.00    -0.252 OA
ATOM      4  N   UNL     1     -34.978  24.755   5.721  0.00  0.00    -0.236 N 
ATOM      5  N   UNL     1     -35.315  26.747   4.545  0.00  0.00    -0.267 N 
ATOM      6  C   UNL     1     -36.635  24.863   3.946  0.00  0.00    +0.081 C 
ATOM      7  C   UNL     1     -35.943  24.064   5.000  0.00  0.00    +0.253 C 
ATOM      8  C   UNL     1     -36.279  26.143   3.787  0.00  0.00    +0.068 C 
ATOM      9  C   UNL     1     -34.615  26.093   5.546  0.00  0.00    +0.310 C 
ATOM     10  H   UNL     1     -34.503  24.254   6.424  0.00  0.00    +0.159 HD
ATOM     11  H   UNL     1     -35.107  27.693   4.371  0.00  0.00    +0.156 HD
ENDBRANCH   1   6
BRANCH   1  13
ATOM     12  O   UNL     1     -39.964  24.674   3.787  0.00  0.00    -0.285 OA
ATOM     13  C   UNL     1     -38.940  25.021   3.206  0.00  0.00    +0.241 C 
ENDBRANCH   1  13
BRANCH   1  14
ATOM     14  O   UNL     1     -37.242  24.103   1.791  0.00  0.00    -0.336 OA
BRANCH  14  15
ATOM     15  C   UNL     1     -37.185  22.755   1.331  0.00  0.00    +0.209 C 
BRANCH  15  17
ATOM     16  O   UNL     1     -35.102  21.909   2.247  0.00  0.00    -0.286 OA
ATOM     17  C   UNL     1     -35.739  22.311   1.277  0.00  0.00    +0.239 C 
ENDBRANCH  15  17
BRANCH  15  18
ATOM     18  C   UNL     1     -37.972  21.876   2.290  0.00  0.00    +0.175 C 
BRANCH  18  19
ATOM     19  O   UNL     1     -37.491  20.541   2.222  0.00  0.00    -0.379 OA
ATOM     20  H   UNL     1     -37.355  20.200   3.120  0.00  0.00    +0.211 HD
ENDBRANCH  18  19
ENDBRANCH  15  18
ENDBRANCH  14  15
ENDBRANCH   1  14
TORSDOF 7
ENDMDL
