MODEL 1
REMARK VINA RESULT:      -5.4      0.000      0.000
REMARK  Name = 20285
REMARK  5 active torsions:
REMARK  status: ('A' for Active; 'I' for Inactive)
REMARK    1  A    between atoms: C2*_2  and  O2*_17
REMARK    2  A    between atoms: C3*_3  and  O3*_19
REMARK    3  A    between atoms: C1*_4  and  N_8
REMARK    4  A    between atoms: C4*_5  and  C5*_21
REMARK    5  A    between atoms: C5*_21  and  O5*_22
REMARK                            x       y       z     vdW  Elec       q    Type
REMARK                         _______ _______ _______ _____ _____    ______ ____
ROOT
ATOM      1  O4* UNL     1     -35.466  24.079   3.659  0.00  0.00    -0.332 OA
ATOM      2  C2* UNL     1     -35.555  26.256   4.576  0.00  0.00    +0.188 C 
ATOM      3  C3* UNL     1     -34.355  25.553   5.176  0.00  0.00    +0.171 C 
ATOM      4  C1* UNL     1     -35.797  25.432   3.321  0.00  0.00    +0.236 C 
ATOM      5  C4* UNL     1     -34.569  24.089   4.788  0.00  0.00    +0.175 C 
ENDROOT
BRANCH   4   8
ATOM      6  F   UNL     1     -40.149  23.472   2.773  0.00  0.00    -0.199 F 
ATOM      7  O   UNL     1     -36.842  27.589   1.905  0.00  0.00    -0.193 OA
ATOM      8  N   UNL     1     -37.139  25.493   2.827  0.00  0.00    -0.176 N 
ATOM      9  N   UNL     1     -38.901  26.669   1.645  0.00  0.00    -0.304 NA
ATOM     10  N   UNL     1     -41.010  25.715   1.384  0.00  0.00    -0.330 N 
ATOM     11  C   UNL     1     -38.017  24.438   3.038  0.00  0.00    +0.113 C 
ATOM     12  C   UNL     1     -37.595  26.637   2.111  0.00  0.00    +0.276 C 
ATOM     13  C   UNL     1     -39.268  24.469   2.592  0.00  0.00    +0.200 C 
ATOM     14  C   UNL     1     -39.718  25.668   1.851  0.00  0.00    +0.220 C 
ATOM     15  H   UNL     1     -41.326  26.504   0.889  0.00  0.00    +0.145 HD
ATOM     16  H   UNL     1     -41.618  24.956   1.544  0.00  0.00    +0.145 HD
ENDBRANCH   4   8
BRANCH   2  17
ATOM     17  O2* UNL     1     -36.645  26.147   5.484  0.00  0.00    -0.378 OA
ATOM     18  H2* UNL     1     -37.422  25.805   5.017  0.00  0.00    +0.211 HD
ENDBRANCH   2  17
BRANCH   3  19
ATOM     19  O3* UNL     1     -33.169  26.019   4.538  0.00  0.00    -0.379 OA
ATOM     20  H3* UNL     1     -32.487  25.332   4.581  0.00  0.00    +0.211 HD
ENDBRANCH   3  19
BRANCH   5  21
ATOM     21  C5* UNL     1     -35.203  23.257   5.894  0.00  0.00    +0.169 C 
BRANCH  21  22
ATOM     22  O5* UNL     1     -36.258  22.490   5.338  0.00  0.00    -0.379 OA
ATOM     23  H5* UNL     1     -36.837  23.068   4.817  0.00  0.00    +0.211 HD
ENDBRANCH  21  22
ENDBRANCH   5  21
TORSDOF 5
ENDMDL
MODEL 2
REMARK VINA RESULT:      -5.4      3.589      5.214
REMARK  Name = 20285
REMARK  5 active torsions:
REMARK  status: ('A' for Active; 'I' for Inactive)
REMARK    1  A    between atoms: C2*_2  and  O2*_17
REMARK    2  A    between atoms: C3*_3  and  O3*_19
REMARK    3  A    between atoms: C1*_4  and  N_8
REMARK    4  A    between atoms: C4*_5  and  C5*_21
REMARK    5  A    between atoms: C5*_21  and  O5*_22
REMARK                            x       y       z     vdW  Elec       q    Type
REMARK                         _______ _______ _______ _____ _____    ______ ____
ROOT
ATOM      1  O4* UNL     1     -34.889  25.045   3.340  0.00  0.00    -0.332 OA
ATOM      2  C2* UNL     1     -35.335  25.588   5.597  0.00  0.00    +0.188 C 
ATOM      3  C3* UNL     1     -35.991  24.254   5.307  0.00  0.00    +0.171 C 
ATOM      4  C1* UNL     1     -34.298  25.667   4.488  0.00  0.00    +0.236 C 
ATOM      5  C4* UNL     1     -35.932  24.152   3.782  0.00  0.00    +0.175 C 
ENDROOT
BRANCH   4   8
ATOM      6  F   UNL     1     -34.567  29.558   1.682  0.00  0.00    -0.199 F 
ATOM      7  O   UNL     1     -32.418  27.123   5.936  0.00  0.00    -0.193 OA
ATOM      8  N   UNL     1     -33.888  27.000   4.160  0.00  0.00    -0.176 N 
ATOM      9  N   UNL     1     -32.542  28.965   4.615  0.00  0.00    -0.304 NA
ATOM     10  N   UNL     1     -32.678  30.849   3.252  0.00  0.00    -0.330 N 
ATOM     11  C   UNL     1     -34.430  27.654   3.061  0.00  0.00    +0.113 C 
ATOM     12  C   UNL     1     -32.919  27.674   4.955  0.00  0.00    +0.276 C 
ATOM     13  C   UNL     1     -34.069  28.889   2.735  0.00  0.00    +0.200 C 
ATOM     14  C   UNL     1     -33.061  29.570   3.576  0.00  0.00    +0.220 C 
ATOM     15  H   UNL     1     -32.008  31.317   3.800  0.00  0.00    +0.145 HD
ATOM     16  H   UNL     1     -33.073  31.297   2.468  0.00  0.00    +0.145 HD
ENDBRANCH   4   8
BRANCH   2  17
ATOM     17  O2* UNL     1     -36.314  26.613   5.464  0.00  0.00    -0.378 OA
ATOM     18  H2* UNL     1     -36.560  26.940   6.342  0.00  0.00    +0.211 HD
ENDBRANCH   2  17
BRANCH   3  19
ATOM     19  O3* UNL     1     -35.196  23.208   5.858  0.00  0.00    -0.379 OA
ATOM     20  H3* UNL     1     -34.314  23.226   5.456  0.00  0.00    +0.211 HD
ENDBRANCH   3  19
BRANCH   5  21
ATOM     21  C5* UNL     1     -37.226  24.572   3.096  0.00  0.00    +0.169 C 
BRANCH  21  22
ATOM     22  O5* UNL     1     -38.224  24.758   4.085  0.00  0.00    -0.379 OA
ATOM     23  H5* UNL     1     -37.803  24.979   4.931  0.00  0.00    +0.211 HD
ENDBRANCH  21  22
ENDBRANCH   5  21
TORSDOF 5
ENDMDL
MODEL 3
REMARK VINA RESULT:      -5.3      3.204      4.293
REMARK  Name = 20285
REMARK  5 active torsions:
REMARK  status: ('A' for Active; 'I' for Inactive)
REMARK    1  A    between atoms: C2*_2  and  O2*_17
REMARK    2  A    between atoms: C3*_3  and  O3*_19
REMARK    3  A    between atoms: C1*_4  and  N_8
REMARK    4  A    between atoms: C4*_5  and  C5*_21
REMARK    5  A    between atoms: C5*_21  and  O5*_22
REMARK                            x       y       z     vdW  Elec       q    Type
REMARK                         _______ _______ _______ _____ _____    ______ ____
ROOT
ATOM      1  O4* UNL     1     -35.907  25.178   2.888  0.00  0.00    -0.332 OA
ATOM      2  C2* UNL     1     -36.048  24.327   5.089  0.00  0.00    +0.188 C 
ATOM      3  C3* UNL     1     -35.610  25.774   5.183  0.00  0.00    +0.171 C 
ATOM      4  C1* UNL     1     -36.676  24.286   3.704  0.00  0.00    +0.236 C 
ATOM      5  C4* UNL     1     -35.236  26.127   3.742  0.00  0.00    +0.175 C 
ENDROOT
BRANCH   4   8
ATOM      6  F   UNL     1     -34.492  20.167   2.549  0.00  0.00    -0.199 F 
ATOM      7  O   UNL     1     -38.917  23.176   2.481  0.00  0.00    -0.193 OA
ATOM      8  N   UNL     1     -36.703  22.985   3.108  0.00  0.00    -0.176 N 
ATOM      9  N   UNL     1     -37.891  21.226   1.934  0.00  0.00    -0.304 NA
ATOM     10  N   UNL     1     -36.826  19.229   1.378  0.00  0.00    -0.330 N 
ATOM     11  C   UNL     1     -35.568  22.184   3.112  0.00  0.00    +0.113 C 
ATOM     12  C   UNL     1     -37.893  22.491   2.503  0.00  0.00    +0.276 C 
ATOM     13  C   UNL     1     -35.566  20.973   2.568  0.00  0.00    +0.200 C 
ATOM     14  C   UNL     1     -36.814  20.482   1.945  0.00  0.00    +0.220 C 
ATOM     15  H   UNL     1     -37.648  18.887   0.959  0.00  0.00    +0.145 HD
ATOM     16  H   UNL     1     -36.012  18.676   1.391  0.00  0.00    +0.145 HD
ENDBRANCH   4   8
BRANCH   2  17
ATOM     17  O2* UNL     1     -34.894  23.498   5.157  0.00  0.00    -0.378 OA
ATOM     18  H2* UNL     1     -35.125  22.656   5.579  0.00  0.00    +0.211 HD
ENDBRANCH   2  17
BRANCH   3  19
ATOM     19  O3* UNL     1     -36.721  26.578   5.569  0.00  0.00    -0.379 OA
ATOM     20  H3* UNL     1     -36.419  27.481   5.751  0.00  0.00    +0.211 HD
ENDBRANCH   3  19
BRANCH   5  21
ATOM     21  C5* UNL     1     -33.742  26.029   3.463  0.00  0.00    +0.169 C 
BRANCH  21  22
ATOM     22  O5* UNL     1     -33.056  25.914   4.698  0.00  0.00    -0.379 OA
ATOM     23  H5* UNL     1     -32.596  25.061   4.734  0.00  0.00    +0.211 HD
ENDBRANCH  21  22
ENDBRANCH   5  21
TORSDOF 5
ENDMDL
MODEL 4
REMARK VINA RESULT:      -5.3      3.942      4.977
REMARK  Name = 20285
REMARK  5 active torsions:
REMARK  status: ('A' for Active; 'I' for Inactive)
REMARK    1  A    between atoms: C2*_2  and  O2*_17
REMARK    2  A    between atoms: C3*_3  and  O3*_19
REMARK    3  A    between atoms: C1*_4  and  N_8
REMARK    4  A    between atoms: C4*_5  and  C5*_21
REMARK    5  A    between atoms: C5*_21  and  O5*_22
REMARK                            x       y       z     vdW  Elec       q    Type
REMARK                         _______ _______ _______ _____ _____    ______ ____
ROOT
ATOM      1  O4* UNL     1     -36.352  21.339   0.195  0.00  0.00    -0.332 OA
ATOM      2  C2* UNL     1     -35.617  20.489   2.275  0.00  0.00    +0.188 C 
ATOM      3  C3* UNL     1     -35.066  19.587   1.189  0.00  0.00    +0.171 C 
ATOM      4  C1* UNL     1     -35.918  21.759   1.494  0.00  0.00    +0.236 C 
ATOM      5  C4* UNL     1     -35.847  20.011  -0.056  0.00  0.00    +0.175 C 
ENDROOT
BRANCH   4   8
ATOM      6  F   UNL     1     -40.435  23.379   1.714  0.00  0.00    -0.199 F 
ATOM      7  O   UNL     1     -35.442  23.469   3.639  0.00  0.00    -0.193 OA
ATOM      8  N   UNL     1     -36.916  22.594   2.092  0.00  0.00    -0.176 N 
ATOM      9  N   UNL     1     -37.576  24.238   3.749  0.00  0.00    -0.304 NA
ATOM     10  N   UNL     1     -39.769  25.018   3.852  0.00  0.00    -0.330 N 
ATOM     11  C   UNL     1     -38.219  22.590   1.611  0.00  0.00    +0.113 C 
ATOM     12  C   UNL     1     -36.589  23.441   3.188  0.00  0.00    +0.276 C 
ATOM     13  C   UNL     1     -39.165  23.352   2.148  0.00  0.00    +0.200 C 
ATOM     14  C   UNL     1     -38.800  24.224   3.286  0.00  0.00    +0.220 C 
ATOM     15  H   UNL     1     -39.544  25.604   4.609  0.00  0.00    +0.145 HD
ATOM     16  H   UNL     1     -40.687  25.002   3.497  0.00  0.00    +0.145 HD
ENDBRANCH   4   8
BRANCH   2  17
ATOM     17  O2* UNL     1     -36.807  19.904   2.789  0.00  0.00    -0.378 OA
ATOM     18  H2* UNL     1     -37.567  20.208   2.271  0.00  0.00    +0.211 HD
ENDBRANCH   2  17
BRANCH   3  19
ATOM     19  O3* UNL     1     -33.689  19.888   0.980  0.00  0.00    -0.379 OA
ATOM     20  H3* UNL     1     -33.217  19.082   0.724  0.00  0.00    +0.211 HD
ENDBRANCH   3  19
BRANCH   5  21
ATOM     21  C5* UNL     1     -37.037  19.110  -0.360  0.00  0.00    +0.169 C 
BRANCH  21  22
ATOM     22  O5* UNL     1     -37.035  18.030   0.558  0.00  0.00    -0.379 OA
ATOM     23  H5* UNL     1     -36.132  17.879   0.877  0.00  0.00    +0.211 HD
ENDBRANCH  21  22
ENDBRANCH   5  21
TORSDOF 5
ENDMDL
MODEL 5
REMARK VINA RESULT:      -5.2      6.120      7.459
REMARK  Name = 20285
REMARK  5 active torsions:
REMARK  status: ('A' for Active; 'I' for Inactive)
REMARK    1  A    between atoms: C2*_2  and  O2*_17
REMARK    2  A    between atoms: C3*_3  and  O3*_19
REMARK    3  A    between atoms: C1*_4  and  N_8
REMARK    4  A    between atoms: C4*_5  and  C5*_21
REMARK    5  A    between atoms: C5*_21  and  O5*_22
REMARK                            x       y       z     vdW  Elec       q    Type
REMARK                         _______ _______ _______ _____ _____    ______ ____
ROOT
ATOM      1  O4* UNL     1     -34.933  21.829   1.615  0.00  0.00    -0.332 OA
ATOM      2  C2* UNL     1     -37.016  20.715   1.702  0.00  0.00    +0.188 C 
ATOM      3  C3* UNL     1     -37.219  22.112   2.252  0.00  0.00    +0.171 C 
ATOM      4  C1* UNL     1     -35.738  20.885   0.897  0.00  0.00    +0.236 C 
ATOM      5  C4* UNL     1     -35.792  22.624   2.458  0.00  0.00    +0.175 C 
ENDROOT
BRANCH   4   8
ATOM      6  F   UNL     1     -31.999  18.046   1.915  0.00  0.00    -0.199 F 
ATOM      7  O   UNL     1     -36.487  18.876  -0.879  0.00  0.00    -0.193 OA
ATOM      8  N   UNL     1     -35.001  19.673   0.699  0.00  0.00    -0.176 N 
ATOM      9  N   UNL     1     -34.723  17.529  -0.401  0.00  0.00    -0.304 NA
ATOM     10  N   UNL     1     -32.908  16.156   0.098  0.00  0.00    -0.330 N 
ATOM     11  C   UNL     1     -33.833  19.433   1.411  0.00  0.00    +0.113 C 
ATOM     12  C   UNL     1     -35.455  18.695  -0.231  0.00  0.00    +0.276 C 
ATOM     13  C   UNL     1     -33.132  18.317   1.248  0.00  0.00    +0.200 C 
ATOM     14  C   UNL     1     -33.624  17.316   0.277  0.00  0.00    +0.220 C 
ATOM     15  H   UNL     1     -33.221  15.479  -0.544  0.00  0.00    +0.145 HD
ATOM     16  H   UNL     1     -32.082  16.004   0.613  0.00  0.00    +0.145 HD
ENDBRANCH   4   8
BRANCH   2  17
ATOM     17  O2* UNL     1     -36.825  19.822   2.793  0.00  0.00    -0.378 OA
ATOM     18  H2* UNL     1     -36.213  19.117   2.531  0.00  0.00    +0.211 HD
ENDBRANCH   2  17
BRANCH   3  19
ATOM     19  O3* UNL     1     -37.848  22.921   1.262  0.00  0.00    -0.379 OA
ATOM     20  H3* UNL     1     -38.603  22.443   0.886  0.00  0.00    +0.211 HD
ENDBRANCH   3  19
BRANCH   5  21
ATOM     21  C5* UNL     1     -35.299  22.480   3.892  0.00  0.00    +0.169 C 
BRANCH  21  22
ATOM     22  O5* UNL     1     -36.420  22.307   4.742  0.00  0.00    -0.379 OA
ATOM     23  H5* UNL     1     -36.134  21.898   5.574  0.00  0.00    +0.211 HD
ENDBRANCH  21  22
ENDBRANCH   5  21
TORSDOF 5
ENDMDL
MODEL 6
REMARK VINA RESULT:      -5.2      3.188      4.513
REMARK  Name = 20285
REMARK  5 active torsions:
REMARK  status: ('A' for Active; 'I' for Inactive)
REMARK    1  A    between atoms: C2*_2  and  O2*_17
REMARK    2  A    between atoms: C3*_3  and  O3*_19
REMARK    3  A    between atoms: C1*_4  and  N_8
REMARK    4  A    between atoms: C4*_5  and  C5*_21
REMARK    5  A    between atoms: C5*_21  and  O5*_22
REMARK                            x       y       z     vdW  Elec       q    Type
REMARK                         _______ _______ _______ _____ _____    ______ ____
ROOT
ATOM      1  O4* UNL     1     -35.723  22.823   1.426  0.00  0.00    -0.332 OA
ATOM      2  C2* UNL     1     -35.745  22.375   3.747  0.00  0.00    +0.188 C 
ATOM      3  C3* UNL     1     -36.060  21.080   3.026  0.00  0.00    +0.171 C 
ATOM      4  C1* UNL     1     -35.068  23.180   2.649  0.00  0.00    +0.236 C 
ATOM      5  C4* UNL     1     -36.343  21.531   1.592  0.00  0.00    +0.175 C 
ENDROOT
BRANCH   4   8
ATOM      6  F   UNL     1     -36.926  27.469   1.543  0.00  0.00    -0.199 F 
ATOM      7  O   UNL     1     -33.498  24.585   4.469  0.00  0.00    -0.193 OA
ATOM      8  N   UNL     1     -35.130  24.598   2.836  0.00  0.00    -0.176 N 
ATOM      9  N   UNL     1     -34.373  26.615   3.952  0.00  0.00    -0.304 NA
ATOM     10  N   UNL     1     -35.280  28.692   3.412  0.00  0.00    -0.330 N 
ATOM     11  C   UNL     1     -36.011  25.370   2.089  0.00  0.00    +0.113 C 
ATOM     12  C   UNL     1     -34.290  25.239   3.791  0.00  0.00    +0.276 C 
ATOM     13  C   UNL     1     -36.090  26.686   2.244  0.00  0.00    +0.200 C 
ATOM     14  C   UNL     1     -35.208  27.329   3.241  0.00  0.00    +0.220 C 
ATOM     15  H   UNL     1     -34.700  29.136   4.071  0.00  0.00    +0.145 HD
ATOM     16  H   UNL     1     -35.911  29.222   2.873  0.00  0.00    +0.145 HD
ENDBRANCH   4   8
BRANCH   2  17
ATOM     17  O2* UNL     1     -36.969  22.978   4.151  0.00  0.00    -0.378 OA
ATOM     18  H2* UNL     1     -37.683  22.681   3.566  0.00  0.00    +0.211 HD
ENDBRANCH   2  17
BRANCH   3  19
ATOM     19  O3* UNL     1     -34.900  20.253   3.016  0.00  0.00    -0.379 OA
ATOM     20  H3* UNL     1     -34.812  19.808   3.873  0.00  0.00    +0.211 HD
ENDBRANCH   3  19
BRANCH   5  21
ATOM     21  C5* UNL     1     -37.828  21.684   1.288  0.00  0.00    +0.169 C 
BRANCH  21  22
ATOM     22  O5* UNL     1     -38.569  21.011   2.291  0.00  0.00    -0.379 OA
ATOM     23  H5* UNL     1     -39.464  20.829   1.965  0.00  0.00    +0.211 HD
ENDBRANCH  21  22
ENDBRANCH   5  21
TORSDOF 5
ENDMDL
MODEL 7
REMARK VINA RESULT:      -5.1      3.291      4.996
REMARK  Name = 20285
REMARK  5 active torsions:
REMARK  status: ('A' for Active; 'I' for Inactive)
REMARK    1  A    between atoms: C2*_2  and  O2*_17
REMARK    2  A    between atoms: C3*_3  and  O3*_19
REMARK    3  A    between atoms: C1*_4  and  N_8
REMARK    4  A    between atoms: C4*_5  and  C5*_21
REMARK    5  A    between atoms: C5*_21  and  O5*_22
REMARK                            x       y       z     vdW  Elec       q    Type
REMARK                         _______ _______ _______ _____ _____    ______ ____
ROOT
ATOM      1  O4* UNL     1     -36.079  25.268   2.828  0.00  0.00    -0.332 OA
ATOM      2  C2* UNL     1     -35.032  24.833   4.903  0.00  0.00    +0.188 C 
ATOM      3  C3* UNL     1     -35.326  26.318   4.839  0.00  0.00    +0.171 C 
ATOM      4  C1* UNL     1     -36.001  24.284   3.867  0.00  0.00    +0.236 C 
ATOM      5  C4* UNL     1     -35.687  26.546   3.370  0.00  0.00    +0.175 C 
ENDROOT
BRANCH   4   8
ATOM      6  F   UNL     1     -34.494  21.632   0.156  0.00  0.00    -0.199 F 
ATOM      7  O   UNL     1     -35.947  21.897   5.300  0.00  0.00    -0.193 OA
ATOM      8  N   UNL     1     -35.614  23.022   3.311  0.00  0.00    -0.176 N 
ATOM      9  N   UNL     1     -35.234  20.639   3.550  0.00  0.00    -0.304 NA
ATOM     10  N   UNL     1     -34.502  19.358   1.747  0.00  0.00    -0.330 N 
ATOM     11  C   UNL     1     -35.233  22.926   1.979  0.00  0.00    +0.113 C 
ATOM     12  C   UNL     1     -35.614  21.847   4.115  0.00  0.00    +0.276 C 
ATOM     13  C   UNL     1     -34.869  21.769   1.438  0.00  0.00    +0.200 C 
ATOM     14  C   UNL     1     -34.877  20.562   2.293  0.00  0.00    +0.220 C 
ATOM     15  H   UNL     1     -34.502  18.545   2.301  0.00  0.00    +0.145 HD
ATOM     16  H   UNL     1     -34.235  19.310   0.800  0.00  0.00    +0.145 HD
ENDBRANCH   4   8
BRANCH   2  17
ATOM     17  O2* UNL     1     -33.681  24.622   4.510  0.00  0.00    -0.378 OA
ATOM     18  H2* UNL     1     -33.210  24.147   5.212  0.00  0.00    +0.211 HD
ENDBRANCH   2  17
BRANCH   3  19
ATOM     19  O3* UNL     1     -36.473  26.605   5.634  0.00  0.00    -0.379 OA
ATOM     20  H3* UNL     1     -37.273  26.507   5.095  0.00  0.00    +0.211 HD
ENDBRANCH   3  19
BRANCH   5  21
ATOM     21  C5* UNL     1     -34.525  27.069   2.535  0.00  0.00    +0.169 C 
BRANCH  21  22
ATOM     22  O5* UNL     1     -33.866  25.967   1.935  0.00  0.00    -0.379 OA
ATOM     23  H5* UNL     1     -33.224  25.595   2.560  0.00  0.00    +0.211 HD
ENDBRANCH  21  22
ENDBRANCH   5  21
TORSDOF 5
ENDMDL
MODEL 8
REMARK VINA RESULT:      -5.0      3.917      5.575
REMARK  Name = 20285
REMARK  5 active torsions:
REMARK  status: ('A' for Active; 'I' for Inactive)
REMARK    1  A    between atoms: C2*_2  and  O2*_17
REMARK    2  A    between atoms: C3*_3  and  O3*_19
REMARK    3  A    between atoms: C1*_4  and  N_8
REMARK    4  A    between atoms: C4*_5  and  C5*_21
REMARK    5  A    between atoms: C5*_21  and  O5*_22
REMARK                            x       y       z     vdW  Elec       q    Type
REMARK                         _______ _______ _______ _____ _____    ______ ____
ROOT
ATOM      1  O4* UNL     1     -35.199  21.870   0.844  0.00  0.00    -0.332 OA
ATOM      2  C2* UNL     1     -36.326  20.357   2.269  0.00  0.00    +0.188 C 
ATOM      3  C3* UNL     1     -36.015  19.628   0.978  0.00  0.00    +0.171 C 
ATOM      4  C1* UNL     1     -35.326  21.501   2.223  0.00  0.00    +0.236 C 
ATOM      5  C4* UNL     1     -35.598  20.750   0.027  0.00  0.00    +0.175 C 
ENDROOT
BRANCH   4   8
ATOM      6  F   UNL     1     -36.890  26.035   2.502  0.00  0.00    -0.199 F 
ATOM      7  O   UNL     1     -35.291  21.583   5.006  0.00  0.00    -0.193 OA
ATOM      8  N   UNL     1     -35.704  22.645   2.997  0.00  0.00    -0.176 N 
ATOM      9  N   UNL     1     -36.032  23.725   5.144  0.00  0.00    -0.304 NA
ATOM     10  N   UNL     1     -36.792  25.923   5.273  0.00  0.00    -0.330 N 
ATOM     11  C   UNL     1     -36.122  23.813   2.372  0.00  0.00    +0.113 C 
ATOM     12  C   UNL     1     -35.658  22.603   4.420  0.00  0.00    +0.276 C 
ATOM     13  C   UNL     1     -36.480  24.887   3.066  0.00  0.00    +0.200 C 
ATOM     14  C   UNL     1     -36.424  24.819   4.542  0.00  0.00    +0.220 C 
ATOM     15  H   UNL     1     -36.761  25.896   6.256  0.00  0.00    +0.145 HD
ATOM     16  H   UNL     1     -37.086  26.742   4.812  0.00  0.00    +0.145 HD
ENDBRANCH   4   8
BRANCH   2  17
ATOM     17  O2* UNL     1     -37.664  20.837   2.207  0.00  0.00    -0.378 OA
ATOM     18  H2* UNL     1     -38.018  20.694   1.316  0.00  0.00    +0.211 HD
ENDBRANCH   2  17
BRANCH   3  19
ATOM     19  O3* UNL     1     -34.895  18.770   1.181  0.00  0.00    -0.379 OA
ATOM     20  H3* UNL     1     -34.754  18.640   2.131  0.00  0.00    +0.211 HD
ENDBRANCH   3  19
BRANCH   5  21
ATOM     21  C5* UNL     1     -36.723  21.218  -0.887  0.00  0.00    +0.169 C 
BRANCH  21  22
ATOM     22  O5* UNL     1     -37.790  20.289  -0.805  0.00  0.00    -0.379 OA
ATOM     23  H5* UNL     1     -38.151  20.132  -1.692  0.00  0.00    +0.211 HD
ENDBRANCH  21  22
ENDBRANCH   5  21
TORSDOF 5
ENDMDL
MODEL 9
REMARK VINA RESULT:      -5.0      3.961      5.417
REMARK  Name = 20285
REMARK  5 active torsions:
REMARK  status: ('A' for Active; 'I' for Inactive)
REMARK    1  A    between atoms: C2*_2  and  O2*_17
REMARK    2  A    between atoms: C3*_3  and  O3*_19
REMARK    3  A    between atoms: C1*_4  and  N_8
REMARK    4  A    between atoms: C4*_5  and  C5*_21
REMARK    5  A    between atoms: C5*_21  and  O5*_22
REMARK                            x       y       z     vdW  Elec       q    Type
REMARK                         _______ _______ _______ _____ _____    ______ ____
ROOT
ATOM      1  O4* UNL     1     -35.125  20.670   2.881  0.00  0.00    -0.332 OA
ATOM      2  C2* UNL     1     -36.798  21.321   1.343  0.00  0.00    +0.188 C 
ATOM      3  C3* UNL     1     -36.184  20.032   0.837  0.00  0.00    +0.171 C 
ATOM      4  C1* UNL     1     -36.418  21.283   2.815  0.00  0.00    +0.236 C 
ATOM      5  C4* UNL     1     -34.927  19.875   1.694  0.00  0.00    +0.175 C 
ENDROOT
BRANCH   4   8
ATOM      6  F   UNL     1     -34.062  24.659   5.292  0.00  0.00    -0.199 F 
ATOM      7  O   UNL     1     -38.563  23.057   2.880  0.00  0.00    -0.193 OA
ATOM      8  N   UNL     1     -36.378  22.568   3.445  0.00  0.00    -0.176 N 
ATOM      9  N   UNL     1     -37.455  24.657   4.049  0.00  0.00    -0.304 NA
ATOM     10  N   UNL     1     -36.306  26.291   5.249  0.00  0.00    -0.330 N 
ATOM     11  C   UNL     1     -35.223  23.008   4.078  0.00  0.00    +0.113 C 
ATOM     12  C   UNL     1     -37.522  23.416   3.432  0.00  0.00    +0.276 C 
ATOM     13  C   UNL     1     -35.158  24.196   4.669  0.00  0.00    +0.200 C 
ATOM     14  C   UNL     1     -36.359  25.058   4.642  0.00  0.00    +0.220 C 
ATOM     15  H   UNL     1     -37.096  26.877   5.241  0.00  0.00    +0.145 HD
ATOM     16  H   UNL     1     -35.477  26.585   5.693  0.00  0.00    +0.145 HD
ENDBRANCH   4   8
BRANCH   2  17
ATOM     17  O2* UNL     1     -36.175  22.412   0.676  0.00  0.00    -0.378 OA
ATOM     18  H2* UNL     1     -36.570  22.522  -0.202  0.00  0.00    +0.211 HD
ENDBRANCH   2  17
BRANCH   3  19
ATOM     19  O3* UNL     1     -37.063  18.947   1.125  0.00  0.00    -0.379 OA
ATOM     20  H3* UNL     1     -36.984  18.707   2.061  0.00  0.00    +0.211 HD
ENDBRANCH   3  19
BRANCH   5  21
ATOM     21  C5* UNL     1     -33.661  20.370   1.008  0.00  0.00    +0.169 C 
BRANCH  21  22
ATOM     22  O5* UNL     1     -32.684  19.344   1.064  0.00  0.00    -0.379 OA
ATOM     23  H5* UNL     1     -31.809  19.738   1.207  0.00  0.00    +0.211 HD
ENDBRANCH  21  22
ENDBRANCH   5  21
TORSDOF 5
ENDMDL
