MODEL 1
REMARK VINA RESULT:      -7.4      0.000      0.000
REMARK  Name = 50899952
REMARK  1 active torsions:
REMARK  status: ('A' for Active; 'I' for Inactive)
REMARK    1  A    between atoms: C_7  and  N_35
REMARK                            x       y       z     vdW  Elec       q    Type
REMARK                         _______ _______ _______ _____ _____    ______ ____
ROOT
ATOM      1  O   UNL     1     -35.551  20.253   2.994  0.00  0.00    -0.274 OA
ATOM      2  O   UNL     1     -39.926  18.720  -2.440  0.00  0.00    -0.482 OA
ATOM      3  O   UNL     1     -37.349  16.728   0.064  0.00  0.00    -0.291 OA
ATOM      4  N   UNL     1     -36.134  25.644   3.932  0.00  0.00    +0.390 N 
ATOM      5  N   UNL     1     -36.704  19.209   1.253  0.00  0.00    -0.284 N 
ATOM      6  C   UNL     1     -35.532  23.488   2.048  0.00  0.00    +0.022 C 
ATOM      7  C   UNL     1     -36.948  23.734   2.569  0.00  0.00    +0.125 C 
ATOM      8  C   UNL     1     -35.678  22.550   0.823  0.00  0.00    +0.013 C 
ATOM      9  C   UNL     1     -36.844  21.591   1.334  0.00  0.00    +0.091 C 
ATOM     10  C   UNL     1     -37.631  22.371   2.441  0.00  0.00    +0.038 C 
ATOM     11  C   UNL     1     -34.736  24.786   1.958  0.00  0.00    -0.019 C 
ATOM     12  C   UNL     1     -36.886  24.368   3.958  0.00  0.00    -0.049 C 
ATOM     13  C   UNL     1     -34.800  25.558   3.292  0.00  0.00    -0.058 C 
ATOM     14  C   UNL     1     -37.744  20.982   0.280  0.00  0.00    -0.001 C 
ATOM     15  C   UNL     1     -35.987  23.305  -0.488  0.00  0.00    +0.001 C 
ATOM     16  C   UNL     1     -34.341  21.822   0.551  0.00  0.00    +0.001 C 
ATOM     17  C   UNL     1     -36.261  20.299   2.000  0.00  0.00    +0.229 C 
ATOM     18  C   UNL     1     -33.886  25.014   4.390  0.00  0.00    -0.023 C 
ATOM     19  C   UNL     1     -35.852  26.117   5.294  0.00  0.00    -0.077 C 
ATOM     20  C   UNL     1     -34.521  25.489   5.692  0.00  0.00    -0.025 C 
ATOM     21  C   UNL     1     -37.584  19.595   0.250  0.00  0.00    +0.052 C 
ATOM     22  C   UNL     1     -38.676  21.582  -0.554  0.00  0.00    +0.001 C 
ATOM     23  C   UNL     1     -38.284  18.785  -0.633  0.00  0.00    +0.082 C 
ATOM     24  C   UNL     1     -39.391  20.785  -1.453  0.00  0.00    +0.037 C 
ATOM     25  C   UNL     1     -39.182  19.397  -1.510  0.00  0.00    +0.142 C 
ATOM     26  C   UNL     1     -38.152  17.315  -0.652  0.00  0.00    +0.181 C 
ATOM     27  C   UNL     1     -39.112  16.580  -1.548  0.00  0.00    +0.109 C 
ATOM     28  C   UNL     1     -39.452  17.410  -2.791  0.00  0.00    +0.141 C 
ATOM     29  C   UNL     1     -38.265  17.526  -3.763  0.00  0.00    +0.044 C 
ATOM     30  C   UNL     1     -40.616  16.733  -3.530  0.00  0.00    +0.044 C 
ATOM     31  H   UNL     1     -36.743  26.265   3.398  0.00  0.00    -0.080 HD
ATOM     32  H   UNL     1     -36.428  18.279   1.418  0.00  0.00    +0.155 HD
ENDROOT
BRANCH   7  35
ATOM     33  O   UNL     1     -37.087  25.684   1.303  0.00  0.00    -0.131 OA
ATOM     34  O   UNL     1     -38.874  24.402   1.449  0.00  0.00    -0.131 OA
ATOM     35  N   UNL     1     -37.701  24.690   1.706  0.00  0.00    +0.028 N 
ENDBRANCH   7  35
TORSDOF 1
ENDMDL
MODEL 2
REMARK VINA RESULT:      -6.8      3.815      6.107
REMARK  Name = 50899952
REMARK  1 active torsions:
REMARK  status: ('A' for Active; 'I' for Inactive)
REMARK    1  A    between atoms: C_7  and  N_35
REMARK                            x       y       z     vdW  Elec       q    Type
REMARK                         _______ _______ _______ _____ _____    ______ ____
ROOT
ATOM      1  O   UNL     1     -33.419  23.868  -0.674  0.00  0.00    -0.274 OA
ATOM      2  O   UNL     1     -30.937  17.377   0.974  0.00  0.00    -0.482 OA
ATOM      3  O   UNL     1     -29.738  20.643  -1.211  0.00  0.00    -0.291 OA
ATOM      4  N   UNL     1     -38.206  24.380   1.991  0.00  0.00    +0.390 N 
ATOM      5  N   UNL     1     -32.189  21.888  -0.556  0.00  0.00    -0.284 N 
ATOM      6  C   UNL     1     -36.535  22.865   0.127  0.00  0.00    +0.022 C 
ATOM      7  C   UNL     1     -36.248  22.896   1.629  0.00  0.00    +0.125 C 
ATOM      8  C   UNL     1     -35.703  21.692  -0.449  0.00  0.00    +0.013 C 
ATOM      9  C   UNL     1     -34.370  21.836   0.413  0.00  0.00    +0.091 C 
ATOM     10  C   UNL     1     -34.749  22.604   1.724  0.00  0.00    +0.038 C 
ATOM     11  C   UNL     1     -38.028  22.990  -0.159  0.00  0.00    -0.019 C 
ATOM     12  C   UNL     1     -36.753  24.208   2.225  0.00  0.00    -0.049 C 
ATOM     13  C   UNL     1     -38.626  24.204   0.581  0.00  0.00    -0.058 C 
ATOM     14  C   UNL     1     -33.579  20.571   0.671  0.00  0.00    -0.001 C 
ATOM     15  C   UNL     1     -36.411  20.325  -0.325  0.00  0.00    +0.001 C 
ATOM     16  C   UNL     1     -35.492  21.888  -1.968  0.00  0.00    +0.001 C 
ATOM     17  C   UNL     1     -33.302  22.698  -0.340  0.00  0.00    +0.229 C 
ATOM     18  C   UNL     1     -38.337  25.556  -0.072  0.00  0.00    -0.023 C 
ATOM     19  C   UNL     1     -38.638  25.743   2.330  0.00  0.00    -0.077 C 
ATOM     20  C   UNL     1     -38.465  26.568   1.060  0.00  0.00    -0.025 C 
ATOM     21  C   UNL     1     -32.334  20.643   0.042  0.00  0.00    +0.052 C 
ATOM     22  C   UNL     1     -33.893  19.462   1.442  0.00  0.00    +0.001 C 
ATOM     23  C   UNL     1     -31.408  19.611   0.107  0.00  0.00    +0.082 C 
ATOM     24  C   UNL     1     -32.976  18.410   1.519  0.00  0.00    +0.037 C 
ATOM     25  C   UNL     1     -31.748  18.472   0.839  0.00  0.00    +0.142 C 
ATOM     26  C   UNL     1     -30.075  19.688  -0.522  0.00  0.00    +0.181 C 
ATOM     27  C   UNL     1     -29.133  18.557  -0.205  0.00  0.00    +0.109 C 
ATOM     28  C   UNL     1     -29.895  17.243  -0.007  0.00  0.00    +0.141 C 
ATOM     29  C   UNL     1     -30.480  16.698  -1.321  0.00  0.00    +0.044 C 
ATOM     30  C   UNL     1     -28.926  16.194   0.560  0.00  0.00    +0.044 C 
ATOM     31  H   UNL     1     -38.625  23.657   2.577  0.00  0.00    -0.080 HD
ATOM     32  H   UNL     1     -31.396  22.165  -1.070  0.00  0.00    +0.155 HD
ENDROOT
BRANCH   7  35
ATOM     33  O   UNL     1     -38.143  21.612   2.058  0.00  0.00    -0.131 OA
ATOM     34  O   UNL     1     -36.302  21.166   3.184  0.00  0.00    -0.131 OA
ATOM     35  N   UNL     1     -36.960  21.804   2.355  0.00  0.00    +0.028 N 
ENDBRANCH   7  35
TORSDOF 1
ENDMDL
MODEL 3
REMARK VINA RESULT:      -6.7      3.567      8.617
REMARK  Name = 50899952
REMARK  1 active torsions:
REMARK  status: ('A' for Active; 'I' for Inactive)
REMARK    1  A    between atoms: C_7  and  N_35
REMARK                            x       y       z     vdW  Elec       q    Type
REMARK                         _______ _______ _______ _____ _____    ______ ____
ROOT
ATOM      1  O   UNL     1     -32.931  21.338  -2.201  0.00  0.00    -0.274 OA
ATOM      2  O   UNL     1     -36.054  23.235   3.935  0.00  0.00    -0.482 OA
ATOM      3  O   UNL     1     -33.943  25.026   0.900  0.00  0.00    -0.291 OA
ATOM      4  N   UNL     1     -33.935  15.963  -2.813  0.00  0.00    +0.390 N 
ATOM      5  N   UNL     1     -33.663  22.485  -0.305  0.00  0.00    -0.284 N 
ATOM      6  C   UNL     1     -32.870  18.132  -1.164  0.00  0.00    +0.022 C 
ATOM      7  C   UNL     1     -34.371  17.947  -1.384  0.00  0.00    +0.125 C 
ATOM      8  C   UNL     1     -32.725  19.108   0.031  0.00  0.00    +0.013 C 
ATOM      9  C   UNL     1     -33.924  20.112  -0.272  0.00  0.00    +0.091 C 
ATOM     10  C   UNL     1     -34.952  19.346  -1.171  0.00  0.00    +0.038 C 
ATOM     11  C   UNL     1     -32.132  16.798  -1.188  0.00  0.00    -0.019 C 
ATOM     12  C   UNL     1     -34.617  17.275  -2.734  0.00  0.00    -0.049 C 
ATOM     13  C   UNL     1     -32.498  15.996  -2.454  0.00  0.00    -0.058 C 
ATOM     14  C   UNL     1     -34.567  20.794   0.918  0.00  0.00    -0.001 C 
ATOM     15  C   UNL     1     -32.800  18.404   1.404  0.00  0.00    +0.001 C 
ATOM     16  C   UNL     1     -31.329  19.772   0.007  0.00  0.00    +0.001 C 
ATOM     17  C   UNL     1     -33.428  21.355  -1.085  0.00  0.00    +0.229 C 
ATOM     18  C   UNL     1     -31.798  16.463  -3.731  0.00  0.00    -0.023 C 
ATOM     19  C   UNL     1     -33.953  15.441  -4.186  0.00  0.00    -0.077 C 
ATOM     20  C   UNL     1     -32.702  15.989  -4.863  0.00  0.00    -0.025 C 
ATOM     21  C   UNL     1     -34.341  22.171   0.866  0.00  0.00    +0.052 C 
ATOM     22  C   UNL     1     -35.339  20.265   1.942  0.00  0.00    +0.001 C 
ATOM     23  C   UNL     1     -34.812  23.039   1.842  0.00  0.00    +0.082 C 
ATOM     24  C   UNL     1     -35.822  21.121   2.936  0.00  0.00    +0.037 C 
ATOM     25  C   UNL     1     -35.543  22.497   2.901  0.00  0.00    +0.142 C 
ATOM     26  C   UNL     1     -34.612  24.500   1.782  0.00  0.00    +0.181 C 
ATOM     27  C   UNL     1     -35.338  25.306   2.824  0.00  0.00    +0.109 C 
ATOM     28  C   UNL     1     -35.460  24.528   4.138  0.00  0.00    +0.141 C 
ATOM     29  C   UNL     1     -34.109  24.376   4.859  0.00  0.00    +0.044 C 
ATOM     30  C   UNL     1     -36.421  25.283   5.070  0.00  0.00    +0.044 C 
ATOM     31  H   UNL     1     -34.453  15.389  -2.147  0.00  0.00    -0.080 HD
ATOM     32  H   UNL     1     -33.383  23.396  -0.554  0.00  0.00    +0.155 HD
ENDROOT
BRANCH   7  35
ATOM     33  O   UNL     1     -36.089  17.375   0.081  0.00  0.00    -0.131 OA
ATOM     34  O   UNL     1     -34.331  16.052  -0.035  0.00  0.00    -0.131 OA
ATOM     35  N   UNL     1     -34.979  17.053  -0.355  0.00  0.00    +0.028 N 
ENDBRANCH   7  35
TORSDOF 1
ENDMDL
MODEL 4
REMARK VINA RESULT:      -6.6      4.088      9.781
REMARK  Name = 50899952
REMARK  1 active torsions:
REMARK  status: ('A' for Active; 'I' for Inactive)
REMARK    1  A    between atoms: C_7  and  N_35
REMARK                            x       y       z     vdW  Elec       q    Type
REMARK                         _______ _______ _______ _____ _____    ______ ____
ROOT
ATOM      1  O   UNL     1     -36.081  28.100   0.895  0.00  0.00    -0.274 OA
ATOM      2  O   UNL     1     -31.497  28.155   6.371  0.00  0.00    -0.482 OA
ATOM      3  O   UNL     1     -32.308  30.422   3.043  0.00  0.00    -0.291 OA
ATOM      4  N   UNL     1     -39.398  23.792   1.739  0.00  0.00    +0.390 N 
ATOM      5  N   UNL     1     -34.320  28.560   2.356  0.00  0.00    -0.284 N 
ATOM      6  C   UNL     1     -36.679  24.830   1.445  0.00  0.00    +0.022 C 
ATOM      7  C   UNL     1     -37.519  25.108   2.691  0.00  0.00    +0.125 C 
ATOM      8  C   UNL     1     -35.220  25.200   1.814  0.00  0.00    +0.013 C 
ATOM      9  C   UNL     1     -35.471  26.498   2.704  0.00  0.00    +0.091 C 
ATOM     10  C   UNL     1     -36.938  26.411   3.245  0.00  0.00    +0.038 C 
ATOM     11  C   UNL     1     -37.018  23.475   0.833  0.00  0.00    -0.019 C 
ATOM     12  C   UNL     1     -39.003  25.093   2.328  0.00  0.00    -0.049 C 
ATOM     13  C   UNL     1     -38.540  23.339   0.620  0.00  0.00    -0.058 C 
ATOM     14  C   UNL     1     -34.454  26.797   3.786  0.00  0.00    -0.001 C 
ATOM     15  C   UNL     1     -34.465  24.058   2.532  0.00  0.00    +0.001 C 
ATOM     16  C   UNL     1     -34.399  25.467   0.531  0.00  0.00    +0.001 C 
ATOM     17  C   UNL     1     -35.369  27.801   1.842  0.00  0.00    +0.229 C 
ATOM     18  C   UNL     1     -39.084  24.083  -0.600  0.00  0.00    -0.023 C 
ATOM     19  C   UNL     1     -40.745  23.864   1.157  0.00  0.00    -0.077 C 
ATOM     20  C   UNL     1     -40.557  24.316  -0.287  0.00  0.00    -0.025 C 
ATOM     21  C   UNL     1     -33.783  27.989   3.503  0.00  0.00    +0.052 C 
ATOM     22  C   UNL     1     -34.170  26.114   4.959  0.00  0.00    +0.001 C 
ATOM     23  C   UNL     1     -32.788  28.495   4.327  0.00  0.00    +0.082 C 
ATOM     24  C   UNL     1     -33.169  26.605   5.802  0.00  0.00    +0.037 C 
ATOM     25  C   UNL     1     -32.466  27.777   5.480  0.00  0.00    +0.142 C 
ATOM     26  C   UNL     1     -32.097  29.772   4.059  0.00  0.00    +0.181 C 
ATOM     27  C   UNL     1     -31.173  30.259   5.144  0.00  0.00    +0.109 C 
ATOM     28  C   UNL     1     -30.518  29.085   5.880  0.00  0.00    +0.141 C 
ATOM     29  C   UNL     1     -29.487  28.347   5.009  0.00  0.00    +0.044 C 
ATOM     30  C   UNL     1     -29.798  29.626   7.125  0.00  0.00    +0.044 C 
ATOM     31  H   UNL     1     -39.324  23.147   2.526  0.00  0.00    -0.080 HD
ATOM     32  H   UNL     1     -33.999  29.401   1.956  0.00  0.00    +0.155 HD
ENDROOT
BRANCH   7  35
ATOM     33  O   UNL     1     -37.445  22.883   3.374  0.00  0.00    -0.131 OA
ATOM     34  O   UNL     1     -37.062  24.451   4.875  0.00  0.00    -0.131 OA
ATOM     35  N   UNL     1     -37.333  24.059   3.735  0.00  0.00    +0.028 N 
ENDBRANCH   7  35
TORSDOF 1
ENDMDL
MODEL 5
REMARK VINA RESULT:      -6.5      4.152      7.007
REMARK  Name = 50899952
REMARK  1 active torsions:
REMARK  status: ('A' for Active; 'I' for Inactive)
REMARK    1  A    between atoms: C_7  and  N_35
REMARK                            x       y       z     vdW  Elec       q    Type
REMARK                         _______ _______ _______ _____ _____    ______ ____
ROOT
ATOM      1  O   UNL     1     -39.748  21.661  -0.409  0.00  0.00    -0.274 OA
ATOM      2  O   UNL     1     -42.813  27.027   3.173  0.00  0.00    -0.482 OA
ATOM      3  O   UNL     1     -43.746  24.494   0.077  0.00  0.00    -0.291 OA
ATOM      4  N   UNL     1     -34.856  20.848   1.976  0.00  0.00    +0.390 N 
ATOM      5  N   UNL     1     -41.165  23.369   0.317  0.00  0.00    -0.284 N 
ATOM      6  C   UNL     1     -36.724  22.684   0.673  0.00  0.00    +0.022 C 
ATOM      7  C   UNL     1     -36.962  22.160   2.089  0.00  0.00    +0.125 C 
ATOM      8  C   UNL     1     -37.686  23.885   0.489  0.00  0.00    +0.013 C 
ATOM      9  C   UNL     1     -38.971  23.344   1.259  0.00  0.00    +0.091 C 
ATOM     10  C   UNL     1     -38.479  22.250   2.267  0.00  0.00    +0.038 C 
ATOM     11  C   UNL     1     -35.236  22.811   0.366  0.00  0.00    -0.019 C 
ATOM     12  C   UNL     1     -36.311  20.787   2.248  0.00  0.00    -0.049 C 
ATOM     13  C   UNL     1     -34.498  21.495   0.692  0.00  0.00    -0.058 C 
ATOM     14  C   UNL     1     -39.876  24.377   1.897  0.00  0.00    -0.001 C 
ATOM     15  C   UNL     1     -37.114  25.213   1.035  0.00  0.00    +0.001 C 
ATOM     16  C   UNL     1     -37.922  24.150  -1.016  0.00  0.00    +0.001 C 
ATOM     17  C   UNL     1     -39.971  22.652   0.273  0.00  0.00    +0.229 C 
ATOM     18  C   UNL     1     -34.671  20.391  -0.351  0.00  0.00    -0.023 C 
ATOM     19  C   UNL     1     -34.281  19.500   1.875  0.00  0.00    -0.077 C 
ATOM     20  C   UNL     1     -34.409  19.096   0.410  0.00  0.00    -0.025 C 
ATOM     21  C   UNL     1     -41.126  24.375   1.274  0.00  0.00    +0.052 C 
ATOM     22  C   UNL     1     -39.651  25.219   2.976  0.00  0.00    +0.001 C 
ATOM     23  C   UNL     1     -42.148  25.234   1.655  0.00  0.00    +0.082 C 
ATOM     24  C   UNL     1     -40.665  26.094   3.375  0.00  0.00    +0.037 C 
ATOM     25  C   UNL     1     -41.901  26.118   2.706  0.00  0.00    +0.142 C 
ATOM     26  C   UNL     1     -43.485  25.218   1.030  0.00  0.00    +0.181 C 
ATOM     27  C   UNL     1     -44.525  26.090   1.681  0.00  0.00    +0.109 C 
ATOM     28  C   UNL     1     -43.892  27.349   2.281  0.00  0.00    +0.141 C 
ATOM     29  C   UNL     1     -43.403  28.333   1.203  0.00  0.00    +0.044 C 
ATOM     30  C   UNL     1     -44.943  28.065   3.144  0.00  0.00    +0.044 C 
ATOM     31  H   UNL     1     -34.493  21.393   2.759  0.00  0.00    -0.080 HD
ATOM     32  H   UNL     1     -41.942  23.184  -0.259  0.00  0.00    +0.155 HD
ENDROOT
BRANCH   7  35
ATOM     33  O   UNL     1     -35.206  23.466   2.885  0.00  0.00    -0.131 OA
ATOM     34  O   UNL     1     -37.021  23.288   4.123  0.00  0.00    -0.131 OA
ATOM     35  N   UNL     1     -36.341  23.040   3.121  0.00  0.00    +0.028 N 
ENDBRANCH   7  35
TORSDOF 1
ENDMDL
MODEL 6
REMARK VINA RESULT:      -6.4      5.452     10.882
REMARK  Name = 50899952
REMARK  1 active torsions:
REMARK  status: ('A' for Active; 'I' for Inactive)
REMARK    1  A    between atoms: C_7  and  N_35
REMARK                            x       y       z     vdW  Elec       q    Type
REMARK                         _______ _______ _______ _____ _____    ______ ____
ROOT
ATOM      1  O   UNL     1     -37.257  28.252   1.058  0.00  0.00    -0.274 OA
ATOM      2  O   UNL     1     -32.959  33.789   2.432  0.00  0.00    -0.482 OA
ATOM      3  O   UNL     1     -36.420  33.051   0.346  0.00  0.00    -0.291 OA
ATOM      4  N   UNL     1     -35.154  23.982   3.819  0.00  0.00    +0.390 N 
ATOM      5  N   UNL     1     -36.199  30.333   1.085  0.00  0.00    -0.284 N 
ATOM      6  C   UNL     1     -34.766  26.133   1.875  0.00  0.00    +0.022 C 
ATOM      7  C   UNL     1     -34.908  26.412   3.371  0.00  0.00    +0.125 C 
ATOM      8  C   UNL     1     -34.207  27.434   1.243  0.00  0.00    +0.013 C 
ATOM      9  C   UNL     1     -35.003  28.526   2.087  0.00  0.00    +0.091 C 
ATOM     10  C   UNL     1     -35.434  27.848   3.431  0.00  0.00    +0.038 C 
ATOM     11  C   UNL     1     -34.104  24.783   1.618  0.00  0.00    -0.019 C 
ATOM     12  C   UNL     1     -35.755  25.320   4.022  0.00  0.00    -0.049 C 
ATOM     13  C   UNL     1     -34.817  23.668   2.410  0.00  0.00    -0.058 C 
ATOM     14  C   UNL     1     -34.326  29.866   2.287  0.00  0.00    -0.001 C 
ATOM     15  C   UNL     1     -32.669  27.540   1.331  0.00  0.00    +0.001 C 
ATOM     16  C   UNL     1     -34.517  27.463  -0.272  0.00  0.00    +0.001 C 
ATOM     17  C   UNL     1     -36.310  28.969   1.348  0.00  0.00    +0.229 C 
ATOM     18  C   UNL     1     -36.136  23.194   1.801  0.00  0.00    -0.023 C 
ATOM     19  C   UNL     1     -36.087  22.918   4.213  0.00  0.00    -0.077 C 
ATOM     20  C   UNL     1     -36.910  22.597   2.970  0.00  0.00    -0.025 C 
ATOM     21  C   UNL     1     -35.047  30.873   1.641  0.00  0.00    +0.052 C 
ATOM     22  C   UNL     1     -33.198  30.197   3.023  0.00  0.00    +0.001 C 
ATOM     23  C   UNL     1     -34.644  32.201   1.654  0.00  0.00    +0.082 C 
ATOM     24  C   UNL     1     -32.773  31.528   3.048  0.00  0.00    +0.037 C 
ATOM     25  C   UNL     1     -33.477  32.523   2.350  0.00  0.00    +0.142 C 
ATOM     26  C   UNL     1     -35.414  33.280   1.006  0.00  0.00    +0.181 C 
ATOM     27  C   UNL     1     -34.929  34.681   1.266  0.00  0.00    +0.109 C 
ATOM     28  C   UNL     1     -33.407  34.717   1.431  0.00  0.00    +0.141 C 
ATOM     29  C   UNL     1     -32.666  34.456   0.108  0.00  0.00    +0.044 C 
ATOM     30  C   UNL     1     -33.000  36.107   1.944  0.00  0.00    +0.044 C 
ATOM     31  H   UNL     1     -34.306  24.016   4.386  0.00  0.00    -0.080 HD
ATOM     32  H   UNL     1     -36.859  30.851   0.569  0.00  0.00    +0.155 HD
ENDROOT
BRANCH   7  35
ATOM     33  O   UNL     1     -32.800  25.499   3.750  0.00  0.00    -0.131 OA
ATOM     34  O   UNL     1     -33.388  27.285   4.900  0.00  0.00    -0.131 OA
ATOM     35  N   UNL     1     -33.590  26.393   4.070  0.00  0.00    +0.028 N 
ENDBRANCH   7  35
TORSDOF 1
ENDMDL
MODEL 7
REMARK VINA RESULT:      -6.4      8.398     10.186
REMARK  Name = 50899952
REMARK  1 active torsions:
REMARK  status: ('A' for Active; 'I' for Inactive)
REMARK    1  A    between atoms: C_7  and  N_35
REMARK                            x       y       z     vdW  Elec       q    Type
REMARK                         _______ _______ _______ _____ _____    ______ ____
ROOT
ATOM      1  O   UNL     1     -42.122  28.671   4.666  0.00  0.00    -0.274 OA
ATOM      2  O   UNL     1     -43.393  23.600  -0.199  0.00  0.00    -0.482 OA
ATOM      3  O   UNL     1     -40.254  25.959   1.006  0.00  0.00    -0.291 OA
ATOM      4  N   UNL     1     -46.793  29.237   7.519  0.00  0.00    +0.390 N 
ATOM      5  N   UNL     1     -41.986  27.182   2.874  0.00  0.00    -0.284 N 
ATOM      6  C   UNL     1     -45.435  29.232   4.928  0.00  0.00    +0.022 C 
ATOM      7  C   UNL     1     -45.674  27.945   5.717  0.00  0.00    +0.125 C 
ATOM      8  C   UNL     1     -45.055  28.794   3.490  0.00  0.00    +0.013 C 
ATOM      9  C   UNL     1     -44.158  27.516   3.808  0.00  0.00    +0.091 C 
ATOM     10  C   UNL     1     -44.574  27.001   5.228  0.00  0.00    +0.038 C 
ATOM     11  C   UNL     1     -46.540  30.253   5.176  0.00  0.00    -0.019 C 
ATOM     12  C   UNL     1     -45.725  28.257   7.212  0.00  0.00    -0.049 C 
ATOM     13  C   UNL     1     -46.758  30.464   6.689  0.00  0.00    -0.058 C 
ATOM     14  C   UNL     1     -44.127  26.421   2.763  0.00  0.00    -0.001 C 
ATOM     15  C   UNL     1     -46.283  28.517   2.594  0.00  0.00    +0.001 C 
ATOM     16  C   UNL     1     -44.294  29.933   2.773  0.00  0.00    +0.001 C 
ATOM     17  C   UNL     1     -42.640  27.896   3.876  0.00  0.00    +0.229 C 
ATOM     18  C   UNL     1     -45.715  31.352   7.367  0.00  0.00    -0.023 C 
ATOM     19  C   UNL     1     -46.676  29.730   8.898  0.00  0.00    -0.077 C 
ATOM     20  C   UNL     1     -45.756  30.945   8.835  0.00  0.00    -0.025 C 
ATOM     21  C   UNL     1     -42.844  26.305   2.223  0.00  0.00    +0.052 C 
ATOM     22  C   UNL     1     -45.124  25.551   2.351  0.00  0.00    +0.001 C 
ATOM     23  C   UNL     1     -42.535  25.382   1.232  0.00  0.00    +0.082 C 
ATOM     24  C   UNL     1     -44.836  24.615   1.353  0.00  0.00    +0.037 C 
ATOM     25  C   UNL     1     -43.555  24.543   0.780  0.00  0.00    +0.142 C 
ATOM     26  C   UNL     1     -41.177  25.224   0.678  0.00  0.00    +0.181 C 
ATOM     27  C   UNL     1     -40.980  24.061  -0.257  0.00  0.00    +0.109 C 
ATOM     28  C   UNL     1     -42.254  23.775  -1.058  0.00  0.00    +0.141 C 
ATOM     29  C   UNL     1     -42.550  24.866  -2.102  0.00  0.00    +0.044 C 
ATOM     30  C   UNL     1     -42.082  22.438  -1.796  0.00  0.00    +0.044 C 
ATOM     31  H   UNL     1     -47.651  28.714   7.340  0.00  0.00    -0.080 HD
ATOM     32  H   UNL     1     -41.032  27.285   2.656  0.00  0.00    +0.155 HD
ENDROOT
BRANCH   7  35
ATOM     33  O   UNL     1     -47.953  28.071   5.255  0.00  0.00    -0.131 OA
ATOM     34  O   UNL     1     -46.988  26.090   5.223  0.00  0.00    -0.131 OA
ATOM     35  N   UNL     1     -46.983  27.316   5.376  0.00  0.00    +0.028 N 
ENDBRANCH   7  35
TORSDOF 1
ENDMDL
MODEL 8
REMARK VINA RESULT:      -6.3      2.749      3.473
REMARK  Name = 50899952
REMARK  1 active torsions:
REMARK  status: ('A' for Active; 'I' for Inactive)
REMARK    1  A    between atoms: C_7  and  N_35
REMARK                            x       y       z     vdW  Elec       q    Type
REMARK                         _______ _______ _______ _____ _____    ______ ____
ROOT
ATOM      1  O   UNL     1     -37.658  21.233   1.885  0.00  0.00    -0.274 OA
ATOM      2  O   UNL     1     -43.578  22.469  -1.914  0.00  0.00    -0.482 OA
ATOM      3  O   UNL     1     -41.168  19.282  -0.964  0.00  0.00    -0.291 OA
ATOM      4  N   UNL     1     -36.282  26.053   4.155  0.00  0.00    +0.390 N 
ATOM      5  N   UNL     1     -39.497  21.063   0.458  0.00  0.00    -0.284 N 
ATOM      6  C   UNL     1     -36.899  24.514   1.745  0.00  0.00    +0.022 C 
ATOM      7  C   UNL     1     -37.977  24.891   2.761  0.00  0.00    +0.125 C 
ATOM      8  C   UNL     1     -37.649  24.060   0.467  0.00  0.00    +0.013 C 
ATOM      9  C   UNL     1     -38.871  23.271   1.117  0.00  0.00    +0.091 C 
ATOM     10  C   UNL     1     -39.054  23.820   2.572  0.00  0.00    +0.038 C 
ATOM     11  C   UNL     1     -35.797  25.566   1.682  0.00  0.00    -0.019 C 
ATOM     12  C   UNL     1     -37.354  25.030   4.149  0.00  0.00    -0.049 C 
ATOM     13  C   UNL     1     -35.262  25.880   3.095  0.00  0.00    -0.058 C 
ATOM     14  C   UNL     1     -40.163  23.234   0.327  0.00  0.00    -0.001 C 
ATOM     15  C   UNL     1     -38.051  25.235  -0.453  0.00  0.00    +0.001 C 
ATOM     16  C   UNL     1     -36.725  23.178  -0.405  0.00  0.00    +0.001 C 
ATOM     17  C   UNL     1     -38.558  21.741   1.232  0.00  0.00    +0.229 C 
ATOM     18  C   UNL     1     -34.301  24.834   3.660  0.00  0.00    -0.023 C 
ATOM     19  C   UNL     1     -35.514  26.005   5.407  0.00  0.00    -0.077 C 
ATOM     20  C   UNL     1     -34.386  25.007   5.172  0.00  0.00    -0.025 C 
ATOM     21  C   UNL     1     -40.451  21.926  -0.067  0.00  0.00    +0.052 C 
ATOM     22  C   UNL     1     -41.053  24.253   0.022  0.00  0.00    +0.001 C 
ATOM     23  C   UNL     1     -41.576  21.606  -0.815  0.00  0.00    +0.082 C 
ATOM     24  C   UNL     1     -42.191  23.953  -0.733  0.00  0.00    +0.037 C 
ATOM     25  C   UNL     1     -42.442  22.642  -1.168  0.00  0.00    +0.142 C 
ATOM     26  C   UNL     1     -41.911  20.223  -1.209  0.00  0.00    +0.181 C 
ATOM     27  C   UNL     1     -43.254  20.034  -1.863  0.00  0.00    +0.109 C 
ATOM     28  C   UNL     1     -43.642  21.262  -2.692  0.00  0.00    +0.141 C 
ATOM     29  C   UNL     1     -42.784  21.412  -3.960  0.00  0.00    +0.044 C 
ATOM     30  C   UNL     1     -45.112  21.123  -3.119  0.00  0.00    +0.044 C 
ATOM     31  H   UNL     1     -36.791  26.927   4.018  0.00  0.00    -0.080 HD
ATOM     32  H   UNL     1     -39.487  20.091   0.304  0.00  0.00    +0.155 HD
ENDROOT
BRANCH   7  35
ATOM     33  O   UNL     1     -39.819  26.310   2.635  0.00  0.00    -0.131 OA
ATOM     34  O   UNL     1     -37.848  27.100   2.045  0.00  0.00    -0.131 OA
ATOM     35  N   UNL     1     -38.602  26.209   2.448  0.00  0.00    +0.028 N 
ENDBRANCH   7  35
TORSDOF 1
ENDMDL
MODEL 9
REMARK VINA RESULT:      -6.1      6.135      9.357
REMARK  Name = 50899952
REMARK  1 active torsions:
REMARK  status: ('A' for Active; 'I' for Inactive)
REMARK    1  A    between atoms: C_7  and  N_35
REMARK                            x       y       z     vdW  Elec       q    Type
REMARK                         _______ _______ _______ _____ _____    ______ ____
ROOT
ATOM      1  O   UNL     1     -33.290  31.175   3.345  0.00  0.00    -0.274 OA
ATOM      2  O   UNL     1     -36.485  24.800   2.938  0.00  0.00    -0.482 OA
ATOM      3  O   UNL     1     -33.272  26.491   4.861  0.00  0.00    -0.291 OA
ATOM      4  N   UNL     1     -36.287  34.573   0.222  0.00  0.00    +0.390 N 
ATOM      5  N   UNL     1     -33.838  28.913   3.520  0.00  0.00    -0.284 N 
ATOM      6  C   UNL     1     -34.766  32.084   0.455  0.00  0.00    +0.022 C 
ATOM      7  C   UNL     1     -36.135  32.259   1.113  0.00  0.00    +0.125 C 
ATOM      8  C   UNL     1     -34.468  30.564   0.474  0.00  0.00    +0.013 C 
ATOM      9  C   UNL     1     -35.059  30.174   1.901  0.00  0.00    +0.091 C 
ATOM     10  C   UNL     1     -36.113  31.269   2.279  0.00  0.00    +0.038 C 
ATOM     11  C   UNL     1     -34.658  32.894  -0.833  0.00  0.00    -0.019 C 
ATOM     12  C   UNL     1     -36.367  33.734   1.441  0.00  0.00    -0.049 C 
ATOM     13  C   UNL     1     -35.067  34.362  -0.591  0.00  0.00    -0.058 C 
ATOM     14  C   UNL     1     -35.582  28.762   2.067  0.00  0.00    -0.001 C 
ATOM     15  C   UNL     1     -35.095  29.805  -0.717  0.00  0.00    +0.001 C 
ATOM     16  C   UNL     1     -32.947  30.320   0.337  0.00  0.00    +0.001 C 
ATOM     17  C   UNL     1     -33.945  30.202   3.001  0.00  0.00    +0.229 C 
ATOM     18  C   UNL     1     -34.001  35.216   0.096  0.00  0.00    -0.023 C 
ATOM     19  C   UNL     1     -36.251  36.001   0.566  0.00  0.00    -0.077 C 
ATOM     20  C   UNL     1     -34.779  36.353   0.749  0.00  0.00    -0.025 C 
ATOM     21  C   UNL     1     -34.800  28.063   2.990  0.00  0.00    +0.052 C 
ATOM     22  C   UNL     1     -36.687  28.147   1.501  0.00  0.00    +0.001 C 
ATOM     23  C   UNL     1     -35.051  26.739   3.324  0.00  0.00    +0.082 C 
ATOM     24  C   UNL     1     -36.958  26.813   1.821  0.00  0.00    +0.037 C 
ATOM     25  C   UNL     1     -36.133  26.104   2.711  0.00  0.00    +0.142 C 
ATOM     26  C   UNL     1     -34.257  25.999   4.323  0.00  0.00    +0.181 C 
ATOM     27  C   UNL     1     -34.774  24.635   4.693  0.00  0.00    +0.109 C 
ATOM     28  C   UNL     1     -35.462  23.963   3.501  0.00  0.00    +0.141 C 
ATOM     29  C   UNL     1     -34.466  23.546   2.405  0.00  0.00    +0.044 C 
ATOM     30  C   UNL     1     -36.186  22.702   3.998  0.00  0.00    +0.044 C 
ATOM     31  H   UNL     1     -37.116  34.298  -0.307  0.00  0.00    -0.080 HD
ATOM     32  H   UNL     1     -33.164  28.639   4.183  0.00  0.00    +0.155 HD
ENDROOT
BRANCH   7  35
ATOM     33  O   UNL     1     -37.161  32.201  -0.977  0.00  0.00    -0.131 OA
ATOM     34  O   UNL     1     -38.156  31.182   0.706  0.00  0.00    -0.131 OA
ATOM     35  N   UNL     1     -37.247  31.852   0.205  0.00  0.00    +0.028 N 
ENDBRANCH   7  35
TORSDOF 1
ENDMDL
