MODEL 1
REMARK VINA RESULT:      -6.5      0.000      0.000
REMARK  Name = 196430
REMARK  14 active torsions:
REMARK  status: ('A' for Active; 'I' for Inactive)
REMARK    1  A    between atoms: C_1  and  C_6
REMARK    2  A    between atoms: C_1  and  N_21
REMARK    3  A    between atoms: C_7  and  C_9
REMARK    4  A    between atoms: C_9  and  N_10
REMARK    5  A    between atoms: C_9  and  C_14
REMARK    6  A    between atoms: C_14  and  C_15
REMARK    7  A    between atoms: N_21  and  C_24
REMARK    8  A    between atoms: C_24  and  C_26
REMARK    9  A    between atoms: C_24  and  C_29
REMARK   10  A    between atoms: C_26  and  C_28
REMARK   11  A    between atoms: C_29  and  C_30
REMARK   12  A    between atoms: C_30  and  C_31
REMARK   13  A    between atoms: C_31  and  N_32
REMARK   14  A    between atoms: N_32  and  C_35
REMARK                            x       y       z     vdW  Elec       q    Type
REMARK                         _______ _______ _______ _____ _____    ______ ____
ROOT
ATOM      1  C   UNL     1     -35.018  23.069   5.043  0.00  0.00    +0.018 C 
ATOM      2  C   UNL     1     -35.111  22.312   6.362  0.00  0.00    -0.014 C 
ENDROOT
BRANCH   1   6
ATOM      3  O   UNL     1     -37.241  23.162   4.074  0.00  0.00    -0.277 OA
ATOM      4  O   UNL     1     -37.676  21.308   2.022  0.00  0.00    -0.277 OA
ATOM      5  N   UNL     1     -35.722  21.591   3.262  0.00  0.00    -0.259 N 
ATOM      6  C   UNL     1     -36.130  22.635   4.097  0.00  0.00    +0.208 C 
ATOM      7  C   UNL     1     -36.516  20.994   2.280  0.00  0.00    +0.208 C 
ATOM      8  H   UNL     1     -34.806  21.250   3.375  0.00  0.00    +0.157 HD
BRANCH   7   9
ATOM      9  C   UNL     1     -35.788  19.856   1.565  0.00  0.00    +0.018 C 
BRANCH   9  10
ATOM     10  N   UNL     1     -36.814  19.020   0.937  0.00  0.00    +0.388 N 
ATOM     11  H   UNL     1     -37.069  18.263   1.570  0.00  0.00    -0.089 HD
ATOM     12  H   UNL     1     -36.448  18.629   0.068  0.00  0.00    -0.089 HD
ATOM     13  H   UNL     1     -37.637  19.587   0.734  0.00  0.00    -0.089 HD
ENDBRANCH   9  10
BRANCH   9  14
ATOM     14  C   UNL     1     -34.815  20.402   0.507  0.00  0.00    +0.013 C 
BRANCH  14  15
ATOM     15  C   UNL     1     -33.452  19.754   0.569  0.00  0.00    -0.024 C 
ATOM     16  C   UNL     1     -33.275  18.563   1.273  0.00  0.00    -0.004 C 
ATOM     17  C   UNL     1     -32.368  20.347  -0.080  0.00  0.00    -0.004 C 
ATOM     18  C   UNL     1     -32.017  17.965   1.329  0.00  0.00    -0.000 C 
ATOM     19  C   UNL     1     -31.109  19.750  -0.023  0.00  0.00    -0.000 C 
ATOM     20  C   UNL     1     -30.933  18.558   0.681  0.00  0.00    -0.000 C 
ENDBRANCH  14  15
ENDBRANCH   9  14
ENDBRANCH   7   9
ENDBRANCH   1   6
BRANCH   1  21
ATOM     21  N   UNL     1     -35.137  24.510   5.257  0.00  0.00    +0.397 N 
ATOM     22  H   UNL     1     -36.093  24.801   5.050  0.00  0.00    -0.083 HD
ATOM     23  H   UNL     1     -34.906  24.717   6.228  0.00  0.00    -0.083 HD
BRANCH  21  24
ATOM     24  C   UNL     1     -34.220  25.238   4.393  0.00  0.00    -0.000 C 
BRANCH  24  26
ATOM     25  O   UNL     1     -33.926  26.481   6.435  0.00  0.00    -0.297 OA
ATOM     26  C   UNL     1     -33.704  26.409   5.226  0.00  0.00    +0.147 C 
BRANCH  26  28
ATOM     27 CL   UNL     1     -31.873  28.377   5.537  0.00  0.00    -0.105 Cl
ATOM     28  C   UNL     1     -32.955  27.480   4.462  0.00  0.00    +0.157 C 
ENDBRANCH  26  28
ENDBRANCH  24  26
BRANCH  24  29
ATOM     29  C   UNL     1     -34.930  25.690   3.110  0.00  0.00    -0.012 C 
BRANCH  29  30
ATOM     30  C   UNL     1     -36.305  26.306   3.398  0.00  0.00    +0.025 C 
BRANCH  30  31
ATOM     31  C   UNL     1     -37.130  26.510   2.132  0.00  0.00    +0.129 C 
BRANCH  31  32
ATOM     32  N   UNL     1     -38.558  26.440   2.449  0.00  0.00    -0.240 NA
BRANCH  32  35
ATOM     33  N   UNL     1     -38.988  24.155   1.848  0.00  0.00    -0.370 N 
ATOM     34  N   UNL     1     -39.728  24.996   3.832  0.00  0.00    -0.370 N 
ATOM     35  C   UNL     1     -39.050  25.260   2.667  0.00  0.00    +0.189 C 
ATOM     36  H   UNL     1     -38.528  24.210   0.979  0.00  0.00    +0.159 HD
ATOM     37  H   UNL     1     -39.405  23.309   2.131  0.00  0.00    +0.159 HD
ATOM     38  H   UNL     1     -39.844  25.704   4.507  0.00  0.00    +0.159 HD
ATOM     39  H   UNL     1     -40.100  24.098   3.993  0.00  0.00    +0.159 HD
ENDBRANCH  32  35
ENDBRANCH  31  32
ENDBRANCH  30  31
ENDBRANCH  29  30
ENDBRANCH  24  29
ENDBRANCH  21  24
ENDBRANCH   1  21
TORSDOF 14
ENDMDL
MODEL 2
REMARK VINA RESULT:      -6.5      2.798      4.101
REMARK  Name = 196430
REMARK  14 active torsions:
REMARK  status: ('A' for Active; 'I' for Inactive)
REMARK    1  A    between atoms: C_1  and  C_6
REMARK    2  A    between atoms: C_1  and  N_21
REMARK    3  A    between atoms: C_7  and  C_9
REMARK    4  A    between atoms: C_9  and  N_10
REMARK    5  A    between atoms: C_9  and  C_14
REMARK    6  A    between atoms: C_14  and  C_15
REMARK    7  A    between atoms: N_21  and  C_24
REMARK    8  A    between atoms: C_24  and  C_26
REMARK    9  A    between atoms: C_24  and  C_29
REMARK   10  A    between atoms: C_26  and  C_28
REMARK   11  A    between atoms: C_29  and  C_30
REMARK   12  A    between atoms: C_30  and  C_31
REMARK   13  A    between atoms: C_31  and  N_32
REMARK   14  A    between atoms: N_32  and  C_35
REMARK                            x       y       z     vdW  Elec       q    Type
REMARK                         _______ _______ _______ _____ _____    ______ ____
ROOT
ATOM      1  C   UNL     1     -36.211  24.916   4.524  0.00  0.00    +0.018 C 
ATOM      2  C   UNL     1     -35.748  25.936   5.558  0.00  0.00    -0.014 C 
ENDROOT
BRANCH   1   6
ATOM      3  O   UNL     1     -35.269  23.237   6.002  0.00  0.00    -0.277 OA
ATOM      4  O   UNL     1     -35.061  20.691   4.859  0.00  0.00    -0.277 OA
ATOM      5  N   UNL     1     -35.879  22.620   3.838  0.00  0.00    -0.259 N 
ATOM      6  C   UNL     1     -35.724  23.521   4.895  0.00  0.00    +0.208 C 
ATOM      7  C   UNL     1     -35.540  21.265   3.884  0.00  0.00    +0.208 C 
ATOM      8  H   UNL     1     -36.256  22.966   2.997  0.00  0.00    +0.157 HD
BRANCH   7   9
ATOM      9  C   UNL     1     -35.797  20.563   2.552  0.00  0.00    +0.018 C 
BRANCH   9  10
ATOM     10  N   UNL     1     -37.230  20.686   2.274  0.00  0.00    +0.388 N 
ATOM     11  H   UNL     1     -37.705  19.829   2.554  0.00  0.00    -0.089 HD
ATOM     12  H   UNL     1     -37.370  20.842   1.275  0.00  0.00    -0.089 HD
ATOM     13  H   UNL     1     -37.611  21.474   2.798  0.00  0.00    -0.089 HD
ENDBRANCH   9  10
BRANCH   9  14
ATOM     14  C   UNL     1     -34.972  21.201   1.423  0.00  0.00    +0.013 C 
BRANCH  14  15
ATOM     15  C   UNL     1     -33.757  20.387   1.046  0.00  0.00    -0.024 C 
ATOM     16  C   UNL     1     -33.594  19.098   1.555  0.00  0.00    -0.004 C 
ATOM     17  C   UNL     1     -32.797  20.923   0.187  0.00  0.00    -0.004 C 
ATOM     18  C   UNL     1     -32.472  18.347   1.207  0.00  0.00    -0.000 C 
ATOM     19  C   UNL     1     -31.675  20.172  -0.160  0.00  0.00    -0.000 C 
ATOM     20  C   UNL     1     -31.512  18.883   0.348  0.00  0.00    -0.000 C 
ENDBRANCH  14  15
ENDBRANCH   9  14
ENDBRANCH   7   9
ENDBRANCH   1   6
BRANCH   1  21
ATOM     21  N   UNL     1     -37.669  24.884   4.437  0.00  0.00    +0.397 N 
ATOM     22  H   UNL     1     -37.989  23.920   4.535  0.00  0.00    -0.083 HD
ATOM     23  H   UNL     1     -38.054  25.463   5.183  0.00  0.00    -0.083 HD
BRANCH  21  24
ATOM     24  C   UNL     1     -38.122  25.409   3.158  0.00  0.00    -0.000 C 
BRANCH  24  26
ATOM     25  O   UNL     1     -38.596  23.158   2.442  0.00  0.00    -0.297 OA
ATOM     26  C   UNL     1     -38.998  24.318   2.547  0.00  0.00    +0.147 C 
BRANCH  26  28
ATOM     27 CL   UNL     1     -40.851  26.267   2.842  0.00  0.00    -0.105 Cl
ATOM     28  C   UNL     1     -40.354  24.768   2.045  0.00  0.00    +0.157 C 
ENDBRANCH  26  28
ENDBRANCH  24  26
BRANCH  24  29
ATOM     29  C   UNL     1     -36.926  25.775   2.270  0.00  0.00    -0.012 C 
BRANCH  29  30
ATOM     30  C   UNL     1     -37.087  27.160   1.628  0.00  0.00    +0.025 C 
BRANCH  30  31
ATOM     31  C   UNL     1     -35.762  27.731   1.134  0.00  0.00    +0.129 C 
BRANCH  31  32
ATOM     32  N   UNL     1     -35.632  29.127   1.555  0.00  0.00    -0.240 NA
BRANCH  32  35
ATOM     33  N   UNL     1     -34.265  28.513   3.432  0.00  0.00    -0.370 N 
ATOM     34  N   UNL     1     -35.378  30.500   3.404  0.00  0.00    -0.370 N 
ATOM     35  C   UNL     1     -35.109  29.337   2.724  0.00  0.00    +0.189 C 
ATOM     36  H   UNL     1     -33.992  27.645   3.054  0.00  0.00    +0.159 HD
ATOM     37  H   UNL     1     -33.933  28.790   4.316  0.00  0.00    +0.159 HD
ATOM     38  H   UNL     1     -35.971  31.179   3.006  0.00  0.00    +0.159 HD
ATOM     39  H   UNL     1     -34.978  30.656   4.291  0.00  0.00    +0.159 HD
ENDBRANCH  32  35
ENDBRANCH  31  32
ENDBRANCH  30  31
ENDBRANCH  29  30
ENDBRANCH  24  29
ENDBRANCH  21  24
ENDBRANCH   1  21
TORSDOF 14
ENDMDL
MODEL 3
REMARK VINA RESULT:      -6.2      2.409      4.037
REMARK  Name = 196430
REMARK  14 active torsions:
REMARK  status: ('A' for Active; 'I' for Inactive)
REMARK    1  A    between atoms: C_1  and  C_6
REMARK    2  A    between atoms: C_1  and  N_21
REMARK    3  A    between atoms: C_7  and  C_9
REMARK    4  A    between atoms: C_9  and  N_10
REMARK    5  A    between atoms: C_9  and  C_14
REMARK    6  A    between atoms: C_14  and  C_15
REMARK    7  A    between atoms: N_21  and  C_24
REMARK    8  A    between atoms: C_24  and  C_26
REMARK    9  A    between atoms: C_24  and  C_29
REMARK   10  A    between atoms: C_26  and  C_28
REMARK   11  A    between atoms: C_29  and  C_30
REMARK   12  A    between atoms: C_30  and  C_31
REMARK   13  A    between atoms: C_31  and  N_32
REMARK   14  A    between atoms: N_32  and  C_35
REMARK                            x       y       z     vdW  Elec       q    Type
REMARK                         _______ _______ _______ _____ _____    ______ ____
ROOT
ATOM      1  C   UNL     1     -35.589  23.181   4.863  0.00  0.00    +0.018 C 
ATOM      2  C   UNL     1     -35.324  22.204   6.003  0.00  0.00    -0.014 C 
ENDROOT
BRANCH   1   6
ATOM      3  O   UNL     1     -37.516  22.762   3.449  0.00  0.00    -0.277 OA
ATOM      4  O   UNL     1     -37.092  20.821   1.477  0.00  0.00    -0.277 OA
ATOM      5  N   UNL     1     -35.560  21.552   3.075  0.00  0.00    -0.259 N 
ATOM      6  C   UNL     1     -36.352  22.494   3.737  0.00  0.00    +0.208 C 
ATOM      7  C   UNL     1     -35.976  20.776   1.990  0.00  0.00    +0.208 C 
ATOM      8  H   UNL     1     -34.639  21.424   3.399  0.00  0.00    +0.157 HD
BRANCH   7   9
ATOM      9  C   UNL     1     -34.886  19.815   1.519  0.00  0.00    +0.018 C 
BRANCH   9  10
ATOM     10  N   UNL     1     -35.541  18.796   0.696  0.00  0.00    +0.388 N 
ATOM     11  H   UNL     1     -35.087  18.754  -0.216  0.00  0.00    -0.089 HD
ATOM     12  H   UNL     1     -36.525  19.037   0.575  0.00  0.00    -0.089 HD
ATOM     13  H   UNL     1     -35.468  17.889   1.155  0.00  0.00    -0.089 HD
ENDBRANCH   9  10
BRANCH   9  14
ATOM     14  C   UNL     1     -33.811  20.555   0.706  0.00  0.00    +0.013 C 
BRANCH  14  15
ATOM     15  C   UNL     1     -32.524  19.775   0.579  0.00  0.00    -0.024 C 
ATOM     16  C   UNL     1     -32.376  18.559   1.247  0.00  0.00    -0.004 C 
ATOM     17  C   UNL     1     -31.484  20.269  -0.207  0.00  0.00    -0.004 C 
ATOM     18  C   UNL     1     -31.188  17.838   1.129  0.00  0.00    -0.000 C 
ATOM     19  C   UNL     1     -30.295  19.549  -0.325  0.00  0.00    -0.000 C 
ATOM     20  C   UNL     1     -30.147  18.332   0.343  0.00  0.00    -0.000 C 
ENDBRANCH  14  15
ENDBRANCH   9  14
ENDBRANCH   7   9
ENDBRANCH   1   6
BRANCH   1  21
ATOM     21  N   UNL     1     -36.383  24.319   5.324  0.00  0.00    +0.397 N 
ATOM     22  H   UNL     1     -37.301  24.288   4.881  0.00  0.00    -0.083 HD
ATOM     23  H   UNL     1     -36.476  24.264   6.338  0.00  0.00    -0.083 HD
BRANCH  21  24
ATOM     24  C   UNL     1     -35.730  25.575   4.983  0.00  0.00    -0.000 C 
BRANCH  24  26
ATOM     25  O   UNL     1     -37.435  26.070   3.354  0.00  0.00    -0.297 OA
ATOM     26  C   UNL     1     -36.233  25.939   3.588  0.00  0.00    +0.147 C 
BRANCH  26  28
ATOM     27 CL   UNL     1     -35.197  27.698   1.811  0.00  0.00    -0.105 Cl
ATOM     28  C   UNL     1     -35.167  26.077   2.521  0.00  0.00    +0.157 C 
ENDBRANCH  26  28
ENDBRANCH  24  26
BRANCH  24  29
ATOM     29  C   UNL     1     -34.205  25.426   5.044  0.00  0.00    -0.012 C 
BRANCH  29  30
ATOM     30  C   UNL     1     -33.548  26.549   5.857  0.00  0.00    +0.025 C 
BRANCH  30  31
ATOM     31  C   UNL     1     -32.733  27.500   4.987  0.00  0.00    +0.129 C 
BRANCH  31  32
ATOM     32  N   UNL     1     -31.607  28.037   5.753  0.00  0.00    -0.240 NA
BRANCH  32  35
ATOM     33  N   UNL     1     -32.317  30.330   5.821  0.00  0.00    -0.370 N 
ATOM     34  N   UNL     1     -31.467  29.319   7.677  0.00  0.00    -0.370 N 
ATOM     35  C   UNL     1     -31.797  29.172   6.352  0.00  0.00    +0.189 C 
ATOM     36  H   UNL     1     -32.595  30.358   4.876  0.00  0.00    +0.159 HD
ATOM     37  H   UNL     1     -32.412  31.131   6.385  0.00  0.00    +0.159 HD
ATOM     38  H   UNL     1     -31.084  28.562   8.178  0.00  0.00    +0.159 HD
ATOM     39  H   UNL     1     -31.614  30.183   8.128  0.00  0.00    +0.159 HD
ENDBRANCH  32  35
ENDBRANCH  31  32
ENDBRANCH  30  31
ENDBRANCH  29  30
ENDBRANCH  24  29
ENDBRANCH  21  24
ENDBRANCH   1  21
TORSDOF 14
ENDMDL
MODEL 4
REMARK VINA RESULT:      -6.1      2.927      4.239
REMARK  Name = 196430
REMARK  14 active torsions:
REMARK  status: ('A' for Active; 'I' for Inactive)
REMARK    1  A    between atoms: C_1  and  C_6
REMARK    2  A    between atoms: C_1  and  N_21
REMARK    3  A    between atoms: C_7  and  C_9
REMARK    4  A    between atoms: C_9  and  N_10
REMARK    5  A    between atoms: C_9  and  C_14
REMARK    6  A    between atoms: C_14  and  C_15
REMARK    7  A    between atoms: N_21  and  C_24
REMARK    8  A    between atoms: C_24  and  C_26
REMARK    9  A    between atoms: C_24  and  C_29
REMARK   10  A    between atoms: C_26  and  C_28
REMARK   11  A    between atoms: C_29  and  C_30
REMARK   12  A    between atoms: C_30  and  C_31
REMARK   13  A    between atoms: C_31  and  N_32
REMARK   14  A    between atoms: N_32  and  C_35
REMARK                            x       y       z     vdW  Elec       q    Type
REMARK                         _______ _______ _______ _____ _____    ______ ____
ROOT
ATOM      1  C   UNL     1     -36.148  24.960   4.443  0.00  0.00    +0.018 C 
ATOM      2  C   UNL     1     -35.956  25.925   5.607  0.00  0.00    -0.014 C 
ENDROOT
BRANCH   1   6
ATOM      3  O   UNL     1     -35.267  23.272   5.948  0.00  0.00    -0.277 OA
ATOM      4  O   UNL     1     -35.120  20.708   4.836  0.00  0.00    -0.277 OA
ATOM      5  N   UNL     1     -35.876  22.647   3.787  0.00  0.00    -0.259 N 
ATOM      6  C   UNL     1     -35.704  23.556   4.835  0.00  0.00    +0.208 C 
ATOM      7  C   UNL     1     -35.575  21.284   3.851  0.00  0.00    +0.208 C 
ATOM      8  H   UNL     1     -36.235  22.994   2.938  0.00  0.00    +0.157 HD
BRANCH   7   9
ATOM      9  C   UNL     1     -35.841  20.574   2.524  0.00  0.00    +0.018 C 
BRANCH   9  10
ATOM     10  N   UNL     1     -37.277  20.685   2.261  0.00  0.00    +0.388 N 
ATOM     11  H   UNL     1     -37.572  19.916   1.659  0.00  0.00    -0.089 HD
ATOM     12  H   UNL     1     -37.471  21.573   1.798  0.00  0.00    -0.089 HD
ATOM     13  H   UNL     1     -37.788  20.642   3.142  0.00  0.00    -0.089 HD
ENDBRANCH   9  10
BRANCH   9  14
ATOM     14  C   UNL     1     -35.033  21.214   1.383  0.00  0.00    +0.013 C 
BRANCH  14  15
ATOM     15  C   UNL     1     -33.796  20.427   1.021  0.00  0.00    -0.024 C 
ATOM     16  C   UNL     1     -32.831  20.989   0.184  0.00  0.00    -0.004 C 
ATOM     17  C   UNL     1     -33.618  19.138   1.523  0.00  0.00    -0.004 C 
ATOM     18  C   UNL     1     -31.689  20.262  -0.150  0.00  0.00    -0.000 C 
ATOM     19  C   UNL     1     -32.476  18.410   1.188  0.00  0.00    -0.000 C 
ATOM     20  C   UNL     1     -31.511  18.972   0.352  0.00  0.00    -0.000 C 
ENDBRANCH  14  15
ENDBRANCH   9  14
ENDBRANCH   7   9
ENDBRANCH   1   6
BRANCH   1  21
ATOM     21  N   UNL     1     -37.551  24.900   4.039  0.00  0.00    +0.397 N 
ATOM     22  H   UNL     1     -37.786  23.939   3.789  0.00  0.00    -0.083 HD
ATOM     23  H   UNL     1     -38.130  25.215   4.817  0.00  0.00    -0.083 HD
BRANCH  21  24
ATOM     24  C   UNL     1     -37.796  25.764   2.895  0.00  0.00    -0.000 C 
BRANCH  24  26
ATOM     25  O   UNL     1     -40.109  26.346   3.237  0.00  0.00    -0.297 OA
ATOM     26  C   UNL     1     -39.294  25.666   2.612  0.00  0.00    +0.147 C 
BRANCH  26  28
ATOM     27 CL   UNL     1     -39.898  23.049   2.278  0.00  0.00    -0.105 Cl
ATOM     28  C   UNL     1     -39.699  24.655   1.560  0.00  0.00    +0.157 C 
ENDBRANCH  26  28
ENDBRANCH  24  26
BRANCH  24  29
ATOM     29  C   UNL     1     -36.938  25.333   1.698  0.00  0.00    -0.012 C 
BRANCH  29  30
ATOM     30  C   UNL     1     -36.323  26.534   0.968  0.00  0.00    +0.025 C 
BRANCH  30  31
ATOM     31  C   UNL     1     -36.377  27.813   1.798  0.00  0.00    +0.129 C 
BRANCH  31  32
ATOM     32  N   UNL     1     -35.084  28.497   1.745  0.00  0.00    -0.240 NA
BRANCH  32  35
ATOM     33  N   UNL     1     -33.853  28.245   3.792  0.00  0.00    -0.370 N 
ATOM     34  N   UNL     1     -34.840  30.229   3.265  0.00  0.00    -0.370 N 
ATOM     35  C   UNL     1     -34.608  28.934   2.871  0.00  0.00    +0.189 C 
ATOM     36  H   UNL     1     -33.616  27.303   3.630  0.00  0.00    +0.159 HD
ATOM     37  H   UNL     1     -33.550  28.694   4.615  0.00  0.00    +0.159 HD
ATOM     38  H   UNL     1     -35.370  30.832   2.693  0.00  0.00    +0.159 HD
ATOM     39  H   UNL     1     -34.477  30.557   4.120  0.00  0.00    +0.159 HD
ENDBRANCH  32  35
ENDBRANCH  31  32
ENDBRANCH  30  31
ENDBRANCH  29  30
ENDBRANCH  24  29
ENDBRANCH  21  24
ENDBRANCH   1  21
TORSDOF 14
ENDMDL
MODEL 5
REMARK VINA RESULT:      -6.1      2.049      3.707
REMARK  Name = 196430
REMARK  14 active torsions:
REMARK  status: ('A' for Active; 'I' for Inactive)
REMARK    1  A    between atoms: C_1  and  C_6
REMARK    2  A    between atoms: C_1  and  N_21
REMARK    3  A    between atoms: C_7  and  C_9
REMARK    4  A    between atoms: C_9  and  N_10
REMARK    5  A    between atoms: C_9  and  C_14
REMARK    6  A    between atoms: C_14  and  C_15
REMARK    7  A    between atoms: N_21  and  C_24
REMARK    8  A    between atoms: C_24  and  C_26
REMARK    9  A    between atoms: C_24  and  C_29
REMARK   10  A    between atoms: C_26  and  C_28
REMARK   11  A    between atoms: C_29  and  C_30
REMARK   12  A    between atoms: C_30  and  C_31
REMARK   13  A    between atoms: C_31  and  N_32
REMARK   14  A    between atoms: N_32  and  C_35
REMARK                            x       y       z     vdW  Elec       q    Type
REMARK                         _______ _______ _______ _____ _____    ______ ____
ROOT
ATOM      1  C   UNL     1     -37.788  24.387   2.804  0.00  0.00    +0.018 C 
ATOM      2  C   UNL     1     -39.206  23.843   2.685  0.00  0.00    -0.014 C 
ENDROOT
BRANCH   1   6
ATOM      3  O   UNL     1     -36.588  23.623   4.770  0.00  0.00    -0.277 OA
ATOM      4  O   UNL     1     -35.293  21.164   4.439  0.00  0.00    -0.277 OA
ATOM      5  N   UNL     1     -36.549  22.310   2.845  0.00  0.00    -0.259 N 
ATOM      6  C   UNL     1     -36.912  23.428   3.600  0.00  0.00    +0.208 C 
ATOM      7  C   UNL     1     -35.765  21.250   3.308  0.00  0.00    +0.208 C 
ATOM      8  H   UNL     1     -36.870  22.265   1.915  0.00  0.00    +0.157 HD
BRANCH   7   9
ATOM      9  C   UNL     1     -35.519  20.201   2.225  0.00  0.00    +0.018 C 
BRANCH   9  10
ATOM     10  N   UNL     1     -36.832  19.749   1.760  0.00  0.00    +0.388 N 
ATOM     11  H   UNL     1     -37.477  20.539   1.745  0.00  0.00    -0.089 HD
ATOM     12  H   UNL     1     -37.188  19.031   2.392  0.00  0.00    -0.089 HD
ATOM     13  H   UNL     1     -36.745  19.363   0.821  0.00  0.00    -0.089 HD
ENDBRANCH   9  10
BRANCH   9  14
ATOM     14  C   UNL     1     -34.708  20.791   1.059  0.00  0.00    +0.013 C 
BRANCH  14  15
ATOM     15  C   UNL     1     -33.400  20.072   0.825  0.00  0.00    -0.024 C 
ATOM     16  C   UNL     1     -33.185  18.813   1.387  0.00  0.00    -0.004 C 
ATOM     17  C   UNL     1     -32.407  20.666   0.047  0.00  0.00    -0.004 C 
ATOM     18  C   UNL     1     -31.978  18.150   1.171  0.00  0.00    -0.000 C 
ATOM     19  C   UNL     1     -31.200  20.003  -0.169  0.00  0.00    -0.000 C 
ATOM     20  C   UNL     1     -30.985  18.744   0.392  0.00  0.00    -0.000 C 
ENDBRANCH  14  15
ENDBRANCH   9  14
ENDBRANCH   7   9
ENDBRANCH   1   6
BRANCH   1  21
ATOM     21  N   UNL     1     -37.185  24.568   1.485  0.00  0.00    +0.397 N 
ATOM     22  H   UNL     1     -36.696  23.713   1.220  0.00  0.00    -0.083 HD
ATOM     23  H   UNL     1     -37.923  24.777   0.813  0.00  0.00    -0.083 HD
BRANCH  21  24
ATOM     24  C   UNL     1     -36.239  25.674   1.497  0.00  0.00    -0.000 C 
BRANCH  24  26
ATOM     25  O   UNL     1     -38.014  26.653   0.196  0.00  0.00    -0.297 OA
ATOM     26  C   UNL     1     -36.907  26.802   0.714  0.00  0.00    +0.147 C 
BRANCH  26  28
ATOM     27 CL   UNL     1     -35.587  28.659   2.175  0.00  0.00    -0.105 Cl
ATOM     28  C   UNL     1     -36.102  28.078   0.584  0.00  0.00    +0.157 C 
ENDBRANCH  26  28
ENDBRANCH  24  26
BRANCH  24  29
ATOM     29  C   UNL     1     -34.897  25.244   0.890  0.00  0.00    -0.012 C 
BRANCH  29  30
ATOM     30  C   UNL     1     -33.916  24.741   1.957  0.00  0.00    +0.025 C 
BRANCH  30  31
ATOM     31  C   UNL     1     -33.463  25.849   2.902  0.00  0.00    +0.129 C 
BRANCH  31  32
ATOM     32  N   UNL     1     -33.581  25.400   4.290  0.00  0.00    -0.240 NA
BRANCH  32  35
ATOM     33  N   UNL     1     -35.543  26.571   5.031  0.00  0.00    -0.370 N 
ATOM     34  N   UNL     1     -33.590  26.721   6.194  0.00  0.00    -0.370 N 
ATOM     35  C   UNL     1     -34.226  26.179   5.103  0.00  0.00    +0.189 C 
ATOM     36  H   UNL     1     -36.112  26.251   4.293  0.00  0.00    +0.159 HD
ATOM     37  H   UNL     1     -35.917  27.170   5.716  0.00  0.00    +0.159 HD
ATOM     38  H   UNL     1     -32.640  26.519   6.362  0.00  0.00    +0.159 HD
ATOM     39  H   UNL     1     -34.083  27.312   6.808  0.00  0.00    +0.159 HD
ENDBRANCH  32  35
ENDBRANCH  31  32
ENDBRANCH  30  31
ENDBRANCH  29  30
ENDBRANCH  24  29
ENDBRANCH  21  24
ENDBRANCH   1  21
TORSDOF 14
ENDMDL
MODEL 6
REMARK VINA RESULT:      -6.1      2.009      3.024
REMARK  Name = 196430
REMARK  14 active torsions:
REMARK  status: ('A' for Active; 'I' for Inactive)
REMARK    1  A    between atoms: C_1  and  C_6
REMARK    2  A    between atoms: C_1  and  N_21
REMARK    3  A    between atoms: C_7  and  C_9
REMARK    4  A    between atoms: C_9  and  N_10
REMARK    5  A    between atoms: C_9  and  C_14
REMARK    6  A    between atoms: C_14  and  C_15
REMARK    7  A    between atoms: N_21  and  C_24
REMARK    8  A    between atoms: C_24  and  C_26
REMARK    9  A    between atoms: C_24  and  C_29
REMARK   10  A    between atoms: C_26  and  C_28
REMARK   11  A    between atoms: C_29  and  C_30
REMARK   12  A    between atoms: C_30  and  C_31
REMARK   13  A    between atoms: C_31  and  N_32
REMARK   14  A    between atoms: N_32  and  C_35
REMARK                            x       y       z     vdW  Elec       q    Type
REMARK                         _______ _______ _______ _____ _____    ______ ____
ROOT
ATOM      1  C   UNL     1     -34.159  25.956   1.517  0.00  0.00    +0.018 C 
ATOM      2  C   UNL     1     -33.086  25.974   0.436  0.00  0.00    -0.014 C 
ENDROOT
BRANCH   1   6
ATOM      3  O   UNL     1     -36.223  25.138   0.536  0.00  0.00    -0.277 OA
ATOM      4  O   UNL     1     -36.716  22.422   0.998  0.00  0.00    -0.277 OA
ATOM      5  N   UNL     1     -34.888  23.660   1.746  0.00  0.00    -0.259 N 
ATOM      6  C   UNL     1     -35.217  24.905   1.203  0.00  0.00    +0.208 C 
ATOM      7  C   UNL     1     -35.654  22.499   1.611  0.00  0.00    +0.208 C 
ATOM      8  H   UNL     1     -34.053  23.596   2.264  0.00  0.00    +0.157 HD
BRANCH   7   9
ATOM      9  C   UNL     1     -35.038  21.315   2.354  0.00  0.00    +0.018 C 
BRANCH   9  10
ATOM     10  N   UNL     1     -35.870  21.071   3.535  0.00  0.00    +0.388 N 
ATOM     11  H   UNL     1     -35.731  20.114   3.856  0.00  0.00    -0.089 HD
ATOM     12  H   UNL     1     -36.852  21.210   3.293  0.00  0.00    -0.089 HD
ATOM     13  H   UNL     1     -35.607  21.721   4.275  0.00  0.00    -0.089 HD
ENDBRANCH   9  10
BRANCH   9  14
ATOM     14  C   UNL     1     -34.993  20.065   1.460  0.00  0.00    +0.013 C 
BRANCH  14  15
ATOM     15  C   UNL     1     -33.590  19.677   1.057  0.00  0.00    -0.024 C 
ATOM     16  C   UNL     1     -32.827  20.537   0.266  0.00  0.00    -0.004 C 
ATOM     17  C   UNL     1     -33.056  18.459   1.476  0.00  0.00    -0.004 C 
ATOM     18  C   UNL     1     -31.532  20.178  -0.105  0.00  0.00    -0.000 C 
ATOM     19  C   UNL     1     -31.761  18.100   1.104  0.00  0.00    -0.000 C 
ATOM     20  C   UNL     1     -30.998  18.960   0.314  0.00  0.00    -0.000 C 
ENDBRANCH  14  15
ENDBRANCH   9  14
ENDBRANCH   7   9
ENDBRANCH   1   6
BRANCH   1  21
ATOM     21  N   UNL     1     -33.581  25.645   2.823  0.00  0.00    +0.397 N 
ATOM     22  H   UNL     1     -33.979  24.770   3.166  0.00  0.00    -0.083 HD
ATOM     23  H   UNL     1     -32.570  25.560   2.722  0.00  0.00    -0.083 HD
BRANCH  21  24
ATOM     24  C   UNL     1     -33.867  26.705   3.779  0.00  0.00    -0.000 C 
BRANCH  24  26
ATOM     25  O   UNL     1     -31.572  27.413   3.957  0.00  0.00    -0.297 OA
ATOM     26  C   UNL     1     -32.725  27.709   3.642  0.00  0.00    +0.147 C 
BRANCH  26  28
ATOM     27 CL   UNL     1     -34.861  29.179   2.868  0.00  0.00    -0.105 Cl
ATOM     28  C   UNL     1     -33.116  29.085   3.146  0.00  0.00    +0.157 C 
ENDBRANCH  26  28
ENDBRANCH  24  26
BRANCH  24  29
ATOM     29  C   UNL     1     -33.988  26.134   5.198  0.00  0.00    -0.012 C 
BRANCH  29  30
ATOM     30  C   UNL     1     -34.538  24.701   5.199  0.00  0.00    +0.025 C 
BRANCH  30  31
ATOM     31  C   UNL     1     -36.027  24.648   5.525  0.00  0.00    +0.129 C 
BRANCH  31  32
ATOM     32  N   UNL     1     -36.758  24.034   4.415  0.00  0.00    -0.240 NA
BRANCH  32  35
ATOM     33  N   UNL     1     -38.490  24.437   2.799  0.00  0.00    -0.370 N 
ATOM     34  N   UNL     1     -37.564  26.160   3.968  0.00  0.00    -0.370 N 
ATOM     35  C   UNL     1     -37.566  24.803   3.752  0.00  0.00    +0.189 C 
ATOM     36  H   UNL     1     -38.592  23.490   2.550  0.00  0.00    +0.159 HD
ATOM     37  H   UNL     1     -39.048  25.123   2.366  0.00  0.00    +0.159 HD
ATOM     38  H   UNL     1     -36.948  26.554   4.628  0.00  0.00    +0.159 HD
ATOM     39  H   UNL     1     -38.180  26.741   3.462  0.00  0.00    +0.159 HD
ENDBRANCH  32  35
ENDBRANCH  31  32
ENDBRANCH  30  31
ENDBRANCH  29  30
ENDBRANCH  24  29
ENDBRANCH  21  24
ENDBRANCH   1  21
TORSDOF 14
ENDMDL
MODEL 7
REMARK VINA RESULT:      -6.1      3.063      7.404
REMARK  Name = 196430
REMARK  14 active torsions:
REMARK  status: ('A' for Active; 'I' for Inactive)
REMARK    1  A    between atoms: C_1  and  C_6
REMARK    2  A    between atoms: C_1  and  N_21
REMARK    3  A    between atoms: C_7  and  C_9
REMARK    4  A    between atoms: C_9  and  N_10
REMARK    5  A    between atoms: C_9  and  C_14
REMARK    6  A    between atoms: C_14  and  C_15
REMARK    7  A    between atoms: N_21  and  C_24
REMARK    8  A    between atoms: C_24  and  C_26
REMARK    9  A    between atoms: C_24  and  C_29
REMARK   10  A    between atoms: C_26  and  C_28
REMARK   11  A    between atoms: C_29  and  C_30
REMARK   12  A    between atoms: C_30  and  C_31
REMARK   13  A    between atoms: C_31  and  N_32
REMARK   14  A    between atoms: N_32  and  C_35
REMARK                            x       y       z     vdW  Elec       q    Type
REMARK                         _______ _______ _______ _____ _____    ______ ____
ROOT
ATOM      1  C   UNL     1     -38.159  21.632   1.562  0.00  0.00    +0.018 C 
ATOM      2  C   UNL     1     -39.596  21.284   1.191  0.00  0.00    -0.014 C 
ENDROOT
BRANCH   1   6
ATOM      3  O   UNL     1     -38.835  23.886   2.154  0.00  0.00    -0.277 OA
ATOM      4  O   UNL     1     -37.490  24.942   4.370  0.00  0.00    -0.277 OA
ATOM      5  N   UNL     1     -37.179  22.839   3.415  0.00  0.00    -0.259 N 
ATOM      6  C   UNL     1     -38.115  22.916   2.381  0.00  0.00    +0.208 C 
ATOM      7  C   UNL     1     -36.924  23.852   4.343  0.00  0.00    +0.208 C 
ATOM      8  H   UNL     1     -36.658  22.007   3.496  0.00  0.00    +0.157 HD
BRANCH   7   9
ATOM      9  C   UNL     1     -35.816  23.469   5.323  0.00  0.00    +0.018 C 
BRANCH   9  10
ATOM     10  N   UNL     1     -36.085  22.096   5.757  0.00  0.00    +0.388 N 
ATOM     11  H   UNL     1     -36.226  21.504   4.939  0.00  0.00    -0.089 HD
ATOM     12  H   UNL     1     -36.924  22.081   6.337  0.00  0.00    -0.089 HD
ATOM     13  H   UNL     1     -35.292  21.749   6.296  0.00  0.00    -0.089 HD
ENDBRANCH   9  10
BRANCH   9  14
ATOM     14  C   UNL     1     -34.434  23.563   4.657  0.00  0.00    +0.013 C 
BRANCH  14  15
ATOM     15  C   UNL     1     -33.937  24.984   4.525  0.00  0.00    -0.024 C 
ATOM     16  C   UNL     1     -33.539  25.471   3.279  0.00  0.00    -0.004 C 
ATOM     17  C   UNL     1     -33.877  25.809   5.647  0.00  0.00    -0.004 C 
ATOM     18  C   UNL     1     -33.081  26.782   3.157  0.00  0.00    -0.000 C 
ATOM     19  C   UNL     1     -33.418  27.120   5.525  0.00  0.00    -0.000 C 
ATOM     20  C   UNL     1     -33.021  27.608   4.280  0.00  0.00    -0.000 C 
ENDBRANCH  14  15
ENDBRANCH   9  14
ENDBRANCH   7   9
ENDBRANCH   1   6
BRANCH   1  21
ATOM     21  N   UNL     1     -37.550  20.565   2.353  0.00  0.00    +0.397 N 
ATOM     22  H   UNL     1     -37.113  20.970   3.181  0.00  0.00    -0.083 HD
ATOM     23  H   UNL     1     -38.276  19.901   2.622  0.00  0.00    -0.083 HD
BRANCH  21  24
ATOM     24  C   UNL     1     -36.539  19.861   1.577  0.00  0.00    -0.000 C 
BRANCH  24  26
ATOM     25  O   UNL     1     -35.132  20.507   3.422  0.00  0.00    -0.297 OA
ATOM     26  C   UNL     1     -35.202  20.199   2.232  0.00  0.00    +0.147 C 
BRANCH  26  28
ATOM     27 CL   UNL     1     -33.123  18.644   1.468  0.00  0.00    -0.105 Cl
ATOM     28  C   UNL     1     -33.996  20.175   1.316  0.00  0.00    +0.157 C 
ENDBRANCH  26  28
ENDBRANCH  24  26
BRANCH  24  29
ATOM     29  C   UNL     1     -36.600  20.279   0.103  0.00  0.00    -0.012 C 
BRANCH  29  30
ATOM     30  C   UNL     1     -36.960  19.104  -0.816  0.00  0.00    +0.025 C 
BRANCH  30  31
ATOM     31  C   UNL     1     -35.804  18.123  -0.989  0.00  0.00    +0.129 C 
BRANCH  31  32
ATOM     32  N   UNL     1     -36.325  16.784  -1.268  0.00  0.00    -0.240 NA
BRANCH  32  35
ATOM     33  N   UNL     1     -37.700  15.753   0.410  0.00  0.00    -0.370 N 
ATOM     34  N   UNL     1     -35.465  15.319   0.309  0.00  0.00    -0.370 N 
ATOM     35  C   UNL     1     -36.517  16.008  -0.246  0.00  0.00    +0.189 C 
ATOM     36  H   UNL     1     -38.532  16.185   0.111  0.00  0.00    +0.159 HD
ATOM     37  H   UNL     1     -37.713  15.138   1.179  0.00  0.00    +0.159 HD
ATOM     38  H   UNL     1     -34.560  15.414  -0.068  0.00  0.00    +0.159 HD
ATOM     39  H   UNL     1     -35.616  14.731   1.085  0.00  0.00    +0.159 HD
ENDBRANCH  32  35
ENDBRANCH  31  32
ENDBRANCH  30  31
ENDBRANCH  29  30
ENDBRANCH  24  29
ENDBRANCH  21  24
ENDBRANCH   1  21
TORSDOF 14
ENDMDL
MODEL 8
REMARK VINA RESULT:      -6.1      2.744      4.647
REMARK  Name = 196430
REMARK  14 active torsions:
REMARK  status: ('A' for Active; 'I' for Inactive)
REMARK    1  A    between atoms: C_1  and  C_6
REMARK    2  A    between atoms: C_1  and  N_21
REMARK    3  A    between atoms: C_7  and  C_9
REMARK    4  A    between atoms: C_9  and  N_10
REMARK    5  A    between atoms: C_9  and  C_14
REMARK    6  A    between atoms: C_14  and  C_15
REMARK    7  A    between atoms: N_21  and  C_24
REMARK    8  A    between atoms: C_24  and  C_26
REMARK    9  A    between atoms: C_24  and  C_29
REMARK   10  A    between atoms: C_26  and  C_28
REMARK   11  A    between atoms: C_29  and  C_30
REMARK   12  A    between atoms: C_30  and  C_31
REMARK   13  A    between atoms: C_31  and  N_32
REMARK   14  A    between atoms: N_32  and  C_35
REMARK                            x       y       z     vdW  Elec       q    Type
REMARK                         _______ _______ _______ _____ _____    ______ ____
ROOT
ATOM      1  C   UNL     1     -37.877  25.374   3.344  0.00  0.00    +0.018 C 
ATOM      2  C   UNL     1     -36.838  25.566   2.246  0.00  0.00    -0.014 C 
ENDROOT
BRANCH   1   6
ATOM      3  O   UNL     1     -40.009  24.218   3.234  0.00  0.00    -0.277 OA
ATOM      4  O   UNL     1     -39.878  21.680   2.062  0.00  0.00    -0.277 OA
ATOM      5  N   UNL     1     -38.107  23.156   2.405  0.00  0.00    -0.259 N 
ATOM      6  C   UNL     1     -38.800  24.209   3.009  0.00  0.00    +0.208 C 
ATOM      7  C   UNL     1     -38.686  21.961   1.971  0.00  0.00    +0.208 C 
ATOM      8  H   UNL     1     -37.137  23.264   2.277  0.00  0.00    +0.157 HD
BRANCH   7   9
ATOM      9  C   UNL     1     -37.650  20.999   1.388  0.00  0.00    +0.018 C 
BRANCH   9  10
ATOM     10  N   UNL     1     -38.367  20.094   0.486  0.00  0.00    +0.388 N 
ATOM     11  H   UNL     1     -39.346  20.042   0.766  0.00  0.00    -0.089 HD
ATOM     12  H   UNL     1     -37.949  19.165   0.535  0.00  0.00    -0.089 HD
ATOM     13  H   UNL     1     -38.304  20.446  -0.468  0.00  0.00    -0.089 HD
ENDBRANCH   9  10
BRANCH   9  14
ATOM     14  C   UNL     1     -36.555  21.763   0.626  0.00  0.00    +0.013 C 
BRANCH  14  15
ATOM     15  C   UNL     1     -35.215  21.067   0.663  0.00  0.00    -0.024 C 
ATOM     16  C   UNL     1     -35.054  19.901   1.413  0.00  0.00    -0.004 C 
ATOM     17  C   UNL     1     -34.138  21.589  -0.053  0.00  0.00    -0.004 C 
ATOM     18  C   UNL     1     -33.817  19.259   1.446  0.00  0.00    -0.000 C 
ATOM     19  C   UNL     1     -32.900  20.947  -0.019  0.00  0.00    -0.000 C 
ATOM     20  C   UNL     1     -32.739  19.781   0.730  0.00  0.00    -0.000 C 
ENDBRANCH  14  15
ENDBRANCH   9  14
ENDBRANCH   7   9
ENDBRANCH   1   6
BRANCH   1  21
ATOM     21  N   UNL     1     -37.237  25.095   4.627  0.00  0.00    +0.397 N 
ATOM     22  H   UNL     1     -37.414  25.870   5.266  0.00  0.00    -0.083 HD
ATOM     23  H   UNL     1     -37.623  24.229   5.004  0.00  0.00    -0.083 HD
BRANCH  21  24
ATOM     24  C   UNL     1     -35.800  24.932   4.462  0.00  0.00    -0.000 C 
BRANCH  24  26
ATOM     25  O   UNL     1     -35.271  22.735   3.628  0.00  0.00    -0.297 OA
ATOM     26  C   UNL     1     -35.531  23.436   4.607  0.00  0.00    +0.147 C 
BRANCH  26  28
ATOM     27 CL   UNL     1     -34.581  21.487   6.225  0.00  0.00    -0.105 Cl
ATOM     28  C   UNL     1     -35.652  22.878   6.009  0.00  0.00    +0.157 C 
ENDBRANCH  26  28
ENDBRANCH  24  26
BRANCH  24  29
ATOM     29  C   UNL     1     -35.039  25.774   5.495  0.00  0.00    -0.012 C 
BRANCH  29  30
ATOM     30  C   UNL     1     -33.544  25.878   5.164  0.00  0.00    +0.025 C 
BRANCH  30  31
ATOM     31  C   UNL     1     -33.085  27.321   4.985  0.00  0.00    +0.129 C 
BRANCH  31  32
ATOM     32  N   UNL     1     -32.109  27.667   6.020  0.00  0.00    -0.240 NA
BRANCH  32  35
ATOM     33  N   UNL     1     -32.379  30.009   5.557  0.00  0.00    -0.370 N 
ATOM     34  N   UNL     1     -31.419  29.310   7.501  0.00  0.00    -0.370 N 
ATOM     35  C   UNL     1     -31.991  28.926   6.312  0.00  0.00    +0.189 C 
ATOM     36  H   UNL     1     -32.804  29.871   4.679  0.00  0.00    +0.159 HD
ATOM     37  H   UNL     1     -32.233  30.922   5.894  0.00  0.00    +0.159 HD
ATOM     38  H   UNL     1     -31.097  28.630   8.137  0.00  0.00    +0.159 HD
ATOM     39  H   UNL     1     -31.331  30.267   7.719  0.00  0.00    +0.159 HD
ENDBRANCH  32  35
ENDBRANCH  31  32
ENDBRANCH  30  31
ENDBRANCH  29  30
ENDBRANCH  24  29
ENDBRANCH  21  24
ENDBRANCH   1  21
TORSDOF 14
ENDMDL
MODEL 9
REMARK VINA RESULT:      -5.9      2.750      3.974
REMARK  Name = 196430
REMARK  14 active torsions:
REMARK  status: ('A' for Active; 'I' for Inactive)
REMARK    1  A    between atoms: C_1  and  C_6
REMARK    2  A    between atoms: C_1  and  N_21
REMARK    3  A    between atoms: C_7  and  C_9
REMARK    4  A    between atoms: C_9  and  N_10
REMARK    5  A    between atoms: C_9  and  C_14
REMARK    6  A    between atoms: C_14  and  C_15
REMARK    7  A    between atoms: N_21  and  C_24
REMARK    8  A    between atoms: C_24  and  C_26
REMARK    9  A    between atoms: C_24  and  C_29
REMARK   10  A    between atoms: C_26  and  C_28
REMARK   11  A    between atoms: C_29  and  C_30
REMARK   12  A    between atoms: C_30  and  C_31
REMARK   13  A    between atoms: C_31  and  N_32
REMARK   14  A    between atoms: N_32  and  C_35
REMARK                            x       y       z     vdW  Elec       q    Type
REMARK                         _______ _______ _______ _____ _____    ______ ____
ROOT
ATOM      1  C   UNL     1     -36.017  24.940   4.501  0.00  0.00    +0.018 C 
ATOM      2  C   UNL     1     -35.461  25.942   5.505  0.00  0.00    -0.014 C 
ENDROOT
BRANCH   1   6
ATOM      3  O   UNL     1     -35.106  23.222   5.953  0.00  0.00    -0.277 OA
ATOM      4  O   UNL     1     -35.040  20.669   4.809  0.00  0.00    -0.277 OA
ATOM      5  N   UNL     1     -35.805  22.631   3.810  0.00  0.00    -0.259 N 
ATOM      6  C   UNL     1     -35.581  23.525   4.860  0.00  0.00    +0.208 C 
ATOM      7  C   UNL     1     -35.522  21.263   3.848  0.00  0.00    +0.208 C 
ATOM      8  H   UNL     1     -36.191  22.992   2.979  0.00  0.00    +0.157 HD
BRANCH   7   9
ATOM      9  C   UNL     1     -35.849  20.572   2.525  0.00  0.00    +0.018 C 
BRANCH   9  10
ATOM     10  N   UNL     1     -37.282  20.759   2.287  0.00  0.00    +0.388 N 
ATOM     11  H   UNL     1     -37.428  21.084   1.332  0.00  0.00    -0.089 HD
ATOM     12  H   UNL     1     -37.648  21.450   2.942  0.00  0.00    -0.089 HD
ATOM     13  H   UNL     1     -37.767  19.872   2.423  0.00  0.00    -0.089 HD
ENDBRANCH   9  10
BRANCH   9  14
ATOM     14  C   UNL     1     -35.029  21.172   1.371  0.00  0.00    +0.013 C 
BRANCH  14  15
ATOM     15  C   UNL     1     -33.796  20.364   1.040  0.00  0.00    -0.024 C 
ATOM     16  C   UNL     1     -32.810  20.902   0.213  0.00  0.00    -0.004 C 
ATOM     17  C   UNL     1     -33.644  19.079   1.560  0.00  0.00    -0.004 C 
ATOM     18  C   UNL     1     -31.672  20.156  -0.093  0.00  0.00    -0.000 C 
ATOM     19  C   UNL     1     -32.507  18.332   1.254  0.00  0.00    -0.000 C 
ATOM     20  C   UNL     1     -31.519  18.871   0.428  0.00  0.00    -0.000 C 
ENDBRANCH  14  15
ENDBRANCH   9  14
ENDBRANCH   7   9
ENDBRANCH   1   6
BRANCH   1  21
ATOM     21  N   UNL     1     -37.478  24.975   4.480  0.00  0.00    +0.397 N 
ATOM     22  H   UNL     1     -37.838  24.034   4.639  0.00  0.00    -0.083 HD
ATOM     23  H   UNL     1     -37.801  25.607   5.213  0.00  0.00    -0.083 HD
BRANCH  21  24
ATOM     24  C   UNL     1     -37.965  25.461   3.198  0.00  0.00    -0.000 C 
BRANCH  24  26
ATOM     25  O   UNL     1     -38.673  23.170   2.970  0.00  0.00    -0.297 OA
ATOM     26  C   UNL     1     -38.838  24.343   2.633  0.00  0.00    +0.147 C 
BRANCH  26  28
ATOM     27 CL   UNL     1     -41.132  25.753   2.367  0.00  0.00    -0.105 Cl
ATOM     28  C   UNL     1     -39.871  24.768   1.611  0.00  0.00    +0.157 C 
ENDBRANCH  26  28
ENDBRANCH  24  26
BRANCH  24  29
ATOM     29  C   UNL     1     -36.793  25.821   2.276  0.00  0.00    -0.012 C 
BRANCH  29  30
ATOM     30  C   UNL     1     -36.823  27.295   1.853  0.00  0.00    +0.025 C 
BRANCH  30  31
ATOM     31  C   UNL     1     -37.239  27.476   0.396  0.00  0.00    +0.129 C 
BRANCH  31  32
ATOM     32  N   UNL     1     -38.110  28.645   0.267  0.00  0.00    -0.240 NA
BRANCH  32  35
ATOM     33  N   UNL     1     -40.204  29.406  -0.631  0.00  0.00    -0.370 N 
ATOM     34  N   UNL     1     -39.522  27.253  -0.932  0.00  0.00    -0.370 N 
ATOM     35  C   UNL     1     -39.219  28.477  -0.386  0.00  0.00    +0.189 C 
ATOM     36  H   UNL     1     -40.109  30.326  -0.292  0.00  0.00    +0.159 HD
ATOM     37  H   UNL     1     -41.004  29.152  -1.145  0.00  0.00    +0.159 HD
ATOM     38  H   UNL     1     -38.898  26.498  -0.829  0.00  0.00    +0.159 HD
ATOM     39  H   UNL     1     -40.365  27.130  -1.428  0.00  0.00    +0.159 HD
ENDBRANCH  32  35
ENDBRANCH  31  32
ENDBRANCH  30  31
ENDBRANCH  29  30
ENDBRANCH  24  29
ENDBRANCH  21  24
ENDBRANCH   1  21
TORSDOF 14
ENDMDL
