MODEL 1
REMARK VINA RESULT:      -5.9      0.000      0.000
REMARK  Name = 514806
REMARK  4 active torsions:
REMARK  status: ('A' for Active; 'I' for Inactive)
REMARK    1  A    between atoms: N_2  and  C_15
REMARK    2  A    between atoms: C_14  and  O_18
REMARK    3  A    between atoms: C_17  and  C_20
REMARK    4  A    between atoms: C_20  and  O_21
REMARK                            x       y       z     vdW  Elec       q    Type
REMARK                         _______ _______ _______ _____ _____    ______ ____
ROOT
ATOM      1  O   UNL     1     -35.583  26.947   2.419  0.00  0.00    -0.193 OA
ATOM      2  N   UNL     1     -35.087  25.959   4.441  0.00  0.00    -0.178 N 
ATOM      3  N   UNL     1     -33.986  27.938   3.688  0.00  0.00    -0.306 NA
ATOM      4  N   UNL     1     -32.353  28.978   4.950  0.00  0.00    -0.332 N 
ATOM      5  C   UNL     1     -34.339  25.976   5.595  0.00  0.00    +0.079 C 
ATOM      6  C   UNL     1     -34.922  26.947   3.459  0.00  0.00    +0.275 C 
ATOM      7  C   UNL     1     -33.426  26.918   5.846  0.00  0.00    +0.038 C 
ATOM      8  C   UNL     1     -33.269  27.962   4.783  0.00  0.00    +0.189 C 
ATOM      9  C   UNL     1     -32.598  26.965   7.087  0.00  0.00    +0.037 C 
ATOM     10  H   UNL     1     -32.248  29.665   4.252  0.00  0.00    +0.145 HD
ATOM     11  H   UNL     1     -31.803  29.016   5.765  0.00  0.00    +0.145 HD
ENDROOT
BRANCH   2  15
ATOM     12  F   UNL     1     -34.299  23.743   3.191  0.00  0.00    -0.230 F 
ATOM     13  O   UNL     1     -36.165  24.172   5.505  0.00  0.00    -0.332 OA
ATOM     14  C   UNL     1     -36.273  22.619   3.705  0.00  0.00    +0.177 C 
ATOM     15  C   UNL     1     -36.038  24.901   4.277  0.00  0.00    +0.242 C 
ATOM     16  C   UNL     1     -35.649  23.899   3.206  0.00  0.00    +0.237 C 
ATOM     17  C   UNL     1     -36.199  22.761   5.221  0.00  0.00    +0.176 C 
BRANCH  14  18
ATOM     18  O   UNL     1     -37.630  22.548   3.281  0.00  0.00    -0.379 OA
ATOM     19  H   UNL     1     -38.048  21.759   3.661  0.00  0.00    +0.211 HD
ENDBRANCH  14  18
BRANCH  17  20
ATOM     20  C   UNL     1     -34.944  22.137   5.818  0.00  0.00    +0.169 C 
BRANCH  20  21
ATOM     21  O   UNL     1     -35.085  20.728   5.798  0.00  0.00    -0.379 OA
ATOM     22  H   UNL     1     -36.023  20.495   5.873  0.00  0.00    +0.211 HD
ENDBRANCH  20  21
ENDBRANCH  17  20
ENDBRANCH   2  15
TORSDOF 4
ENDMDL
MODEL 2
REMARK VINA RESULT:      -5.6      3.248      6.196
REMARK  Name = 514806
REMARK  4 active torsions:
REMARK  status: ('A' for Active; 'I' for Inactive)
REMARK    1  A    between atoms: N_2  and  C_15
REMARK    2  A    between atoms: C_14  and  O_18
REMARK    3  A    between atoms: C_17  and  C_20
REMARK    4  A    between atoms: C_20  and  O_21
REMARK                            x       y       z     vdW  Elec       q    Type
REMARK                         _______ _______ _______ _____ _____    ______ ____
ROOT
ATOM      1  O   UNL     1     -35.099  21.541   5.024  0.00  0.00    -0.193 OA
ATOM      2  N   UNL     1     -36.285  22.552   3.327  0.00  0.00    -0.178 N 
ATOM      3  N   UNL     1     -35.302  20.391   3.080  0.00  0.00    -0.306 NA
ATOM      4  N   UNL     1     -35.486  19.187   1.116  0.00  0.00    -0.332 N 
ATOM      5  C   UNL     1     -36.766  22.486   2.041  0.00  0.00    +0.079 C 
ATOM      6  C   UNL     1     -35.538  21.497   3.874  0.00  0.00    +0.275 C 
ATOM      7  C   UNL     1     -36.555  21.431   1.248  0.00  0.00    +0.038 C 
ATOM      8  C   UNL     1     -35.755  20.318   1.854  0.00  0.00    +0.189 C 
ATOM      9  C   UNL     1     -37.062  21.328  -0.153  0.00  0.00    +0.037 C 
ATOM     10  H   UNL     1     -34.961  18.455   1.513  0.00  0.00    +0.145 HD
ATOM     11  H   UNL     1     -35.817  19.111   0.193  0.00  0.00    +0.145 HD
ENDROOT
BRANCH   2  15
ATOM     12  F   UNL     1     -35.004  24.799   2.693  0.00  0.00    -0.230 F 
ATOM     13  O   UNL     1     -37.810  24.301   3.643  0.00  0.00    -0.332 OA
ATOM     14  C   UNL     1     -36.307  26.080   4.139  0.00  0.00    +0.177 C 
ATOM     15  C   UNL     1     -36.572  23.730   4.088  0.00  0.00    +0.242 C 
ATOM     16  C   UNL     1     -35.514  24.809   3.953  0.00  0.00    +0.237 C 
ATOM     17  C   UNL     1     -37.669  25.731   3.548  0.00  0.00    +0.176 C 
BRANCH  14  18
ATOM     18  O   UNL     1     -36.431  26.372   5.527  0.00  0.00    -0.379 OA
ATOM     19  H   UNL     1     -36.713  25.574   6.002  0.00  0.00    +0.211 HD
ENDBRANCH  14  18
BRANCH  17  20
ATOM     20  C   UNL     1     -37.796  26.112   2.078  0.00  0.00    +0.169 C 
BRANCH  20  21
ATOM     21  O   UNL     1     -37.378  27.457   1.921  0.00  0.00    -0.379 OA
ATOM     22  H   UNL     1     -37.706  27.987   2.663  0.00  0.00    +0.211 HD
ENDBRANCH  20  21
ENDBRANCH  17  20
ENDBRANCH   2  15
TORSDOF 4
ENDMDL
MODEL 3
REMARK VINA RESULT:      -5.5      1.868      3.216
REMARK  Name = 514806
REMARK  4 active torsions:
REMARK  status: ('A' for Active; 'I' for Inactive)
REMARK    1  A    between atoms: N_2  and  C_15
REMARK    2  A    between atoms: C_14  and  O_18
REMARK    3  A    between atoms: C_17  and  C_20
REMARK    4  A    between atoms: C_20  and  O_21
REMARK                            x       y       z     vdW  Elec       q    Type
REMARK                         _______ _______ _______ _____ _____    ______ ____
ROOT
ATOM      1  O   UNL     1     -32.991  26.453   5.506  0.00  0.00    -0.193 OA
ATOM      2  N   UNL     1     -34.505  25.659   3.962  0.00  0.00    -0.178 N 
ATOM      3  N   UNL     1     -33.907  27.966   4.087  0.00  0.00    -0.306 NA
ATOM      4  N   UNL     1     -34.818  29.539   2.660  0.00  0.00    -0.332 N 
ATOM      5  C   UNL     1     -35.359  25.931   2.918  0.00  0.00    +0.079 C 
ATOM      6  C   UNL     1     -33.759  26.680   4.569  0.00  0.00    +0.275 C 
ATOM      7  C   UNL     1     -35.525  27.163   2.429  0.00  0.00    +0.038 C 
ATOM      8  C   UNL     1     -34.717  28.236   3.094  0.00  0.00    +0.189 C 
ATOM      9  C   UNL     1     -36.443  27.492   1.298  0.00  0.00    +0.037 C 
ATOM     10  H   UNL     1     -34.288  30.245   3.096  0.00  0.00    +0.145 HD
ATOM     11  H   UNL     1     -35.421  29.764   1.915  0.00  0.00    +0.145 HD
ENDROOT
BRANCH   2  15
ATOM     12  F   UNL     1     -36.455  24.690   5.496  0.00  0.00    -0.230 F 
ATOM     13  O   UNL     1     -34.790  23.418   3.344  0.00  0.00    -0.332 OA
ATOM     14  C   UNL     1     -35.610  22.521   5.391  0.00  0.00    +0.177 C 
ATOM     15  C   UNL     1     -34.404  24.301   4.405  0.00  0.00    +0.242 C 
ATOM     16  C   UNL     1     -35.298  23.984   5.590  0.00  0.00    +0.237 C 
ATOM     17  C   UNL     1     -35.625  22.370   3.873  0.00  0.00    +0.176 C 
BRANCH  14  18
ATOM     18  O   UNL     1     -34.574  21.725   5.956  0.00  0.00    -0.379 OA
ATOM     19  H   UNL     1     -33.989  22.286   6.490  0.00  0.00    +0.211 HD
ENDBRANCH  14  18
BRANCH  17  20
ATOM     20  C   UNL     1     -37.014  22.536   3.271  0.00  0.00    +0.169 C 
BRANCH  20  21
ATOM     21  O   UNL     1     -37.333  21.366   2.538  0.00  0.00    -0.379 OA
ATOM     22  H   UNL     1     -36.837  21.361   1.705  0.00  0.00    +0.211 HD
ENDBRANCH  20  21
ENDBRANCH  17  20
ENDBRANCH   2  15
TORSDOF 4
ENDMDL
MODEL 4
REMARK VINA RESULT:      -5.3      3.174      4.528
REMARK  Name = 514806
REMARK  4 active torsions:
REMARK  status: ('A' for Active; 'I' for Inactive)
REMARK    1  A    between atoms: N_2  and  C_15
REMARK    2  A    between atoms: C_14  and  O_18
REMARK    3  A    between atoms: C_17  and  C_20
REMARK    4  A    between atoms: C_20  and  O_21
REMARK                            x       y       z     vdW  Elec       q    Type
REMARK                         _______ _______ _______ _____ _____    ______ ____
ROOT
ATOM      1  O   UNL     1     -39.309  23.428   2.397  0.00  0.00    -0.193 OA
ATOM      2  N   UNL     1     -37.232  22.591   2.937  0.00  0.00    -0.178 N 
ATOM      3  N   UNL     1     -37.981  24.725   3.699  0.00  0.00    -0.306 NA
ATOM      4  N   UNL     1     -36.658  26.077   5.027  0.00  0.00    -0.332 N 
ATOM      5  C   UNL     1     -36.036  22.771   3.593  0.00  0.00    +0.079 C 
ATOM      6  C   UNL     1     -38.233  23.573   2.979  0.00  0.00    +0.275 C 
ATOM      7  C   UNL     1     -35.762  23.872   4.297  0.00  0.00    +0.038 C 
ATOM      8  C   UNL     1     -36.846  24.906   4.326  0.00  0.00    +0.189 C 
ATOM      9  C   UNL     1     -34.474  24.099   5.019  0.00  0.00    +0.037 C 
ATOM     10  H   UNL     1     -37.370  26.757   5.047  0.00  0.00    +0.145 HD
ATOM     11  H   UNL     1     -35.813  26.234   5.506  0.00  0.00    +0.145 HD
ENDROOT
BRANCH   2  15
ATOM     12  F   UNL     1     -36.251  22.431   0.466  0.00  0.00    -0.230 F 
ATOM     13  O   UNL     1     -36.471  20.393   2.662  0.00  0.00    -0.332 OA
ATOM     14  C   UNL     1     -36.724  20.156   0.307  0.00  0.00    +0.177 C 
ATOM     15  C   UNL     1     -37.420  21.370   2.213  0.00  0.00    +0.242 C 
ATOM     16  C   UNL     1     -37.227  21.519   0.716  0.00  0.00    +0.237 C 
ATOM     17  C   UNL     1     -35.928  19.697   1.523  0.00  0.00    +0.176 C 
BRANCH  14  18
ATOM     18  O   UNL     1     -37.827  19.284   0.080  0.00  0.00    -0.379 OA
ATOM     19  H   UNL     1     -37.792  18.547   0.710  0.00  0.00    +0.211 HD
ENDBRANCH  14  18
BRANCH  17  20
ATOM     20  C   UNL     1     -34.447  20.041   1.432  0.00  0.00    +0.169 C 
BRANCH  20  21
ATOM     21  O   UNL     1     -33.692  18.880   1.731  0.00  0.00    -0.379 OA
ATOM     22  H   UNL     1     -34.223  18.091   1.538  0.00  0.00    +0.211 HD
ENDBRANCH  20  21
ENDBRANCH  17  20
ENDBRANCH   2  15
TORSDOF 4
ENDMDL
MODEL 5
REMARK VINA RESULT:      -5.3      2.953      5.276
REMARK  Name = 514806
REMARK  4 active torsions:
REMARK  status: ('A' for Active; 'I' for Inactive)
REMARK    1  A    between atoms: N_2  and  C_15
REMARK    2  A    between atoms: C_14  and  O_18
REMARK    3  A    between atoms: C_17  and  C_20
REMARK    4  A    between atoms: C_20  and  O_21
REMARK                            x       y       z     vdW  Elec       q    Type
REMARK                         _______ _______ _______ _____ _____    ______ ____
ROOT
ATOM      1  O   UNL     1     -36.191  25.650   5.816  0.00  0.00    -0.193 OA
ATOM      2  N   UNL     1     -36.247  24.577   3.778  0.00  0.00    -0.178 N 
ATOM      3  N   UNL     1     -35.696  23.437   5.801  0.00  0.00    -0.306 NA
ATOM      4  N   UNL     1     -35.186  21.183   5.827  0.00  0.00    -0.332 N 
ATOM      5  C   UNL     1     -36.087  23.409   3.069  0.00  0.00    +0.079 C 
ATOM      6  C   UNL     1     -36.052  24.612   5.166  0.00  0.00    +0.275 C 
ATOM      7  C   UNL     1     -35.743  22.257   3.652  0.00  0.00    +0.038 C 
ATOM      8  C   UNL     1     -35.541  22.320   5.136  0.00  0.00    +0.189 C 
ATOM      9  C   UNL     1     -35.561  20.973   2.913  0.00  0.00    +0.037 C 
ATOM     10  H   UNL     1     -35.053  21.223   6.802  0.00  0.00    +0.145 HD
ATOM     11  H   UNL     1     -35.064  20.332   5.348  0.00  0.00    +0.145 HD
ENDROOT
BRANCH   2  15
ATOM     12  F   UNL     1     -34.313  26.025   2.657  0.00  0.00    -0.230 F 
ATOM     13  O   UNL     1     -37.105  25.384   1.753  0.00  0.00    -0.332 OA
ATOM     14  C   UNL     1     -35.832  27.383   1.528  0.00  0.00    +0.177 C 
ATOM     15  C   UNL     1     -36.619  25.754   3.051  0.00  0.00    +0.242 C 
ATOM     16  C   UNL     1     -35.468  26.719   2.833  0.00  0.00    +0.237 C 
ATOM     17  C   UNL     1     -36.563  26.283   0.767  0.00  0.00    +0.176 C 
BRANCH  14  18
ATOM     18  O   UNL     1     -36.708  28.479   1.774  0.00  0.00    -0.379 OA
ATOM     19  H   UNL     1     -36.371  29.004   2.517  0.00  0.00    +0.211 HD
ENDBRANCH  14  18
BRANCH  17  20
ATOM     20  C   UNL     1     -35.644  25.475  -0.141  0.00  0.00    +0.169 C 
BRANCH  20  21
ATOM     21  O   UNL     1     -36.237  24.211  -0.377  0.00  0.00    -0.379 OA
ATOM     22  H   UNL     1     -36.477  23.802   0.469  0.00  0.00    +0.211 HD
ENDBRANCH  20  21
ENDBRANCH  17  20
ENDBRANCH   2  15
TORSDOF 4
ENDMDL
MODEL 6
REMARK VINA RESULT:      -5.3      2.914      5.833
REMARK  Name = 514806
REMARK  4 active torsions:
REMARK  status: ('A' for Active; 'I' for Inactive)
REMARK    1  A    between atoms: N_2  and  C_15
REMARK    2  A    between atoms: C_14  and  O_18
REMARK    3  A    between atoms: C_17  and  C_20
REMARK    4  A    between atoms: C_20  and  O_21
REMARK                            x       y       z     vdW  Elec       q    Type
REMARK                         _______ _______ _______ _____ _____    ______ ____
ROOT
ATOM      1  O   UNL     1     -35.926  21.801   5.322  0.00  0.00    -0.193 OA
ATOM      2  N   UNL     1     -35.682  22.948   3.339  0.00  0.00    -0.178 N 
ATOM      3  N   UNL     1     -35.193  20.620   3.530  0.00  0.00    -0.306 NA
ATOM      4  N   UNL     1     -34.445  19.382   1.728  0.00  0.00    -0.332 N 
ATOM      5  C   UNL     1     -35.333  22.918   2.009  0.00  0.00    +0.079 C 
ATOM      6  C   UNL     1     -35.617  21.791   4.129  0.00  0.00    +0.275 C 
ATOM      7  C   UNL     1     -34.919  21.803   1.400  0.00  0.00    +0.038 C 
ATOM      8  C   UNL     1     -34.859  20.581   2.265  0.00  0.00    +0.189 C 
ATOM      9  C   UNL     1     -34.532  21.736  -0.040  0.00  0.00    +0.037 C 
ATOM     10  H   UNL     1     -34.405  18.577   2.295  0.00  0.00    +0.145 HD
ATOM     11  H   UNL     1     -34.189  19.329   0.779  0.00  0.00    +0.145 HD
ENDROOT
BRANCH   2  15
ATOM     12  F   UNL     1     -33.860  24.505   4.502  0.00  0.00    -0.230 F 
ATOM     13  O   UNL     1     -36.272  25.158   2.835  0.00  0.00    -0.332 OA
ATOM     14  C   UNL     1     -35.356  26.276   4.726  0.00  0.00    +0.177 C 
ATOM     15  C   UNL     1     -36.113  24.199   3.888  0.00  0.00    +0.242 C 
ATOM     16  C   UNL     1     -35.133  24.792   4.883  0.00  0.00    +0.237 C 
ATOM     17  C   UNL     1     -35.721  26.422   3.253  0.00  0.00    +0.176 C 
BRANCH  14  18
ATOM     18  O   UNL     1     -36.443  26.689   5.548  0.00  0.00    -0.379 OA
ATOM     19  H   UNL     1     -36.189  27.480   6.048  0.00  0.00    +0.211 HD
ENDBRANCH  14  18
BRANCH  17  20
ATOM     20  C   UNL     1     -34.519  26.720   2.367  0.00  0.00    +0.169 C 
BRANCH  20  21
ATOM     21  O   UNL     1     -33.624  27.553   3.082  0.00  0.00    -0.379 OA
ATOM     22  H   UNL     1     -32.979  27.937   2.468  0.00  0.00    +0.211 HD
ENDBRANCH  20  21
ENDBRANCH  17  20
ENDBRANCH   2  15
TORSDOF 4
ENDMDL
MODEL 7
REMARK VINA RESULT:      -5.2      3.378      5.869
REMARK  Name = 514806
REMARK  4 active torsions:
REMARK  status: ('A' for Active; 'I' for Inactive)
REMARK    1  A    between atoms: N_2  and  C_15
REMARK    2  A    between atoms: C_14  and  O_18
REMARK    3  A    between atoms: C_17  and  C_20
REMARK    4  A    between atoms: C_20  and  O_21
REMARK                            x       y       z     vdW  Elec       q    Type
REMARK                         _______ _______ _______ _____ _____    ______ ____
ROOT
ATOM      1  O   UNL     1     -39.210  23.061   2.613  0.00  0.00    -0.193 OA
ATOM      2  N   UNL     1     -36.916  23.034   2.822  0.00  0.00    -0.178 N 
ATOM      3  N   UNL     1     -38.130  21.203   1.890  0.00  0.00    -0.306 NA
ATOM      4  N   UNL     1     -37.067  19.292   1.143  0.00  0.00    -0.332 N 
ATOM      5  C   UNL     1     -35.735  22.354   2.635  0.00  0.00    +0.079 C 
ATOM      6  C   UNL     1     -38.143  22.466   2.451  0.00  0.00    +0.275 C 
ATOM      7  C   UNL     1     -35.688  21.132   2.096  0.00  0.00    +0.038 C 
ATOM      8  C   UNL     1     -37.012  20.547   1.708  0.00  0.00    +0.189 C 
ATOM      9  C   UNL     1     -34.424  20.367   1.880  0.00  0.00    +0.037 C 
ATOM     10  H   UNL     1     -37.936  18.906   0.887  0.00  0.00    +0.145 HD
ATOM     11  H   UNL     1     -36.239  18.781   0.996  0.00  0.00    +0.145 HD
ENDROOT
BRANCH   2  15
ATOM     12  F   UNL     1     -35.333  23.383   4.937  0.00  0.00    -0.230 F 
ATOM     13  O   UNL     1     -35.994  25.178   2.620  0.00  0.00    -0.332 OA
ATOM     14  C   UNL     1     -35.629  25.693   4.915  0.00  0.00    +0.177 C 
ATOM     15  C   UNL     1     -36.849  24.339   3.408  0.00  0.00    +0.242 C 
ATOM     16  C   UNL     1     -36.291  24.341   4.819  0.00  0.00    +0.237 C 
ATOM     17  C   UNL     1     -35.144  25.948   3.492  0.00  0.00    +0.176 C 
BRANCH  14  18
ATOM     18  O   UNL     1     -36.591  26.674   5.291  0.00  0.00    -0.379 OA
ATOM     19  H   UNL     1     -37.208  26.821   4.558  0.00  0.00    +0.211 HD
ENDBRANCH  14  18
BRANCH  17  20
ATOM     20  C   UNL     1     -33.709  25.493   3.261  0.00  0.00    +0.169 C 
BRANCH  20  21
ATOM     21  O   UNL     1     -32.899  25.999   4.307  0.00  0.00    -0.379 OA
ATOM     22  H   UNL     1     -33.118  25.543   5.135  0.00  0.00    +0.211 HD
ENDBRANCH  20  21
ENDBRANCH  17  20
ENDBRANCH   2  15
TORSDOF 4
ENDMDL
MODEL 8
REMARK VINA RESULT:      -5.2      3.735      6.569
REMARK  Name = 514806
REMARK  4 active torsions:
REMARK  status: ('A' for Active; 'I' for Inactive)
REMARK    1  A    between atoms: N_2  and  C_15
REMARK    2  A    between atoms: C_14  and  O_18
REMARK    3  A    between atoms: C_17  and  C_20
REMARK    4  A    between atoms: C_20  and  O_21
REMARK                            x       y       z     vdW  Elec       q    Type
REMARK                         _______ _______ _______ _____ _____    ______ ____
ROOT
ATOM      1  O   UNL     1     -34.663  20.245   2.243  0.00  0.00    -0.193 OA
ATOM      2  N   UNL     1     -36.425  21.702   2.523  0.00  0.00    -0.178 N 
ATOM      3  N   UNL     1     -36.543  19.834   1.042  0.00  0.00    -0.306 NA
ATOM      4  N   UNL     1     -38.439  19.381  -0.198  0.00  0.00    -0.332 N 
ATOM      5  C   UNL     1     -37.711  22.057   2.186  0.00  0.00    +0.079 C 
ATOM      6  C   UNL     1     -35.814  20.576   1.952  0.00  0.00    +0.275 C 
ATOM      7  C   UNL     1     -38.442  21.361   1.310  0.00  0.00    +0.038 C 
ATOM      8  C   UNL     1     -37.767  20.163   0.715  0.00  0.00    +0.189 C 
ATOM      9  C   UNL     1     -39.838  21.719   0.922  0.00  0.00    +0.037 C 
ATOM     10  H   UNL     1     -37.997  18.593  -0.590  0.00  0.00    +0.145 HD
ATOM     11  H   UNL     1     -39.360  19.609  -0.459  0.00  0.00    +0.145 HD
ENDROOT
BRANCH   2  15
ATOM     12  F   UNL     1     -35.421  24.024   1.689  0.00  0.00    -0.230 F 
ATOM     13  O   UNL     1     -36.686  23.216   4.292  0.00  0.00    -0.332 OA
ATOM     14  C   UNL     1     -34.866  24.686   3.853  0.00  0.00    +0.177 C 
ATOM     15  C   UNL     1     -35.735  22.520   3.474  0.00  0.00    +0.242 C 
ATOM     16  C   UNL     1     -34.847  23.572   2.836  0.00  0.00    +0.237 C 
ATOM     17  C   UNL     1     -36.260  24.581   4.462  0.00  0.00    +0.176 C 
BRANCH  14  18
ATOM     18  O   UNL     1     -33.874  24.449   4.846  0.00  0.00    -0.379 OA
ATOM     19  H   UNL     1     -33.549  23.538   4.769  0.00  0.00    +0.211 HD
ENDBRANCH  14  18
BRANCH  17  20
ATOM     20  C   UNL     1     -37.281  25.475   3.771  0.00  0.00    +0.169 C 
BRANCH  20  21
ATOM     21  O   UNL     1     -38.581  25.019   4.102  0.00  0.00    -0.379 OA
ATOM     22  H   UNL     1     -38.735  24.155   3.690  0.00  0.00    +0.211 HD
ENDBRANCH  20  21
ENDBRANCH  17  20
ENDBRANCH   2  15
TORSDOF 4
ENDMDL
MODEL 9
REMARK VINA RESULT:      -5.2      3.111      4.899
REMARK  Name = 514806
REMARK  4 active torsions:
REMARK  status: ('A' for Active; 'I' for Inactive)
REMARK    1  A    between atoms: N_2  and  C_15
REMARK    2  A    between atoms: C_14  and  O_18
REMARK    3  A    between atoms: C_17  and  C_20
REMARK    4  A    between atoms: C_20  and  O_21
REMARK                            x       y       z     vdW  Elec       q    Type
REMARK                         _______ _______ _______ _____ _____    ______ ____
ROOT
ATOM      1  O   UNL     1     -36.482  27.810   1.904  0.00  0.00    -0.193 OA
ATOM      2  N   UNL     1     -36.820  25.670   2.688  0.00  0.00    -0.178 N 
ATOM      3  N   UNL     1     -38.480  26.844   1.438  0.00  0.00    -0.306 NA
ATOM      4  N   UNL     1     -40.528  25.896   0.942  0.00  0.00    -0.332 N 
ATOM      5  C   UNL     1     -37.659  24.584   2.790  0.00  0.00    +0.079 C 
ATOM      6  C   UNL     1     -37.220  26.828   2.005  0.00  0.00    +0.275 C 
ATOM      7  C   UNL     1     -38.882  24.568   2.254  0.00  0.00    +0.038 C 
ATOM      8  C   UNL     1     -39.285  25.816   1.530  0.00  0.00    +0.189 C 
ATOM      9  C   UNL     1     -39.816  23.407   2.348  0.00  0.00    +0.037 C 
ATOM     10  H   UNL     1     -40.795  26.716   0.465  0.00  0.00    +0.145 HD
ATOM     11  H   UNL     1     -41.150  25.135   0.999  0.00  0.00    +0.145 HD
ENDROOT
BRANCH   2  15
ATOM     12  F   UNL     1     -36.628  26.173   5.296  0.00  0.00    -0.230 F 
ATOM     13  O   UNL     1     -35.205  24.200   3.534  0.00  0.00    -0.332 OA
ATOM     14  C   UNL     1     -34.407  25.475   5.379  0.00  0.00    +0.177 C 
ATOM     15  C   UNL     1     -35.529  25.577   3.300  0.00  0.00    +0.242 C 
ATOM     16  C   UNL     1     -35.443  26.285   4.639  0.00  0.00    +0.237 C 
ATOM     17  C   UNL     1     -34.617  24.064   4.842  0.00  0.00    +0.176 C 
BRANCH  14  18
ATOM     18  O   UNL     1     -33.103  25.941   5.046  0.00  0.00    -0.379 OA
ATOM     19  H   UNL     1     -32.510  25.813   5.802  0.00  0.00    +0.211 HD
ENDBRANCH  14  18
BRANCH  17  20
ATOM     20  C   UNL     1     -35.571  23.237   5.695  0.00  0.00    +0.169 C 
BRANCH  20  21
ATOM     21  O   UNL     1     -36.213  22.286   4.865  0.00  0.00    -0.379 OA
ATOM     22  H   UNL     1     -36.336  21.458   5.356  0.00  0.00    +0.211 HD
ENDBRANCH  20  21
ENDBRANCH  17  20
ENDBRANCH   2  15
TORSDOF 4
ENDMDL
