MODEL 1
REMARK VINA RESULT:      -6.4      0.000      0.000
REMARK  Name = 54692970
REMARK  4 active torsions:
REMARK  status: ('A' for Active; 'I' for Inactive)
REMARK    1  A    between atoms: C_9  and  O_18
REMARK    2  A    between atoms: C_11  and  O_20
REMARK    3  A    between atoms: C_14  and  C_23
REMARK    4  A    between atoms: C_23  and  O_24
REMARK                            x       y       z     vdW  Elec       q    Type
REMARK                         _______ _______ _______ _____ _____    ______ ____
ROOT
ATOM      1  O   UNL     1     -41.237  27.191   2.451  0.00  0.00    -0.457 OA
ATOM      2  O   UNL     1     -36.932  22.557   3.217  0.00  0.00    -0.411 OA
ATOM      3  O   UNL     1     -42.657  23.945   0.442  0.00  0.00    -0.286 OA
ATOM      4  O   UNL     1     -38.437  21.468   1.955  0.00  0.00    -0.244 OA
ATOM      5  C   UNL     1     -38.488  24.885   3.179  0.00  0.00    +0.049 A 
ATOM      6  C   UNL     1     -38.922  23.735   2.507  0.00  0.00    +0.113 A 
ATOM      7  C   UNL     1     -40.924  24.880   1.780  0.00  0.00    +0.107 C 
ATOM      8  C   UNL     1     -40.506  26.029   2.442  0.00  0.00    +0.151 C 
ATOM      9  C   UNL     1     -40.137  23.727   1.807  0.00  0.00    +0.146 C 
ATOM     10  C   UNL     1     -39.295  26.034   3.138  0.00  0.00    +0.041 C 
ATOM     11  C   UNL     1     -37.211  24.858   3.901  0.00  0.00    +0.175 A 
ATOM     12  C   UNL     1     -42.204  24.903   1.055  0.00  0.00    +0.204 C 
ATOM     13  C   UNL     1     -38.105  22.499   2.523  0.00  0.00    +0.349 A 
ATOM     14  C   UNL     1     -36.500  23.719   3.890  0.00  0.00    +0.257 A 
ATOM     15  C   UNL     1     -42.444  27.216   1.770  0.00  0.00    +0.126 C 
ATOM     16  C   UNL     1     -42.951  26.174   1.096  0.00  0.00    +0.075 C 
ATOM     17  C   UNL     1     -43.149  28.533   1.854  0.00  0.00    +0.073 C 
ENDROOT
BRANCH   9  18
ATOM     18  O   UNL     1     -40.558  22.606   1.154  0.00  0.00    -0.505 OA
ATOM     19  H   UNL     1     -41.097  22.682   0.391  0.00  0.00    +0.292 HD
ENDBRANCH   9  18
BRANCH  11  20
ATOM     20  O   UNL     1     -36.856  26.027   4.533  0.00  0.00    -0.503 OA
ATOM     21  H   UNL     1     -36.762  26.817   4.038  0.00  0.00    +0.292 HD
ENDBRANCH  11  20
BRANCH  14  23
ATOM     22  O   UNL     1     -34.413  24.494   4.703  0.00  0.00    -0.241 OA
ATOM     23  C   UNL     1     -35.212  23.581   4.579  0.00  0.00    +0.380 C 
BRANCH  23  24
ATOM     24  O   UNL     1     -35.095  22.306   5.025  0.00  0.00    -0.439 OA
ATOM     25  C   UNL     1     -35.477  22.099   6.389  0.00  0.00    +0.256 C 
ENDBRANCH  23  24
ENDBRANCH  14  23
TORSDOF 4
ENDMDL
MODEL 2
REMARK VINA RESULT:      -6.4      1.327      6.392
REMARK  Name = 54692970
REMARK  4 active torsions:
REMARK  status: ('A' for Active; 'I' for Inactive)
REMARK    1  A    between atoms: C_9  and  O_18
REMARK    2  A    between atoms: C_11  and  O_20
REMARK    3  A    between atoms: C_14  and  C_23
REMARK    4  A    between atoms: C_23  and  O_24
REMARK                            x       y       z     vdW  Elec       q    Type
REMARK                         _______ _______ _______ _____ _____    ______ ____
ROOT
ATOM      1  O   UNL     1     -36.074  25.796   4.608  0.00  0.00    -0.457 OA
ATOM      2  O   UNL     1     -40.908  23.348   1.257  0.00  0.00    -0.411 OA
ATOM      3  O   UNL     1     -35.245  21.841   4.098  0.00  0.00    -0.286 OA
ATOM      4  O   UNL     1     -39.652  21.503   1.510  0.00  0.00    -0.244 OA
ATOM      5  C   UNL     1     -39.057  24.883   2.691  0.00  0.00    +0.049 A 
ATOM      6  C   UNL     1     -38.828  23.517   2.481  0.00  0.00    +0.113 A 
ATOM      7  C   UNL     1     -36.742  23.648   3.697  0.00  0.00    +0.107 C 
ATOM      8  C   UNL     1     -36.955  25.006   3.913  0.00  0.00    +0.151 C 
ATOM      9  C   UNL     1     -37.675  22.896   2.981  0.00  0.00    +0.146 C 
ATOM     10  C   UNL     1     -38.105  25.622   3.414  0.00  0.00    +0.041 C 
ATOM     11  C   UNL     1     -40.275  25.500   2.154  0.00  0.00    +0.175 A 
ATOM     12  C   UNL     1     -35.522  23.026   4.234  0.00  0.00    +0.204 C 
ATOM     13  C   UNL     1     -39.803  22.698   1.723  0.00  0.00    +0.349 A 
ATOM     14  C   UNL     1     -41.132  24.723   1.473  0.00  0.00    +0.257 A 
ATOM     15  C   UNL     1     -34.923  25.214   5.115  0.00  0.00    +0.126 C 
ATOM     16  C   UNL     1     -34.608  23.918   4.972  0.00  0.00    +0.075 C 
ATOM     17  C   UNL     1     -34.042  26.174   5.850  0.00  0.00    +0.073 C 
ENDROOT
BRANCH   9  18
ATOM     18  O   UNL     1     -37.454  21.565   2.775  0.00  0.00    -0.505 OA
ATOM     19  H   UNL     1     -36.975  21.066   3.407  0.00  0.00    +0.292 HD
ENDBRANCH   9  18
BRANCH  11  20
ATOM     20  O   UNL     1     -40.425  26.844   2.404  0.00  0.00    -0.503 OA
ATOM     21  H   UNL     1     -39.700  27.344   2.726  0.00  0.00    +0.292 HD
ENDBRANCH  11  20
BRANCH  14  23
ATOM     22  O   UNL     1     -42.558  26.408   0.609  0.00  0.00    -0.241 OA
ATOM     23  C   UNL     1     -42.379  25.236   0.894  0.00  0.00    +0.380 C 
BRANCH  23  24
ATOM     24  O   UNL     1     -43.243  24.201   0.745  0.00  0.00    -0.439 OA
ATOM     25  C   UNL     1     -44.627  24.534   0.900  0.00  0.00    +0.256 C 
ENDBRANCH  23  24
ENDBRANCH  14  23
TORSDOF 4
ENDMDL
MODEL 3
REMARK VINA RESULT:      -6.3      1.693      3.385
REMARK  Name = 54692970
REMARK  4 active torsions:
REMARK  status: ('A' for Active; 'I' for Inactive)
REMARK    1  A    between atoms: C_9  and  O_18
REMARK    2  A    between atoms: C_11  and  O_20
REMARK    3  A    between atoms: C_14  and  C_23
REMARK    4  A    between atoms: C_23  and  O_24
REMARK                            x       y       z     vdW  Elec       q    Type
REMARK                         _______ _______ _______ _____ _____    ______ ____
ROOT
ATOM      1  O   UNL     1     -41.917  23.802   0.754  0.00  0.00    -0.457 OA
ATOM      2  O   UNL     1     -36.267  23.378   3.669  0.00  0.00    -0.411 OA
ATOM      3  O   UNL     1     -41.359  27.325   2.719  0.00  0.00    -0.286 OA
ATOM      4  O   UNL     1     -36.867  25.446   4.308  0.00  0.00    -0.244 OA
ATOM      5  C   UNL     1     -38.641  23.068   2.217  0.00  0.00    +0.049 A 
ATOM      6  C   UNL     1     -38.390  24.258   2.914  0.00  0.00    +0.113 A 
ATOM      7  C   UNL     1     -40.505  25.170   2.176  0.00  0.00    +0.107 C 
ATOM      8  C   UNL     1     -40.768  23.996   1.480  0.00  0.00    +0.151 C 
ATOM      9  C   UNL     1     -39.317  25.310   2.897  0.00  0.00    +0.146 C 
ATOM     10  C   UNL     1     -39.843  22.949   1.498  0.00  0.00    +0.041 C 
ATOM     11  C   UNL     1     -37.649  21.988   2.257  0.00  0.00    +0.175 A 
ATOM     12  C   UNL     1     -41.497  26.256   2.139  0.00  0.00    +0.204 C 
ATOM     13  C   UNL     1     -37.136  24.430   3.684  0.00  0.00    +0.349 A 
ATOM     14  C   UNL     1     -36.527  22.184   2.966  0.00  0.00    +0.257 A 
ATOM     15  C   UNL     1     -42.853  24.823   0.715  0.00  0.00    +0.126 C 
ATOM     16  C   UNL     1     -42.713  25.998   1.345  0.00  0.00    +0.075 C 
ATOM     17  C   UNL     1     -44.059  24.496  -0.107  0.00  0.00    +0.073 C 
ENDROOT
BRANCH   9  18
ATOM     18  O   UNL     1     -39.071  26.467   3.576  0.00  0.00    -0.505 OA
ATOM     19  H   UNL     1     -38.441  26.479   4.270  0.00  0.00    +0.292 HD
ENDBRANCH   9  18
BRANCH  11  20
ATOM     20  O   UNL     1     -37.971  20.854   1.548  0.00  0.00    -0.503 OA
ATOM     21  H   UNL     1     -38.196  20.917   0.640  0.00  0.00    +0.292 HD
ENDBRANCH  11  20
BRANCH  14  23
ATOM     22  O   UNL     1     -35.179  20.608   4.116  0.00  0.00    -0.241 OA
ATOM     23  C   UNL     1     -35.470  21.171   3.074  0.00  0.00    +0.380 C 
BRANCH  23  24
ATOM     24  O   UNL     1     -34.913  20.997   1.849  0.00  0.00    -0.439 OA
ATOM     25  C   UNL     1     -34.378  19.692   1.602  0.00  0.00    +0.256 C 
ENDBRANCH  23  24
ENDBRANCH  14  23
TORSDOF 4
ENDMDL
MODEL 4
REMARK VINA RESULT:      -6.2      1.693      6.868
REMARK  Name = 54692970
REMARK  4 active torsions:
REMARK  status: ('A' for Active; 'I' for Inactive)
REMARK    1  A    between atoms: C_9  and  O_18
REMARK    2  A    between atoms: C_11  and  O_20
REMARK    3  A    between atoms: C_14  and  C_23
REMARK    4  A    between atoms: C_23  and  O_24
REMARK                            x       y       z     vdW  Elec       q    Type
REMARK                         _______ _______ _______ _____ _____    ______ ____
ROOT
ATOM      1  O   UNL     1     -36.600  22.949   4.564  0.00  0.00    -0.457 OA
ATOM      2  O   UNL     1     -40.192  25.987   0.266  0.00  0.00    -0.411 OA
ATOM      3  O   UNL     1     -35.209  26.773   4.385  0.00  0.00    -0.286 OA
ATOM      4  O   UNL     1     -38.821  27.663   0.864  0.00  0.00    -0.244 OA
ATOM      5  C   UNL     1     -38.920  24.228   2.037  0.00  0.00    +0.049 A 
ATOM      6  C   UNL     1     -38.489  25.557   1.930  0.00  0.00    +0.113 A 
ATOM      7  C   UNL     1     -36.776  25.165   3.591  0.00  0.00    +0.107 C 
ATOM      8  C   UNL     1     -37.193  23.844   3.708  0.00  0.00    +0.151 C 
ATOM      9  C   UNL     1     -37.419  26.030   2.704  0.00  0.00    +0.146 C 
ATOM     10  C   UNL     1     -38.259  23.376   2.937  0.00  0.00    +0.041 C 
ATOM     11  C   UNL     1     -40.043  23.768   1.212  0.00  0.00    +0.175 A 
ATOM     12  C   UNL     1     -35.650  25.631   4.416  0.00  0.00    +0.204 C 
ATOM     13  C   UNL     1     -39.157  26.494   0.996  0.00  0.00    +0.349 A 
ATOM     14  C   UNL     1     -40.620  24.648   0.378  0.00  0.00    +0.257 A 
ATOM     15  C   UNL     1     -35.541  23.384   5.344  0.00  0.00    +0.126 C 
ATOM     16  C   UNL     1     -35.049  24.632   5.320  0.00  0.00    +0.075 C 
ATOM     17  C   UNL     1     -34.980  22.322   6.236  0.00  0.00    +0.073 C 
ENDROOT
BRANCH   9  18
ATOM     18  O   UNL     1     -37.000  27.324   2.598  0.00  0.00    -0.505 OA
ATOM     19  H   UNL     1     -36.763  27.673   1.761  0.00  0.00    +0.292 HD
ENDBRANCH   9  18
BRANCH  11  20
ATOM     20  O   UNL     1     -40.404  22.451   1.375  0.00  0.00    -0.503 OA
ATOM     21  H   UNL     1     -39.798  21.769   1.161  0.00  0.00    +0.292 HD
ENDBRANCH  11  20
BRANCH  14  23
ATOM     22  O   UNL     1     -41.713  24.373  -1.707  0.00  0.00    -0.241 OA
ATOM     23  C   UNL     1     -41.748  24.294  -0.491  0.00  0.00    +0.380 C 
BRANCH  23  24
ATOM     24  O   UNL     1     -42.781  23.884   0.287  0.00  0.00    -0.439 OA
ATOM     25  C   UNL     1     -43.535  24.932   0.905  0.00  0.00    +0.256 C 
ENDBRANCH  23  24
ENDBRANCH  14  23
TORSDOF 4
ENDMDL
MODEL 5
REMARK VINA RESULT:      -6.2      2.313      3.915
REMARK  Name = 54692970
REMARK  4 active torsions:
REMARK  status: ('A' for Active; 'I' for Inactive)
REMARK    1  A    between atoms: C_9  and  O_18
REMARK    2  A    between atoms: C_11  and  O_20
REMARK    3  A    between atoms: C_14  and  C_23
REMARK    4  A    between atoms: C_23  and  O_24
REMARK                            x       y       z     vdW  Elec       q    Type
REMARK                         _______ _______ _______ _____ _____    ______ ____
ROOT
ATOM      1  O   UNL     1     -39.088  25.800   1.357  0.00  0.00    -0.457 OA
ATOM      2  O   UNL     1     -34.222  24.694   5.318  0.00  0.00    -0.411 OA
ATOM      3  O   UNL     1     -39.135  21.808   2.166  0.00  0.00    -0.286 OA
ATOM      4  O   UNL     1     -35.040  22.610   5.136  0.00  0.00    -0.244 OA
ATOM      5  C   UNL     1     -36.193  25.689   3.596  0.00  0.00    +0.049 A 
ATOM      6  C   UNL     1     -36.156  24.325   3.913  0.00  0.00    +0.113 A 
ATOM      7  C   UNL     1     -38.090  23.918   2.520  0.00  0.00    +0.107 C 
ATOM      8  C   UNL     1     -38.139  25.269   2.195  0.00  0.00    +0.151 C 
ATOM      9  C   UNL     1     -37.101  23.437   3.379  0.00  0.00    +0.146 C 
ATOM     10  C   UNL     1     -37.197  26.152   2.729  0.00  0.00    +0.041 C 
ATOM     11  C   UNL     1     -35.189  26.589   4.173  0.00  0.00    +0.175 A 
ATOM     12  C   UNL     1     -39.095  23.011   1.943  0.00  0.00    +0.204 C 
ATOM     13  C   UNL     1     -35.117  23.791   4.825  0.00  0.00    +0.349 A 
ATOM     14  C   UNL     1     -34.264  26.065   4.994  0.00  0.00    +0.257 A 
ATOM     15  C   UNL     1     -40.037  24.949   0.813  0.00  0.00    +0.126 C 
ATOM     16  C   UNL     1     -40.093  23.631   1.050  0.00  0.00    +0.075 C 
ATOM     17  C   UNL     1     -41.017  25.642  -0.081  0.00  0.00    +0.073 C 
ENDROOT
BRANCH   9  18
ATOM     18  O   UNL     1     -37.063  22.109   3.690  0.00  0.00    -0.505 OA
ATOM     19  H   UNL     1     -37.823  21.687   4.040  0.00  0.00    +0.292 HD
ENDBRANCH   9  18
BRANCH  11  20
ATOM     20  O   UNL     1     -35.293  27.912   3.812  0.00  0.00    -0.503 OA
ATOM     21  H   UNL     1     -36.107  28.365   3.921  0.00  0.00    +0.292 HD
ENDBRANCH  11  20
BRANCH  14  23
ATOM     22  O   UNL     1     -33.118  27.030   6.831  0.00  0.00    -0.241 OA
ATOM     23  C   UNL     1     -33.215  26.874   5.625  0.00  0.00    +0.380 C 
BRANCH  23  24
ATOM     24  O   UNL     1     -32.418  27.382   4.653  0.00  0.00    -0.439 OA
ATOM     25  C   UNL     1     -31.862  28.672   4.931  0.00  0.00    +0.256 C 
ENDBRANCH  23  24
ENDBRANCH  14  23
TORSDOF 4
ENDMDL
MODEL 6
REMARK VINA RESULT:      -5.7      2.398      3.493
REMARK  Name = 54692970
REMARK  4 active torsions:
REMARK  status: ('A' for Active; 'I' for Inactive)
REMARK    1  A    between atoms: C_9  and  O_18
REMARK    2  A    between atoms: C_11  and  O_20
REMARK    3  A    between atoms: C_14  and  C_23
REMARK    4  A    between atoms: C_23  and  O_24
REMARK                            x       y       z     vdW  Elec       q    Type
REMARK                         _______ _______ _______ _____ _____    ______ ____
ROOT
ATOM      1  O   UNL     1     -40.879  23.604   0.486  0.00  0.00    -0.457 OA
ATOM      2  O   UNL     1     -35.719  23.302   4.210  0.00  0.00    -0.411 OA
ATOM      3  O   UNL     1     -39.315  19.875  -0.000  0.00  0.00    -0.286 OA
ATOM      4  O   UNL     1     -35.671  21.235   3.332  0.00  0.00    -0.244 OA
ATOM      5  C   UNL     1     -38.030  23.935   2.761  0.00  0.00    +0.049 A 
ATOM      6  C   UNL     1     -37.444  22.668   2.638  0.00  0.00    +0.113 A 
ATOM      7  C   UNL     1     -39.153  21.999   1.063  0.00  0.00    +0.107 C 
ATOM      8  C   UNL     1     -39.746  23.252   1.176  0.00  0.00    +0.151 C 
ATOM      9  C   UNL     1     -38.001  21.698   1.791  0.00  0.00    +0.146 C 
ATOM     10  C   UNL     1     -39.189  24.216   2.019  0.00  0.00    +0.041 C 
ATOM     11  C   UNL     1     -37.420  24.925   3.655  0.00  0.00    +0.175 A 
ATOM     12  C   UNL     1     -39.761  21.002   0.168  0.00  0.00    +0.204 C 
ATOM     13  C   UNL     1     -36.222  22.325   3.402  0.00  0.00    +0.349 A 
ATOM     14  C   UNL     1     -36.313  24.575   4.329  0.00  0.00    +0.257 A 
ATOM     15  C   UNL     1     -41.455  22.668  -0.358  0.00  0.00    +0.126 C 
ATOM     16  C   UNL     1     -40.977  21.430  -0.549  0.00  0.00    +0.075 C 
ATOM     17  C   UNL     1     -42.684  23.166  -1.052  0.00  0.00    +0.073 C 
ENDROOT
BRANCH   9  18
ATOM     18  O   UNL     1     -37.429  20.465   1.673  0.00  0.00    -0.505 OA
ATOM     19  H   UNL     1     -37.210  20.129   0.826  0.00  0.00    +0.292 HD
ENDBRANCH   9  18
BRANCH  11  20
ATOM     20  O   UNL     1     -38.054  26.144   3.720  0.00  0.00    -0.503 OA
ATOM     21  H   UNL     1     -38.987  26.191   3.641  0.00  0.00    +0.292 HD
ENDBRANCH  11  20
BRANCH  14  23
ATOM     22  O   UNL     1     -36.202  26.250   6.003  0.00  0.00    -0.241 OA
ATOM     23  C   UNL     1     -35.622  25.486   5.249  0.00  0.00    +0.380 C 
BRANCH  23  24
ATOM     24  O   UNL     1     -34.285  25.317   5.102  0.00  0.00    -0.439 OA
ATOM     25  C   UNL     1     -33.682  26.089   4.058  0.00  0.00    +0.256 C 
ENDBRANCH  23  24
ENDBRANCH  14  23
TORSDOF 4
ENDMDL
MODEL 7
REMARK VINA RESULT:      -5.7      5.966      7.836
REMARK  Name = 54692970
REMARK  4 active torsions:
REMARK  status: ('A' for Active; 'I' for Inactive)
REMARK    1  A    between atoms: C_9  and  O_18
REMARK    2  A    between atoms: C_11  and  O_20
REMARK    3  A    between atoms: C_14  and  C_23
REMARK    4  A    between atoms: C_23  and  O_24
REMARK                            x       y       z     vdW  Elec       q    Type
REMARK                         _______ _______ _______ _____ _____    ______ ____
ROOT
ATOM      1  O   UNL     1     -47.205  24.586   3.801  0.00  0.00    -0.457 OA
ATOM      2  O   UNL     1     -42.878  29.235   4.314  0.00  0.00    -0.411 OA
ATOM      3  O   UNL     1     -44.568  24.059   0.742  0.00  0.00    -0.286 OA
ATOM      4  O   UNL     1     -42.083  28.180   2.497  0.00  0.00    -0.244 OA
ATOM      5  C   UNL     1     -44.998  27.417   4.522  0.00  0.00    +0.049 A 
ATOM      6  C   UNL     1     -44.058  27.289   3.492  0.00  0.00    +0.113 A 
ATOM      7  C   UNL     1     -45.210  25.340   2.643  0.00  0.00    +0.107 C 
ATOM      8  C   UNL     1     -46.151  25.455   3.660  0.00  0.00    +0.151 C 
ATOM      9  C   UNL     1     -44.159  26.254   2.551  0.00  0.00    +0.146 C 
ATOM     10  C   UNL     1     -46.048  26.487   4.596  0.00  0.00    +0.041 C 
ATOM     11  C   UNL     1     -44.862  28.513   5.489  0.00  0.00    +0.175 A 
ATOM     12  C   UNL     1     -45.343  24.243   1.671  0.00  0.00    +0.204 C 
ATOM     13  C   UNL     1     -42.932  28.246   3.376  0.00  0.00    +0.349 A 
ATOM     14  C   UNL     1     -43.829  29.358   5.348  0.00  0.00    +0.257 A 
ATOM     15  C   UNL     1     -47.333  23.551   2.888  0.00  0.00    +0.126 C 
ATOM     16  C   UNL     1     -46.490  23.338   1.867  0.00  0.00    +0.075 C 
ATOM     17  C   UNL     1     -48.515  22.671   3.145  0.00  0.00    +0.073 C 
ENDROOT
BRANCH   9  18
ATOM     18  O   UNL     1     -43.241  26.131   1.549  0.00  0.00    -0.505 OA
ATOM     19  H   UNL     1     -43.430  26.470   0.696  0.00  0.00    +0.292 HD
ENDBRANCH   9  18
BRANCH  11  20
ATOM     20  O   UNL     1     -45.826  28.569   6.468  0.00  0.00    -0.503 OA
ATOM     21  H   UNL     1     -45.677  28.157   7.297  0.00  0.00    +0.292 HD
ENDBRANCH  11  20
BRANCH  14  23
ATOM     22  O   UNL     1     -43.589  31.652   5.897  0.00  0.00    -0.241 OA
ATOM     23  C   UNL     1     -43.597  30.487   6.257  0.00  0.00    +0.380 C 
BRANCH  23  24
ATOM     24  O   UNL     1     -43.408  30.001   7.509  0.00  0.00    -0.439 OA
ATOM     25  C   UNL     1     -44.078  30.718   8.551  0.00  0.00    +0.256 C 
ENDBRANCH  23  24
ENDBRANCH  14  23
TORSDOF 4
ENDMDL
MODEL 8
REMARK VINA RESULT:      -5.7      3.577      5.028
REMARK  Name = 54692970
REMARK  4 active torsions:
REMARK  status: ('A' for Active; 'I' for Inactive)
REMARK    1  A    between atoms: C_9  and  O_18
REMARK    2  A    between atoms: C_11  and  O_20
REMARK    3  A    between atoms: C_14  and  C_23
REMARK    4  A    between atoms: C_23  and  O_24
REMARK                            x       y       z     vdW  Elec       q    Type
REMARK                         _______ _______ _______ _____ _____    ______ ____
ROOT
ATOM      1  O   UNL     1     -38.027  27.309   1.075  0.00  0.00    -0.457 OA
ATOM      2  O   UNL     1     -33.315  26.478   5.282  0.00  0.00    -0.411 OA
ATOM      3  O   UNL     1     -39.076  24.115   3.374  0.00  0.00    -0.286 OA
ATOM      4  O   UNL     1     -34.676  24.803   5.904  0.00  0.00    -0.244 OA
ATOM      5  C   UNL     1     -35.087  27.251   3.256  0.00  0.00    +0.049 A 
ATOM      6  C   UNL     1     -35.391  26.160   4.081  0.00  0.00    +0.113 A 
ATOM      7  C   UNL     1     -37.475  25.814   2.905  0.00  0.00    +0.107 C 
ATOM      8  C   UNL     1     -37.187  26.894   2.078  0.00  0.00    +0.151 C 
ATOM      9  C   UNL     1     -36.582  25.440   3.910  0.00  0.00    +0.146 C 
ATOM     10  C   UNL     1     -36.000  27.610   2.251  0.00  0.00    +0.041 C 
ATOM     11  C   UNL     1     -33.832  27.982   3.463  0.00  0.00    +0.175 A 
ATOM     12  C   UNL     1     -38.733  25.078   2.701  0.00  0.00    +0.204 C 
ATOM     13  C   UNL     1     -34.459  25.746   5.156  0.00  0.00    +0.349 A 
ATOM     14  C   UNL     1     -33.015  27.574   4.447  0.00  0.00    +0.257 A 
ATOM     15  C   UNL     1     -39.213  26.619   0.880  0.00  0.00    +0.126 C 
ATOM     16  C   UNL     1     -39.600  25.563   1.611  0.00  0.00    +0.075 C 
ATOM     17  C   UNL     1     -40.044  27.163  -0.239  0.00  0.00    +0.073 C 
ENDROOT
BRANCH   9  18
ATOM     18  O   UNL     1     -36.876  24.378   4.715  0.00  0.00    -0.505 OA
ATOM     19  H   UNL     1     -36.794  24.458   5.645  0.00  0.00    +0.292 HD
ENDBRANCH   9  18
BRANCH  11  20
ATOM     20  O   UNL     1     -33.608  29.038   2.611  0.00  0.00    -0.503 OA
ATOM     21  H   UNL     1     -32.749  29.189   2.268  0.00  0.00    +0.292 HD
ENDBRANCH  11  20
BRANCH  14  23
ATOM     22  O   UNL     1     -30.651  27.750   4.465  0.00  0.00    -0.241 OA
ATOM     23  C   UNL     1     -31.737  28.232   4.741  0.00  0.00    +0.380 C 
BRANCH  23  24
ATOM     24  O   UNL     1     -31.991  29.419   5.346  0.00  0.00    -0.439 OA
ATOM     25  C   UNL     1     -31.524  29.530   6.695  0.00  0.00    +0.256 C 
ENDBRANCH  23  24
ENDBRANCH  14  23
TORSDOF 4
ENDMDL
MODEL 9
REMARK VINA RESULT:      -5.7      3.990      7.490
REMARK  Name = 54692970
REMARK  4 active torsions:
REMARK  status: ('A' for Active; 'I' for Inactive)
REMARK    1  A    between atoms: C_9  and  O_18
REMARK    2  A    between atoms: C_11  and  O_20
REMARK    3  A    between atoms: C_14  and  C_23
REMARK    4  A    between atoms: C_23  and  O_24
REMARK                            x       y       z     vdW  Elec       q    Type
REMARK                         _______ _______ _______ _____ _____    ______ ____
ROOT
ATOM      1  O   UNL     1     -33.298  19.208   1.494  0.00  0.00    -0.457 OA
ATOM      2  O   UNL     1     -38.731  22.460   2.202  0.00  0.00    -0.411 OA
ATOM      3  O   UNL     1     -36.107  17.272  -0.731  0.00  0.00    -0.286 OA
ATOM      4  O   UNL     1     -39.441  20.835   0.823  0.00  0.00    -0.244 OA
ATOM      5  C   UNL     1     -36.138  21.401   2.219  0.00  0.00    +0.049 A 
ATOM      6  C   UNL     1     -37.149  20.781   1.473  0.00  0.00    +0.113 A 
ATOM      7  C   UNL     1     -35.596  19.087   0.722  0.00  0.00    +0.107 C 
ATOM      8  C   UNL     1     -34.582  19.691   1.458  0.00  0.00    +0.151 C 
ATOM      9  C   UNL     1     -36.883  19.626   0.724  0.00  0.00    +0.146 C 
ATOM     10  C   UNL     1     -34.850  20.842   2.203  0.00  0.00    +0.041 C 
ATOM     11  C   UNL     1     -36.452  22.609   2.991  0.00  0.00    +0.175 A 
ATOM     12  C   UNL     1     -35.286  17.876  -0.054  0.00  0.00    +0.204 C 
ATOM     13  C   UNL     1     -38.523  21.336   1.458  0.00  0.00    +0.349 A 
ATOM     14  C   UNL     1     -37.709  23.079   2.951  0.00  0.00    +0.257 A 
ATOM     15  C   UNL     1     -33.002  18.068   0.764  0.00  0.00    +0.126 C 
ATOM     16  C   UNL     1     -33.892  17.398   0.017  0.00  0.00    +0.075 C 
ATOM     17  C   UNL     1     -31.573  17.639   0.879  0.00  0.00    +0.073 C 
ENDROOT
BRANCH   9  18
ATOM     18  O   UNL     1     -37.869  19.024  -0.002  0.00  0.00    -0.505 OA
ATOM     19  H   UNL     1     -38.630  19.510  -0.254  0.00  0.00    +0.292 HD
ENDBRANCH   9  18
BRANCH  11  20
ATOM     20  O   UNL     1     -35.406  23.156   3.697  0.00  0.00    -0.503 OA
ATOM     21  H   UNL     1     -34.756  23.663   3.252  0.00  0.00    +0.292 HD
ENDBRANCH  11  20
BRANCH  14  23
ATOM     22  O   UNL     1     -37.378  24.949   4.369  0.00  0.00    -0.241 OA
ATOM     23  C   UNL     1     -38.132  24.277   3.685  0.00  0.00    +0.380 C 
BRANCH  23  24
ATOM     24  O   UNL     1     -39.454  24.478   3.459  0.00  0.00    -0.439 OA
ATOM     25  C   UNL     1     -39.794  25.760   2.921  0.00  0.00    +0.256 C 
ENDBRANCH  23  24
ENDBRANCH  14  23
TORSDOF 4
ENDMDL
