MODEL 1
REMARK VINA RESULT:      -5.7      0.000      0.000
REMARK  Name = 5284549
REMARK  4 active torsions:
REMARK  status: ('A' for Active; 'I' for Inactive)
REMARK    1  A    between atoms: C_6  and  N_19
REMARK    2  A    between atoms: C_12  and  S_13
REMARK    3  A    between atoms: S_13  and  N_16
REMARK    4  A    between atoms: N_19  and  C_22
REMARK                            x       y       z     vdW  Elec       q    Type
REMARK                         _______ _______ _______ _____ _____    ______ ____
ROOT
ATOM      1  S   UNL     1     -38.069  25.476   2.141  0.00  0.00    +0.012 S 
ATOM      2  S   UNL     1     -35.721  27.022   3.078  0.00  0.00    -0.049 S 
ATOM      3  O   UNL     1     -37.868  25.798   0.744  0.00  0.00    -0.168 OA
ATOM      4  O   UNL     1     -38.904  26.264   3.022  0.00  0.00    -0.168 OA
ATOM      5  C   UNL     1     -38.489  23.729   2.321  0.00  0.00    +0.133 C 
ATOM      6  C   UNL     1     -36.109  23.017   3.105  0.00  0.00    -0.035 C 
ATOM      7  C   UNL     1     -37.256  22.832   2.082  0.00  0.00    +0.007 C 
ATOM      8  C   UNL     1     -35.665  24.447   3.226  0.00  0.00    -0.017 C 
ATOM      9  C   UNL     1     -36.456  25.511   2.848  0.00  0.00    +0.130 C 
ATOM     10  C   UNL     1     -39.627  23.369   1.371  0.00  0.00    +0.026 C 
ATOM     11  C   UNL     1     -34.406  24.910   3.722  0.00  0.00    +0.022 C 
ATOM     12  C   UNL     1     -34.306  26.285   3.701  0.00  0.00    +0.152 C 
ENDROOT
BRANCH  12  13
ATOM     13  S   UNL     1     -33.039  27.407   4.174  0.00  0.00    +0.063 S 
ATOM     14  O   UNL     1     -31.825  26.943   3.515  0.00  0.00    -0.153 OA
ATOM     15  O   UNL     1     -33.579  28.731   3.888  0.00  0.00    -0.153 OA
BRANCH  13  16
ATOM     16  N   UNL     1     -32.796  27.278   5.870  0.00  0.00    -0.203 NA
ATOM     17  H   UNL     1     -32.074  26.582   6.058  0.00  0.00    +0.144 HD
ATOM     18  H   UNL     1     -33.666  26.995   6.319  0.00  0.00    +0.144 HD
ENDBRANCH  13  16
ENDBRANCH  12  13
BRANCH   6  19
ATOM     19  N   UNL     1     -36.485  22.542   4.438  0.00  0.00    +0.388 N 
ATOM     20  H   UNL     1     -37.336  21.984   4.367  0.00  0.00    -0.084 HD
ATOM     21  H   UNL     1     -36.639  23.348   5.042  0.00  0.00    -0.084 HD
BRANCH  19  22
ATOM     22  C   UNL     1     -35.425  21.726   5.008  0.00  0.00    -0.081 C 
ATOM     23  C   UNL     1     -35.180  22.123   6.451  0.00  0.00    -0.026 C 
ENDBRANCH  19  22
ENDBRANCH   6  19
TORSDOF 4
ENDMDL
MODEL 2
REMARK VINA RESULT:      -5.5      3.670      6.499
REMARK  Name = 5284549
REMARK  4 active torsions:
REMARK  status: ('A' for Active; 'I' for Inactive)
REMARK    1  A    between atoms: C_6  and  N_19
REMARK    2  A    between atoms: C_12  and  S_13
REMARK    3  A    between atoms: S_13  and  N_16
REMARK    4  A    between atoms: N_19  and  C_22
REMARK                            x       y       z     vdW  Elec       q    Type
REMARK                         _______ _______ _______ _____ _____    ______ ____
ROOT
ATOM      1  S   UNL     1     -35.771  23.493   4.369  0.00  0.00    +0.012 S 
ATOM      2  S   UNL     1     -36.416  21.409   2.363  0.00  0.00    -0.049 S 
ATOM      3  O   UNL     1     -34.502  23.842   3.766  0.00  0.00    -0.168 OA
ATOM      4  O   UNL     1     -35.904  22.494   5.407  0.00  0.00    -0.168 OA
ATOM      5  C   UNL     1     -36.659  24.986   4.856  0.00  0.00    +0.133 C 
ATOM      6  C   UNL     1     -38.282  24.945   2.818  0.00  0.00    -0.035 C 
ATOM      7  C   UNL     1     -37.219  25.729   3.624  0.00  0.00    +0.007 C 
ATOM      8  C   UNL     1     -37.804  23.582   2.402  0.00  0.00    -0.017 C 
ATOM      9  C   UNL     1     -36.766  22.929   3.029  0.00  0.00    +0.130 C 
ATOM     10  C   UNL     1     -35.743  25.889   5.677  0.00  0.00    +0.026 C 
ATOM     11  C   UNL     1     -38.323  22.788   1.331  0.00  0.00    +0.022 C 
ATOM     12  C   UNL     1     -37.664  21.583   1.202  0.00  0.00    +0.152 C 
ENDROOT
BRANCH  12  13
ATOM     13  S   UNL     1     -37.845  20.223   0.106  0.00  0.00    +0.063 S 
ATOM     14  O   UNL     1     -39.280  19.990  -0.010  0.00  0.00    -0.153 OA
ATOM     15  O   UNL     1     -37.053  20.573  -1.066  0.00  0.00    -0.153 OA
BRANCH  13  16
ATOM     16  N   UNL     1     -37.147  18.832   0.835  0.00  0.00    -0.203 NA
ATOM     17  H   UNL     1     -36.686  18.269   0.120  0.00  0.00    +0.144 HD
ATOM     18  H   UNL     1     -37.878  18.280   1.284  0.00  0.00    +0.144 HD
ENDBRANCH  13  16
ENDBRANCH  12  13
BRANCH   6  19
ATOM     19  N   UNL     1     -39.526  24.780   3.573  0.00  0.00    +0.388 N 
ATOM     20  H   UNL     1     -39.339  24.932   4.564  0.00  0.00    -0.084 HD
ATOM     21  H   UNL     1     -39.880  23.836   3.420  0.00  0.00    -0.084 HD
BRANCH  19  22
ATOM     22  C   UNL     1     -40.526  25.734   3.124  0.00  0.00    -0.081 C 
ATOM     23  C   UNL     1     -41.135  25.274   1.813  0.00  0.00    -0.026 C 
ENDBRANCH  19  22
ENDBRANCH   6  19
TORSDOF 4
ENDMDL
MODEL 3
REMARK VINA RESULT:      -5.5      3.820      5.145
REMARK  Name = 5284549
REMARK  4 active torsions:
REMARK  status: ('A' for Active; 'I' for Inactive)
REMARK    1  A    between atoms: C_6  and  N_19
REMARK    2  A    between atoms: C_12  and  S_13
REMARK    3  A    between atoms: S_13  and  N_16
REMARK    4  A    between atoms: N_19  and  C_22
REMARK                            x       y       z     vdW  Elec       q    Type
REMARK                         _______ _______ _______ _____ _____    ______ ____
ROOT
ATOM      1  S   UNL     1     -37.439  21.926   1.379  0.00  0.00    +0.012 S 
ATOM      2  S   UNL     1     -39.619  23.931   1.470  0.00  0.00    -0.049 S 
ATOM      3  O   UNL     1     -37.014  22.281   0.041  0.00  0.00    -0.168 OA
ATOM      4  O   UNL     1     -38.415  20.893   1.650  0.00  0.00    -0.168 OA
ATOM      5  C   UNL     1     -36.002  21.686   2.444  0.00  0.00    +0.133 C 
ATOM      6  C   UNL     1     -36.219  24.001   3.621  0.00  0.00    -0.035 C 
ATOM      7  C   UNL     1     -35.336  23.034   2.795  0.00  0.00    +0.007 C 
ATOM      8  C   UNL     1     -37.554  24.257   2.980  0.00  0.00    -0.017 C 
ATOM      9  C   UNL     1     -38.111  23.411   2.046  0.00  0.00    +0.130 C 
ATOM     10  C   UNL     1     -35.011  20.739   1.773  0.00  0.00    +0.026 C 
ATOM     11  C   UNL     1     -38.413  25.375   3.220  0.00  0.00    +0.022 C 
ATOM     12  C   UNL     1     -39.570  25.321   2.470  0.00  0.00    +0.152 C 
ENDROOT
BRANCH  12  13
ATOM     13  S   UNL     1     -40.970  26.373   2.338  0.00  0.00    +0.063 S 
ATOM     14  O   UNL     1     -40.575  27.454   1.442  0.00  0.00    -0.153 OA
ATOM     15  O   UNL     1     -42.077  25.490   1.992  0.00  0.00    -0.153 OA
BRANCH  13  16
ATOM     16  N   UNL     1     -41.288  27.062   3.879  0.00  0.00    -0.203 NA
ATOM     17  H   UNL     1     -41.862  26.420   4.427  0.00  0.00    +0.144 HD
ATOM     18  H   UNL     1     -41.783  27.945   3.762  0.00  0.00    +0.144 HD
ENDBRANCH  13  16
ENDBRANCH  12  13
BRANCH   6  19
ATOM     19  N   UNL     1     -36.454  23.499   4.977  0.00  0.00    +0.388 N 
ATOM     20  H   UNL     1     -36.957  22.614   4.924  0.00  0.00    -0.084 HD
ATOM     21  H   UNL     1     -37.003  24.188   5.491  0.00  0.00    -0.084 HD
BRANCH  19  22
ATOM     22  C   UNL     1     -35.194  23.292   5.671  0.00  0.00    -0.081 C 
ATOM     23  C   UNL     1     -35.177  21.924   6.326  0.00  0.00    -0.026 C 
ENDBRANCH  19  22
ENDBRANCH   6  19
TORSDOF 4
ENDMDL
MODEL 4
REMARK VINA RESULT:      -5.4      3.014      4.306
REMARK  Name = 5284549
REMARK  4 active torsions:
REMARK  status: ('A' for Active; 'I' for Inactive)
REMARK    1  A    between atoms: C_6  and  N_19
REMARK    2  A    between atoms: C_12  and  S_13
REMARK    3  A    between atoms: S_13  and  N_16
REMARK    4  A    between atoms: N_19  and  C_22
REMARK                            x       y       z     vdW  Elec       q    Type
REMARK                         _______ _______ _______ _____ _____    ______ ____
ROOT
ATOM      1  S   UNL     1     -36.575  24.236   3.673  0.00  0.00    +0.012 S 
ATOM      2  S   UNL     1     -36.888  26.710   2.072  0.00  0.00    -0.049 S 
ATOM      3  O   UNL     1     -36.258  23.402   2.532  0.00  0.00    -0.168 OA
ATOM      4  O   UNL     1     -37.923  24.419   4.167  0.00  0.00    -0.168 OA
ATOM      5  C   UNL     1     -35.479  23.845   5.052  0.00  0.00    +0.133 C 
ATOM      6  C   UNL     1     -33.946  25.922   4.702  0.00  0.00    -0.035 C 
ATOM      7  C   UNL     1     -34.054  24.381   4.801  0.00  0.00    +0.007 C 
ATOM      8  C   UNL     1     -34.882  26.504   3.681  0.00  0.00    -0.017 C 
ATOM      9  C   UNL     1     -36.003  25.841   3.229  0.00  0.00    +0.130 C 
ATOM     10  C   UNL     1     -35.468  22.339   5.295  0.00  0.00    +0.026 C 
ATOM     11  C   UNL     1     -34.759  27.776   3.039  0.00  0.00    +0.022 C 
ATOM     12  C   UNL     1     -35.783  28.017   2.146  0.00  0.00    +0.152 C 
ENDROOT
BRANCH  12  13
ATOM     13  S   UNL     1     -36.168  29.367   1.090  0.00  0.00    +0.063 S 
ATOM     14  O   UNL     1     -35.150  29.361   0.046  0.00  0.00    -0.153 OA
ATOM     15  O   UNL     1     -37.576  29.196   0.755  0.00  0.00    -0.153 OA
BRANCH  13  16
ATOM     16  N   UNL     1     -35.996  30.826   1.980  0.00  0.00    -0.203 NA
ATOM     17  H   UNL     1     -36.497  31.577   1.503  0.00  0.00    +0.144 HD
ATOM     18  H   UNL     1     -35.008  31.069   2.050  0.00  0.00    +0.144 HD
ENDBRANCH  13  16
ENDBRANCH  12  13
BRANCH   6  19
ATOM     19  N   UNL     1     -34.213  26.571   5.987  0.00  0.00    +0.388 N 
ATOM     20  H   UNL     1     -34.777  25.949   6.566  0.00  0.00    -0.084 HD
ATOM     21  H   UNL     1     -34.711  27.444   5.817  0.00  0.00    -0.084 HD
BRANCH  19  22
ATOM     22  C   UNL     1     -32.969  26.869   6.678  0.00  0.00    -0.081 C 
ATOM     23  C   UNL     1     -32.245  28.006   5.982  0.00  0.00    -0.026 C 
ENDBRANCH  19  22
ENDBRANCH   6  19
TORSDOF 4
ENDMDL
MODEL 5
REMARK VINA RESULT:      -5.2      3.363      6.893
REMARK  Name = 5284549
REMARK  4 active torsions:
REMARK  status: ('A' for Active; 'I' for Inactive)
REMARK    1  A    between atoms: C_6  and  N_19
REMARK    2  A    between atoms: C_12  and  S_13
REMARK    3  A    between atoms: S_13  and  N_16
REMARK    4  A    between atoms: N_19  and  C_22
REMARK                            x       y       z     vdW  Elec       q    Type
REMARK                         _______ _______ _______ _____ _____    ______ ____
ROOT
ATOM      1  S   UNL     1     -32.229  28.151   4.808  0.00  0.00    +0.012 S 
ATOM      2  S   UNL     1     -34.133  25.880   4.814  0.00  0.00    -0.049 S 
ATOM      3  O   UNL     1     -31.166  27.407   4.165  0.00  0.00    -0.168 OA
ATOM      4  O   UNL     1     -32.375  28.239   6.245  0.00  0.00    -0.168 OA
ATOM      5  C   UNL     1     -32.354  29.802   4.090  0.00  0.00    +0.133 C 
ATOM      6  C   UNL     1     -34.432  29.241   2.622  0.00  0.00    -0.035 C 
ATOM      7  C   UNL     1     -32.971  29.751   2.677  0.00  0.00    +0.007 C 
ATOM      8  C   UNL     1     -34.604  27.905   3.288  0.00  0.00    -0.017 C 
ATOM      9  C   UNL     1     -33.716  27.412   4.219  0.00  0.00    +0.130 C 
ATOM     10  C   UNL     1     -30.979  30.463   4.069  0.00  0.00    +0.026 C 
ATOM     11  C   UNL     1     -35.666  26.972   3.064  0.00  0.00    +0.022 C 
ATOM     12  C   UNL     1     -35.535  25.833   3.831  0.00  0.00    +0.152 C 
ENDROOT
BRANCH  12  13
ATOM     13  S   UNL     1     -36.500  24.374   3.993  0.00  0.00    +0.063 S 
ATOM     14  O   UNL     1     -36.240  23.586   2.795  0.00  0.00    -0.153 OA
ATOM     15  O   UNL     1     -36.172  23.848   5.313  0.00  0.00    -0.153 OA
BRANCH  13  16
ATOM     16  N   UNL     1     -38.162  24.810   3.983  0.00  0.00    -0.203 NA
ATOM     17  H   UNL     1     -38.288  25.658   3.429  0.00  0.00    +0.144 HD
ATOM     18  H   UNL     1     -38.476  24.977   4.938  0.00  0.00    +0.144 HD
ENDBRANCH  13  16
ENDBRANCH  12  13
BRANCH   6  19
ATOM     19  N   UNL     1     -35.362  30.185   3.245  0.00  0.00    +0.388 N 
ATOM     20  H   UNL     1     -34.870  30.713   3.966  0.00  0.00    -0.084 HD
ATOM     21  H   UNL     1     -36.134  29.661   3.656  0.00  0.00    -0.084 HD
BRANCH  19  22
ATOM     22  C   UNL     1     -35.894  31.107   2.256  0.00  0.00    -0.081 C 
ATOM     23  C   UNL     1     -36.346  30.346   1.024  0.00  0.00    -0.026 C 
ENDBRANCH  19  22
ENDBRANCH   6  19
TORSDOF 4
ENDMDL
MODEL 6
REMARK VINA RESULT:      -5.1      2.162      2.390
REMARK  Name = 5284549
REMARK  4 active torsions:
REMARK  status: ('A' for Active; 'I' for Inactive)
REMARK    1  A    between atoms: C_6  and  N_19
REMARK    2  A    between atoms: C_12  and  S_13
REMARK    3  A    between atoms: S_13  and  N_16
REMARK    4  A    between atoms: N_19  and  C_22
REMARK                            x       y       z     vdW  Elec       q    Type
REMARK                         _______ _______ _______ _____ _____    ______ ____
ROOT
ATOM      1  S   UNL     1     -38.912  24.158   1.425  0.00  0.00    +0.012 S 
ATOM      2  S   UNL     1     -37.626  26.824   1.288  0.00  0.00    -0.049 S 
ATOM      3  O   UNL     1     -38.656  23.837   0.037  0.00  0.00    -0.168 OA
ATOM      4  O   UNL     1     -40.128  24.800   1.877  0.00  0.00    -0.168 OA
ATOM      5  C   UNL     1     -38.567  22.726   2.468  0.00  0.00    +0.133 C 
ATOM      6  C   UNL     1     -36.263  23.615   3.297  0.00  0.00    -0.035 C 
ATOM      7  C   UNL     1     -37.049  22.481   2.595  0.00  0.00    +0.007 C 
ATOM      8  C   UNL     1     -36.498  24.959   2.668  0.00  0.00    -0.017 C 
ATOM      9  C   UNL     1     -37.599  25.238   1.887  0.00  0.00    +0.130 C 
ATOM     10  C   UNL     1     -39.281  21.497   1.914  0.00  0.00    +0.026 C 
ATOM     11  C   UNL     1     -35.650  26.107   2.767  0.00  0.00    +0.022 C 
ATOM     12  C   UNL     1     -36.146  27.189   2.070  0.00  0.00    +0.152 C 
ENDROOT
BRANCH  12  13
ATOM     13  S   UNL     1     -35.571  28.831   1.828  0.00  0.00    +0.063 S 
ATOM     14  O   UNL     1     -34.371  28.718   1.007  0.00  0.00    -0.153 OA
ATOM     15  O   UNL     1     -36.730  29.572   1.348  0.00  0.00    -0.153 OA
BRANCH  13  16
ATOM     16  N   UNL     1     -35.105  29.480   3.349  0.00  0.00    -0.203 NA
ATOM     17  H   UNL     1     -34.394  28.882   3.771  0.00  0.00    +0.144 HD
ATOM     18  H   UNL     1     -35.918  29.528   3.962  0.00  0.00    +0.144 HD
ENDBRANCH  13  16
ENDBRANCH  12  13
BRANCH   6  19
ATOM     19  N   UNL     1     -36.600  23.713   4.719  0.00  0.00    +0.388 N 
ATOM     20  H   UNL     1     -37.277  22.987   4.953  0.00  0.00    -0.084 HD
ATOM     21  H   UNL     1     -36.993  24.636   4.900  0.00  0.00    -0.084 HD
BRANCH  19  22
ATOM     22  C   UNL     1     -35.412  23.540   5.539  0.00  0.00    -0.081 C 
ATOM     23  C   UNL     1     -35.459  22.200   6.249  0.00  0.00    -0.026 C 
ENDBRANCH  19  22
ENDBRANCH   6  19
TORSDOF 4
ENDMDL
MODEL 7
REMARK VINA RESULT:      -5.1      2.021      5.371
REMARK  Name = 5284549
REMARK  4 active torsions:
REMARK  status: ('A' for Active; 'I' for Inactive)
REMARK    1  A    between atoms: C_6  and  N_19
REMARK    2  A    between atoms: C_12  and  S_13
REMARK    3  A    between atoms: S_13  and  N_16
REMARK    4  A    between atoms: N_19  and  C_22
REMARK                            x       y       z     vdW  Elec       q    Type
REMARK                         _______ _______ _______ _____ _____    ______ ____
ROOT
ATOM      1  S   UNL     1     -34.670  27.268   3.045  0.00  0.00    +0.012 S 
ATOM      2  S   UNL     1     -37.275  26.346   1.976  0.00  0.00    -0.049 S 
ATOM      3  O   UNL     1     -35.147  28.593   3.381  0.00  0.00    -0.168 OA
ATOM      4  O   UNL     1     -34.065  26.945   1.771  0.00  0.00    -0.168 OA
ATOM      5  C   UNL     1     -33.638  26.623   4.379  0.00  0.00    +0.133 C 
ATOM      6  C   UNL     1     -35.492  25.070   5.350  0.00  0.00    -0.035 C 
ATOM      7  C   UNL     1     -34.492  26.225   5.602  0.00  0.00    +0.007 C 
ATOM      8  C   UNL     1     -36.394  25.330   4.177  0.00  0.00    -0.017 C 
ATOM      9  C   UNL     1     -36.087  26.231   3.181  0.00  0.00    +0.130 C 
ATOM     10  C   UNL     1     -32.577  27.651   4.757  0.00  0.00    +0.026 C 
ATOM     11  C   UNL     1     -37.663  24.718   3.927  0.00  0.00    +0.022 C 
ATOM     12  C   UNL     1     -38.246  25.174   2.763  0.00  0.00    +0.152 C 
ENDROOT
BRANCH  12  13
ATOM     13  S   UNL     1     -39.757  24.803   1.948  0.00  0.00    +0.063 S 
ATOM     14  O   UNL     1     -40.792  25.532   2.671  0.00  0.00    -0.153 OA
ATOM     15  O   UNL     1     -39.505  25.076   0.538  0.00  0.00    -0.153 OA
BRANCH  13  16
ATOM     16  N   UNL     1     -40.079  23.125   2.124  0.00  0.00    -0.203 NA
ATOM     17  H   UNL     1     -40.286  22.720   1.210  0.00  0.00    +0.144 HD
ATOM     18  H   UNL     1     -40.879  22.994   2.743  0.00  0.00    +0.144 HD
ENDBRANCH  13  16
ENDBRANCH  12  13
BRANCH   6  19
ATOM     19  N   UNL     1     -34.806  23.796   5.124  0.00  0.00    +0.388 N 
ATOM     20  H   UNL     1     -33.798  23.942   5.186  0.00  0.00    -0.084 HD
ATOM     21  H   UNL     1     -35.057  23.448   4.199  0.00  0.00    -0.084 HD
BRANCH  19  22
ATOM     22  C   UNL     1     -35.208  22.815   6.118  0.00  0.00    -0.081 C 
ATOM     23  C   UNL     1     -35.195  21.424   5.514  0.00  0.00    -0.026 C 
ENDBRANCH  19  22
ENDBRANCH   6  19
TORSDOF 4
ENDMDL
MODEL 8
REMARK VINA RESULT:      -5.0      2.406      5.594
REMARK  Name = 5284549
REMARK  4 active torsions:
REMARK  status: ('A' for Active; 'I' for Inactive)
REMARK    1  A    between atoms: C_6  and  N_19
REMARK    2  A    between atoms: C_12  and  S_13
REMARK    3  A    between atoms: S_13  and  N_16
REMARK    4  A    between atoms: N_19  and  C_22
REMARK                            x       y       z     vdW  Elec       q    Type
REMARK                         _______ _______ _______ _____ _____    ______ ____
ROOT
ATOM      1  S   UNL     1     -36.019  26.649   1.687  0.00  0.00    +0.012 S 
ATOM      2  S   UNL     1     -38.035  24.691   0.749  0.00  0.00    -0.049 S 
ATOM      3  O   UNL     1     -36.945  27.761   1.715  0.00  0.00    -0.168 OA
ATOM      4  O   UNL     1     -35.208  26.324   0.533  0.00  0.00    -0.168 OA
ATOM      5  C   UNL     1     -34.980  26.668   3.163  0.00  0.00    +0.133 C 
ATOM      6  C   UNL     1     -36.299  24.778   4.378  0.00  0.00    -0.035 C 
ATOM      7  C   UNL     1     -35.777  26.235   4.412  0.00  0.00    +0.007 C 
ATOM      8  C   UNL     1     -37.107  24.480   3.146  0.00  0.00    -0.017 C 
ATOM      9  C   UNL     1     -37.013  25.227   1.991  0.00  0.00    +0.130 C 
ATOM     10  C   UNL     1     -34.370  28.054   3.350  0.00  0.00    +0.026 C 
ATOM     11  C   UNL     1     -38.063  23.428   2.987  0.00  0.00    +0.022 C 
ATOM     12  C   UNL     1     -38.637  23.424   1.733  0.00  0.00    +0.152 C 
ENDROOT
BRANCH  12  13
ATOM     13  S   UNL     1     -39.841  22.402   0.964  0.00  0.00    +0.063 S 
ATOM     14  O   UNL     1     -41.054  23.207   0.876  0.00  0.00    -0.153 OA
ATOM     15  O   UNL     1     -39.196  21.900  -0.243  0.00  0.00    -0.153 OA
BRANCH  13  16
ATOM     16  N   UNL     1     -40.171  21.069   1.996  0.00  0.00    -0.203 NA
ATOM     17  H   UNL     1     -39.398  20.404   1.950  0.00  0.00    +0.144 HD
ATOM     18  H   UNL     1     -41.032  20.612   1.696  0.00  0.00    +0.144 HD
ENDBRANCH  13  16
ENDBRANCH  12  13
BRANCH   6  19
ATOM     19  N   UNL     1     -35.207  23.805   4.453  0.00  0.00    +0.388 N 
ATOM     20  H   UNL     1     -34.327  24.273   4.239  0.00  0.00    -0.084 HD
ATOM     21  H   UNL     1     -35.384  23.060   3.780  0.00  0.00    -0.084 HD
BRANCH  19  22
ATOM     22  C   UNL     1     -35.130  23.226   5.784  0.00  0.00    -0.081 C 
ATOM     23  C   UNL     1     -35.160  21.712   5.696  0.00  0.00    -0.026 C 
ENDBRANCH  19  22
ENDBRANCH   6  19
TORSDOF 4
ENDMDL
MODEL 9
REMARK VINA RESULT:      -5.0      4.270      5.285
REMARK  Name = 5284549
REMARK  4 active torsions:
REMARK  status: ('A' for Active; 'I' for Inactive)
REMARK    1  A    between atoms: C_6  and  N_19
REMARK    2  A    between atoms: C_12  and  S_13
REMARK    3  A    between atoms: S_13  and  N_16
REMARK    4  A    between atoms: N_19  and  C_22
REMARK                            x       y       z     vdW  Elec       q    Type
REMARK                         _______ _______ _______ _____ _____    ______ ____
ROOT
ATOM      1  S   UNL     1     -38.254  20.900  -0.348  0.00  0.00    +0.012 S 
ATOM      2  S   UNL     1     -37.604  22.306   2.178  0.00  0.00    -0.049 S 
ATOM      3  O   UNL     1     -38.306  22.110  -1.142  0.00  0.00    -0.168 OA
ATOM      4  O   UNL     1     -39.415  20.330   0.301  0.00  0.00    -0.168 OA
ATOM      5  C   UNL     1     -37.374  19.605  -1.246  0.00  0.00    +0.133 C 
ATOM      6  C   UNL     1     -35.159  19.881   0.097  0.00  0.00    -0.035 C 
ATOM      7  C   UNL     1     -35.857  19.885  -1.285  0.00  0.00    +0.007 C 
ATOM      8  C   UNL     1     -35.811  20.813   1.078  0.00  0.00    -0.017 C 
ATOM      9  C   UNL     1     -37.109  21.256   0.942  0.00  0.00    +0.130 C 
ATOM     10  C   UNL     1     -37.947  19.469  -2.654  0.00  0.00    +0.026 C 
ATOM     11  C   UNL     1     -35.212  21.369   2.252  0.00  0.00    +0.022 C 
ATOM     12  C   UNL     1     -36.076  22.193   2.944  0.00  0.00    +0.152 C 
ENDROOT
BRANCH  12  13
ATOM     13  S   UNL     1     -35.921  23.132   4.420  0.00  0.00    +0.063 S 
ATOM     14  O   UNL     1     -34.594  23.734   4.375  0.00  0.00    -0.153 OA
ATOM     15  O   UNL     1     -37.114  23.968   4.465  0.00  0.00    -0.153 OA
BRANCH  13  16
ATOM     16  N   UNL     1     -35.963  22.059   5.761  0.00  0.00    -0.203 NA
ATOM     17  H   UNL     1     -36.673  22.371   6.425  0.00  0.00    +0.144 HD
ATOM     18  H   UNL     1     -35.051  22.049   6.218  0.00  0.00    +0.144 HD
ENDBRANCH  13  16
ENDBRANCH  12  13
BRANCH   6  19
ATOM     19  N   UNL     1     -35.131  18.542   0.689  0.00  0.00    +0.388 N 
ATOM     20  H   UNL     1     -35.891  17.986   0.297  0.00  0.00    -0.084 HD
ATOM     21  H   UNL     1     -35.238  18.628   1.699  0.00  0.00    -0.084 HD
BRANCH  19  22
ATOM     22  C   UNL     1     -33.865  17.885   0.407  0.00  0.00    -0.081 C 
ATOM     23  C   UNL     1     -32.804  18.355   1.384  0.00  0.00    -0.026 C 
ENDBRANCH  19  22
ENDBRANCH   6  19
TORSDOF 4
ENDMDL
