MODEL 1
REMARK VINA RESULT:      -4.4      0.000      0.000
REMARK  Name = 57350689
REMARK  8 active torsions:
REMARK  status: ('A' for Active; 'I' for Inactive)
REMARK    1  A    between atoms: C_1  and  C_4
REMARK    2  A    between atoms: C_1  and  O_5
REMARK    3  A    between atoms: C_1  and  C_7
REMARK    4  A    between atoms: C_1  and  C_12
REMARK    5  A    between atoms: C_7  and  C_9
REMARK    6  A    between atoms: C_9  and  O_10
REMARK    7  A    between atoms: C_12  and  C_14
REMARK    8  A    between atoms: C_14  and  O_15
REMARK                            x       y       z     vdW  Elec       q    Type
REMARK                         _______ _______ _______ _____ _____    ______ ____
ROOT
ATOM      1  C   UNL     1     -35.663  24.158   4.703  0.00  0.00    +0.203 C 
ENDROOT
BRANCH   1   4
ATOM      2  O   UNL     1     -35.965  22.427   6.317  0.00  0.00    -0.243 OA
ATOM      3  O   UNL     1     -35.479  21.842   4.165  0.00  0.00    -0.243 OA
ATOM      4  C   UNL     1     -35.701  22.662   5.102  0.00  0.00    +0.389 C 
ENDBRANCH   1   4
BRANCH   1   5
ATOM      5  O   UNL     1     -36.578  24.871   5.540  0.00  0.00    -0.375 OA
ATOM      6  H   UNL     1     -37.129  24.240   6.028  0.00  0.00    +0.211 HD
ENDBRANCH   1   5
BRANCH   1   7
ATOM      7  C   UNL     1     -34.277  24.813   4.775  0.00  0.00    +0.148 C 
BRANCH   7   9
ATOM      8  O   UNL     1     -33.809  26.477   6.496  0.00  0.00    -0.250 OA
ATOM      9  C   UNL     1     -34.279  26.195   5.402  0.00  0.00    +0.320 C 
BRANCH   9  10
ATOM     10  O   UNL     1     -34.917  27.062   4.560  0.00  0.00    -0.444 OA
ATOM     11  C   UNL     1     -34.193  27.420   3.379  0.00  0.00    +0.256 C 
ENDBRANCH   9  10
ENDBRANCH   7   9
ENDBRANCH   1   7
BRANCH   1  12
ATOM     12  C   UNL     1     -36.230  24.159   3.273  0.00  0.00    +0.148 C 
BRANCH  12  14
ATOM     13  O   UNL     1     -37.713  26.045   2.967  0.00  0.00    -0.250 OA
ATOM     14  C   UNL     1     -37.573  24.846   3.174  0.00  0.00    +0.320 C 
BRANCH  14  15
ATOM     15  O   UNL     1     -38.577  23.935   3.326  0.00  0.00    -0.444 OA
ATOM     16  C   UNL     1     -38.531  22.815   2.437  0.00  0.00    +0.256 C 
ENDBRANCH  14  15
ENDBRANCH  12  14
ENDBRANCH   1  12
TORSDOF 8
ENDMDL
MODEL 2
REMARK VINA RESULT:      -4.2      1.389      1.621
REMARK  Name = 57350689
REMARK  8 active torsions:
REMARK  status: ('A' for Active; 'I' for Inactive)
REMARK    1  A    between atoms: C_1  and  C_4
REMARK    2  A    between atoms: C_1  and  O_5
REMARK    3  A    between atoms: C_1  and  C_7
REMARK    4  A    between atoms: C_1  and  C_12
REMARK    5  A    between atoms: C_7  and  C_9
REMARK    6  A    between atoms: C_9  and  O_10
REMARK    7  A    between atoms: C_12  and  C_14
REMARK    8  A    between atoms: C_14  and  O_15
REMARK                            x       y       z     vdW  Elec       q    Type
REMARK                         _______ _______ _______ _____ _____    ______ ____
ROOT
ATOM      1  C   UNL     1     -35.467  23.232   4.631  0.00  0.00    +0.203 C 
ENDROOT
BRANCH   1   4
ATOM      2  O   UNL     1     -35.029  20.917   5.006  0.00  0.00    -0.243 OA
ATOM      3  O   UNL     1     -35.923  22.148   6.706  0.00  0.00    -0.243 OA
ATOM      4  C   UNL     1     -35.479  21.974   5.535  0.00  0.00    +0.389 C 
ENDBRANCH   1   4
BRANCH   1   5
ATOM      5  O   UNL     1     -36.690  23.945   4.836  0.00  0.00    -0.375 OA
ATOM      6  H   UNL     1     -37.069  24.190   3.978  0.00  0.00    +0.211 HD
ENDBRANCH   1   5
BRANCH   1   7
ATOM      7  C   UNL     1     -34.275  24.174   4.846  0.00  0.00    +0.148 C 
BRANCH   7   9
ATOM      8  O   UNL     1     -34.784  26.304   5.920  0.00  0.00    -0.250 OA
ATOM      9  C   UNL     1     -34.652  25.643   4.899  0.00  0.00    +0.320 C 
BRANCH   9  10
ATOM     10  O   UNL     1     -34.847  26.096   3.625  0.00  0.00    -0.444 OA
ATOM     11  C   UNL     1     -33.690  26.090   2.783  0.00  0.00    +0.256 C 
ENDBRANCH   9  10
ENDBRANCH   7   9
ENDBRANCH   1   7
BRANCH   1  12
ATOM     12  C   UNL     1     -35.493  22.646   3.209  0.00  0.00    +0.148 C 
BRANCH  12  14
ATOM     13  O   UNL     1     -36.710  24.103   1.711  0.00  0.00    -0.250 OA
ATOM     14  C   UNL     1     -36.694  23.098   2.409  0.00  0.00    +0.320 C 
BRANCH  14  15
ATOM     15  O   UNL     1     -37.721  22.214   2.569  0.00  0.00    -0.444 OA
ATOM     16  C   UNL     1     -39.010  22.688   2.170  0.00  0.00    +0.256 C 
ENDBRANCH  14  15
ENDBRANCH  12  14
ENDBRANCH   1  12
TORSDOF 8
ENDMDL
MODEL 3
REMARK VINA RESULT:      -4.1      1.448      4.338
REMARK  Name = 57350689
REMARK  8 active torsions:
REMARK  status: ('A' for Active; 'I' for Inactive)
REMARK    1  A    between atoms: C_1  and  C_4
REMARK    2  A    between atoms: C_1  and  O_5
REMARK    3  A    between atoms: C_1  and  C_7
REMARK    4  A    between atoms: C_1  and  C_12
REMARK    5  A    between atoms: C_7  and  C_9
REMARK    6  A    between atoms: C_9  and  O_10
REMARK    7  A    between atoms: C_12  and  C_14
REMARK    8  A    between atoms: C_14  and  O_15
REMARK                            x       y       z     vdW  Elec       q    Type
REMARK                         _______ _______ _______ _____ _____    ______ ____
ROOT
ATOM      1  C   UNL     1     -36.377  25.435   3.835  0.00  0.00    +0.203 C 
ENDROOT
BRANCH   1   4
ATOM      2  O   UNL     1     -35.293  26.139   5.840  0.00  0.00    -0.243 OA
ATOM      3  O   UNL     1     -35.007  27.384   3.949  0.00  0.00    -0.243 OA
ATOM      4  C   UNL     1     -35.474  26.419   4.620  0.00  0.00    +0.389 C 
ENDBRANCH   1   4
BRANCH   1   5
ATOM      5  O   UNL     1     -37.493  25.092   4.660  0.00  0.00    -0.375 OA
ATOM      6  H   UNL     1     -38.209  25.730   4.517  0.00  0.00    +0.211 HD
ENDBRANCH   1   5
BRANCH   1   7
ATOM      7  C   UNL     1     -36.874  25.952   2.478  0.00  0.00    +0.148 C 
BRANCH   7   9
ATOM      8  O   UNL     1     -39.220  26.619   2.508  0.00  0.00    -0.250 OA
ATOM      9  C   UNL     1     -38.366  25.778   2.261  0.00  0.00    +0.320 C 
BRANCH   9  10
ATOM     10  O   UNL     1     -38.599  24.523   1.774  0.00  0.00    -0.444 OA
ATOM     11  C   UNL     1     -39.779  23.881   2.265  0.00  0.00    +0.256 C 
ENDBRANCH   9  10
ENDBRANCH   7   9
ENDBRANCH   1   7
BRANCH   1  12
ATOM     12  C   UNL     1     -35.494  24.184   3.688  0.00  0.00    +0.148 C 
BRANCH  12  14
ATOM     13  O   UNL     1     -36.735  22.161   3.221  0.00  0.00    -0.250 OA
ATOM     14  C   UNL     1     -36.221  22.906   4.045  0.00  0.00    +0.320 C 
BRANCH  14  15
ATOM     15  O   UNL     1     -36.192  22.713   5.394  0.00  0.00    -0.444 OA
ATOM     16  C   UNL     1     -34.964  22.197   5.916  0.00  0.00    +0.256 C 
ENDBRANCH  14  15
ENDBRANCH  12  14
ENDBRANCH   1  12
TORSDOF 8
ENDMDL
MODEL 4
REMARK VINA RESULT:      -4.1      1.817      2.514
REMARK  Name = 57350689
REMARK  8 active torsions:
REMARK  status: ('A' for Active; 'I' for Inactive)
REMARK    1  A    between atoms: C_1  and  C_4
REMARK    2  A    between atoms: C_1  and  O_5
REMARK    3  A    between atoms: C_1  and  C_7
REMARK    4  A    between atoms: C_1  and  C_12
REMARK    5  A    between atoms: C_7  and  C_9
REMARK    6  A    between atoms: C_9  and  O_10
REMARK    7  A    between atoms: C_12  and  C_14
REMARK    8  A    between atoms: C_14  and  O_15
REMARK                            x       y       z     vdW  Elec       q    Type
REMARK                         _______ _______ _______ _____ _____    ______ ____
ROOT
ATOM      1  C   UNL     1     -35.716  22.917   4.198  0.00  0.00    +0.203 C 
ENDROOT
BRANCH   1   4
ATOM      2  O   UNL     1     -35.871  22.325   6.503  0.00  0.00    -0.243 OA
ATOM      3  O   UNL     1     -35.009  20.801   5.040  0.00  0.00    -0.243 OA
ATOM      4  C   UNL     1     -35.507  21.918   5.362  0.00  0.00    +0.389 C 
ENDBRANCH   1   4
BRANCH   1   5
ATOM      5  O   UNL     1     -37.028  23.474   4.311  0.00  0.00    -0.375 OA
ATOM      6  H   UNL     1     -36.962  24.421   4.506  0.00  0.00    +0.211 HD
ENDBRANCH   1   5
BRANCH   1   7
ATOM      7  C   UNL     1     -34.679  24.046   4.118  0.00  0.00    +0.148 C 
BRANCH   7   9
ATOM      8  O   UNL     1     -35.648  26.011   3.046  0.00  0.00    -0.250 OA
ATOM      9  C   UNL     1     -35.285  25.436   4.063  0.00  0.00    +0.320 C 
BRANCH   9  10
ATOM     10  O   UNL     1     -35.329  25.950   5.328  0.00  0.00    -0.444 OA
ATOM     11  C   UNL     1     -34.060  26.155   5.956  0.00  0.00    +0.256 C 
ENDBRANCH   9  10
ENDBRANCH   7   9
ENDBRANCH   1   7
BRANCH   1  12
ATOM     12  C   UNL     1     -35.689  22.019   2.949  0.00  0.00    +0.148 C 
BRANCH  12  14
ATOM     13  O   UNL     1     -37.874  21.455   2.081  0.00  0.00    -0.250 OA
ATOM     14  C   UNL     1     -36.904  22.201   2.067  0.00  0.00    +0.320 C 
BRANCH  14  15
ATOM     15  O   UNL     1     -36.755  23.313   1.292  0.00  0.00    -0.444 OA
ATOM     16  C   UNL     1     -35.562  23.361   0.505  0.00  0.00    +0.256 C 
ENDBRANCH  14  15
ENDBRANCH  12  14
ENDBRANCH   1  12
TORSDOF 8
ENDMDL
MODEL 5
REMARK VINA RESULT:      -4.1      1.525      4.078
REMARK  Name = 57350689
REMARK  8 active torsions:
REMARK  status: ('A' for Active; 'I' for Inactive)
REMARK    1  A    between atoms: C_1  and  C_4
REMARK    2  A    between atoms: C_1  and  O_5
REMARK    3  A    between atoms: C_1  and  C_7
REMARK    4  A    between atoms: C_1  and  C_12
REMARK    5  A    between atoms: C_7  and  C_9
REMARK    6  A    between atoms: C_9  and  O_10
REMARK    7  A    between atoms: C_12  and  C_14
REMARK    8  A    between atoms: C_14  and  O_15
REMARK                            x       y       z     vdW  Elec       q    Type
REMARK                         _______ _______ _______ _____ _____    ______ ____
ROOT
ATOM      1  C   UNL     1     -35.439  26.060   4.082  0.00  0.00    +0.203 C 
ENDROOT
BRANCH   1   4
ATOM      2  O   UNL     1     -33.759  27.734   4.340  0.00  0.00    -0.243 OA
ATOM      3  O   UNL     1     -33.664  25.879   5.665  0.00  0.00    -0.243 OA
ATOM      4  C   UNL     1     -34.159  26.609   4.759  0.00  0.00    +0.389 C 
ENDBRANCH   1   4
BRANCH   1   5
ATOM      5  O   UNL     1     -36.525  26.186   5.002  0.00  0.00    -0.375 OA
ATOM      6  H   UNL     1     -37.287  26.581   4.551  0.00  0.00    +0.211 HD
ENDBRANCH   1   5
BRANCH   1   7
ATOM      7  C   UNL     1     -35.807  26.729   2.750  0.00  0.00    +0.148 C 
BRANCH   7   9
ATOM      8  O   UNL     1     -36.999  25.400   1.089  0.00  0.00    -0.250 OA
ATOM      9  C   UNL     1     -37.023  26.127   2.073  0.00  0.00    +0.320 C 
BRANCH   9  10
ATOM     10  O   UNL     1     -38.148  26.553   2.723  0.00  0.00    -0.444 OA
ATOM     11  C   UNL     1     -39.292  25.705   2.595  0.00  0.00    +0.256 C 
ENDBRANCH   9  10
ENDBRANCH   7   9
ENDBRANCH   1   7
BRANCH   1  12
ATOM     12  C   UNL     1     -35.134  24.562   3.911  0.00  0.00    +0.148 C 
BRANCH  12  14
ATOM     13  O   UNL     1     -37.179  23.270   3.956  0.00  0.00    -0.250 OA
ATOM     14  C   UNL     1     -36.182  23.673   4.543  0.00  0.00    +0.320 C 
BRANCH  14  15
ATOM     15  O   UNL     1     -35.835  23.384   5.829  0.00  0.00    -0.444 OA
ATOM     16  C   UNL     1     -35.380  22.047   6.059  0.00  0.00    +0.256 C 
ENDBRANCH  14  15
ENDBRANCH  12  14
ENDBRANCH   1  12
TORSDOF 8
ENDMDL
MODEL 6
REMARK VINA RESULT:      -4.1      1.538      4.264
REMARK  Name = 57350689
REMARK  8 active torsions:
REMARK  status: ('A' for Active; 'I' for Inactive)
REMARK    1  A    between atoms: C_1  and  C_4
REMARK    2  A    between atoms: C_1  and  O_5
REMARK    3  A    between atoms: C_1  and  C_7
REMARK    4  A    between atoms: C_1  and  C_12
REMARK    5  A    between atoms: C_7  and  C_9
REMARK    6  A    between atoms: C_9  and  O_10
REMARK    7  A    between atoms: C_12  and  C_14
REMARK    8  A    between atoms: C_14  and  O_15
REMARK                            x       y       z     vdW  Elec       q    Type
REMARK                         _______ _______ _______ _____ _____    ______ ____
ROOT
ATOM      1  C   UNL     1     -36.756  25.680   3.675  0.00  0.00    +0.203 C 
ENDROOT
BRANCH   1   4
ATOM      2  O   UNL     1     -38.835  24.510   3.703  0.00  0.00    -0.243 OA
ATOM      3  O   UNL     1     -38.716  26.501   2.594  0.00  0.00    -0.243 OA
ATOM      4  C   UNL     1     -38.248  25.548   3.281  0.00  0.00    +0.389 C 
ENDBRANCH   1   4
BRANCH   1   5
ATOM      5  O   UNL     1     -36.683  26.270   4.975  0.00  0.00    -0.375 OA
ATOM      6  H   UNL     1     -35.804  26.657   5.106  0.00  0.00    +0.211 HD
ENDBRANCH   1   5
BRANCH   1   7
ATOM      7  C   UNL     1     -35.962  24.366   3.657  0.00  0.00    +0.148 C 
BRANCH   7   9
ATOM      8  O   UNL     1     -34.109  24.433   5.241  0.00  0.00    -0.250 OA
ATOM      9  C   UNL     1     -35.240  24.064   4.957  0.00  0.00    +0.320 C 
BRANCH   9  10
ATOM     10  O   UNL     1     -36.048  23.291   5.743  0.00  0.00    -0.444 OA
ATOM     11  C   UNL     1     -35.464  22.074   6.218  0.00  0.00    +0.256 C 
ENDBRANCH   9  10
ENDBRANCH   7   9
ENDBRANCH   1   7
BRANCH   1  12
ATOM     12  C   UNL     1     -36.209  26.698   2.660  0.00  0.00    +0.148 C 
BRANCH  12  14
ATOM     13  O   UNL     1     -33.901  26.560   1.950  0.00  0.00    -0.250 OA
ATOM     14  C   UNL     1     -34.718  26.915   2.790  0.00  0.00    +0.320 C 
BRANCH  14  15
ATOM     15  O   UNL     1     -34.441  27.573   3.952  0.00  0.00    -0.444 OA
ATOM     16  C   UNL     1     -33.056  27.651   4.301  0.00  0.00    +0.256 C 
ENDBRANCH  14  15
ENDBRANCH  12  14
ENDBRANCH   1  12
TORSDOF 8
ENDMDL
MODEL 7
REMARK VINA RESULT:      -4.0      1.454      2.255
REMARK  Name = 57350689
REMARK  8 active torsions:
REMARK  status: ('A' for Active; 'I' for Inactive)
REMARK    1  A    between atoms: C_1  and  C_4
REMARK    2  A    between atoms: C_1  and  O_5
REMARK    3  A    between atoms: C_1  and  C_7
REMARK    4  A    between atoms: C_1  and  C_12
REMARK    5  A    between atoms: C_7  and  C_9
REMARK    6  A    between atoms: C_9  and  O_10
REMARK    7  A    between atoms: C_12  and  C_14
REMARK    8  A    between atoms: C_14  and  O_15
REMARK                            x       y       z     vdW  Elec       q    Type
REMARK                         _______ _______ _______ _____ _____    ______ ____
ROOT
ATOM      1  C   UNL     1     -35.934  25.157   4.068  0.00  0.00    +0.203 C 
ENDROOT
BRANCH   1   4
ATOM      2  O   UNL     1     -36.049  23.303   5.565  0.00  0.00    -0.243 OA
ATOM      3  O   UNL     1     -37.345  23.273   3.687  0.00  0.00    -0.243 OA
ATOM      4  C   UNL     1     -36.494  23.773   4.478  0.00  0.00    +0.389 C 
ENDBRANCH   1   4
BRANCH   1   5
ATOM      5  O   UNL     1     -36.631  26.162   4.808  0.00  0.00    -0.375 OA
ATOM      6  H   UNL     1     -36.763  25.860   5.719  0.00  0.00    +0.211 HD
ENDBRANCH   1   5
BRANCH   1   7
ATOM      7  C   UNL     1     -34.421  25.327   4.261  0.00  0.00    +0.148 C 
BRANCH   7   9
ATOM      8  O   UNL     1     -33.886  26.454   6.357  0.00  0.00    -0.250 OA
ATOM      9  C   UNL     1     -34.040  26.501   5.144  0.00  0.00    +0.320 C 
BRANCH   9  10
ATOM     10  O   UNL     1     -33.927  27.620   4.368  0.00  0.00    -0.444 OA
ATOM     11  C   UNL     1     -32.706  27.739   3.632  0.00  0.00    +0.256 C 
ENDBRANCH   9  10
ENDBRANCH   7   9
ENDBRANCH   1   7
BRANCH   1  12
ATOM     12  C   UNL     1     -36.346  25.284   2.591  0.00  0.00    +0.148 C 
BRANCH  12  14
ATOM     13  O   UNL     1     -38.382  26.571   2.382  0.00  0.00    -0.250 OA
ATOM     14  C   UNL     1     -37.161  26.527   2.313  0.00  0.00    +0.320 C 
BRANCH  14  15
ATOM     15  O   UNL     1     -36.336  27.567   2.004  0.00  0.00    -0.444 OA
ATOM     16  C   UNL     1     -35.335  27.290   1.020  0.00  0.00    +0.256 C 
ENDBRANCH  14  15
ENDBRANCH  12  14
ENDBRANCH   1  12
TORSDOF 8
ENDMDL
MODEL 8
REMARK VINA RESULT:      -4.0      2.024      4.369
REMARK  Name = 57350689
REMARK  8 active torsions:
REMARK  status: ('A' for Active; 'I' for Inactive)
REMARK    1  A    between atoms: C_1  and  C_4
REMARK    2  A    between atoms: C_1  and  O_5
REMARK    3  A    between atoms: C_1  and  C_7
REMARK    4  A    between atoms: C_1  and  C_12
REMARK    5  A    between atoms: C_7  and  C_9
REMARK    6  A    between atoms: C_9  and  O_10
REMARK    7  A    between atoms: C_12  and  C_14
REMARK    8  A    between atoms: C_14  and  O_15
REMARK                            x       y       z     vdW  Elec       q    Type
REMARK                         _______ _______ _______ _____ _____    ______ ____
ROOT
ATOM      1  C   UNL     1     -34.074  26.178   4.859  0.00  0.00    +0.203 C 
ENDROOT
BRANCH   1   4
ATOM      2  O   UNL     1     -32.978  28.296   4.891  0.00  0.00    -0.243 OA
ATOM      3  O   UNL     1     -32.644  26.867   6.638  0.00  0.00    -0.243 OA
ATOM      4  C   UNL     1     -33.136  27.213   5.526  0.00  0.00    +0.389 C 
ENDBRANCH   1   4
BRANCH   1   5
ATOM      5  O   UNL     1     -33.279  25.089   4.384  0.00  0.00    -0.375 OA
ATOM      6  H   UNL     1     -33.417  24.978   3.431  0.00  0.00    +0.211 HD
ENDBRANCH   1   5
BRANCH   1   7
ATOM      7  C   UNL     1     -35.198  25.645   5.759  0.00  0.00    +0.148 C 
BRANCH   7   9
ATOM      8  O   UNL     1     -36.800  24.117   4.738  0.00  0.00    -0.250 OA
ATOM      9  C   UNL     1     -35.745  24.297   5.330  0.00  0.00    +0.320 C 
BRANCH   9  10
ATOM     10  O   UNL     1     -34.883  23.319   5.738  0.00  0.00    -0.444 OA
ATOM     11  C   UNL     1     -35.491  22.166   6.327  0.00  0.00    +0.256 C 
ENDBRANCH   9  10
ENDBRANCH   7   9
ENDBRANCH   1   7
BRANCH   1  12
ATOM     12  C   UNL     1     -34.623  26.933   3.636  0.00  0.00    +0.148 C 
BRANCH  12  14
ATOM     13  O   UNL     1     -33.261  26.436   1.700  0.00  0.00    -0.250 OA
ATOM     14  C   UNL     1     -34.295  26.248   2.328  0.00  0.00    +0.320 C 
BRANCH  14  15
ATOM     15  O   UNL     1     -35.301  25.396   1.981  0.00  0.00    -0.444 OA
ATOM     16  C   UNL     1     -34.886  24.110   1.512  0.00  0.00    +0.256 C 
ENDBRANCH  14  15
ENDBRANCH  12  14
ENDBRANCH   1  12
TORSDOF 8
ENDMDL
MODEL 9
REMARK VINA RESULT:      -4.0      1.565      2.416
REMARK  Name = 57350689
REMARK  8 active torsions:
REMARK  status: ('A' for Active; 'I' for Inactive)
REMARK    1  A    between atoms: C_1  and  C_4
REMARK    2  A    between atoms: C_1  and  O_5
REMARK    3  A    between atoms: C_1  and  C_7
REMARK    4  A    between atoms: C_1  and  C_12
REMARK    5  A    between atoms: C_7  and  C_9
REMARK    6  A    between atoms: C_9  and  O_10
REMARK    7  A    between atoms: C_12  and  C_14
REMARK    8  A    between atoms: C_14  and  O_15
REMARK                            x       y       z     vdW  Elec       q    Type
REMARK                         _______ _______ _______ _____ _____    ______ ____
ROOT
ATOM      1  C   UNL     1     -36.286  25.246   3.977  0.00  0.00    +0.203 C 
ENDROOT
BRANCH   1   4
ATOM      2  O   UNL     1     -36.510  23.095   4.983  0.00  0.00    -0.243 OA
ATOM      3  O   UNL     1     -34.784  24.434   5.642  0.00  0.00    -0.243 OA
ATOM      4  C   UNL     1     -35.817  24.153   4.968  0.00  0.00    +0.389 C 
ENDBRANCH   1   4
BRANCH   1   5
ATOM      5  O   UNL     1     -36.941  26.278   4.720  0.00  0.00    -0.375 OA
ATOM      6  H   UNL     1     -36.957  27.094   4.196  0.00  0.00    +0.211 HD
ENDBRANCH   1   5
BRANCH   1   7
ATOM      7  C   UNL     1     -35.176  25.857   3.111  0.00  0.00    +0.148 C 
BRANCH   7   9
ATOM      8  O   UNL     1     -35.687  28.100   2.302  0.00  0.00    -0.250 OA
ATOM      9  C   UNL     1     -35.146  27.373   3.125  0.00  0.00    +0.320 C 
BRANCH   9  10
ATOM     10  O   UNL     1     -34.394  27.792   4.186  0.00  0.00    -0.444 OA
ATOM     11  C   UNL     1     -33.057  27.286   4.233  0.00  0.00    +0.256 C 
ENDBRANCH   9  10
ENDBRANCH   7   9
ENDBRANCH   1   7
BRANCH   1  12
ATOM     12  C   UNL     1     -37.349  24.525   3.130  0.00  0.00    +0.148 C 
BRANCH  12  14
ATOM     13  O   UNL     1     -39.670  24.683   3.789  0.00  0.00    -0.250 OA
ATOM     14  C   UNL     1     -38.710  25.178   3.215  0.00  0.00    +0.320 C 
BRANCH  14  15
ATOM     15  O   UNL     1     -38.688  26.387   2.583  0.00  0.00    -0.444 OA
ATOM     16  C   UNL     1     -38.570  26.335   1.158  0.00  0.00    +0.256 C 
ENDBRANCH  14  15
ENDBRANCH  12  14
ENDBRANCH   1  12
TORSDOF 8
ENDMDL
