MODEL 1
REMARK VINA RESULT:      -5.6      0.000      0.000
REMARK  Name = 5484182
REMARK  10 active torsions:
REMARK  status: ('A' for Active; 'I' for Inactive)
REMARK    1  A    between atoms: N_1  and  C_3
REMARK    2  A    between atoms: N_1  and  C_15
REMARK    3  A    between atoms: C_4  and  N_12
REMARK    4  A    between atoms: C_8  and  N_11
REMARK    5  A    between atoms: C_15  and  C_16
REMARK    6  A    between atoms: C_15  and  C_19
REMARK    7  A    between atoms: C_15  and  C_22
REMARK    8  A    between atoms: C_16  and  O_17
REMARK    9  A    between atoms: C_19  and  O_20
REMARK   10  A    between atoms: C_22  and  O_23
REMARK                            x       y       z     vdW  Elec       q    Type
REMARK                         _______ _______ _______ _____ _____    ______ ____
ROOT
ATOM      1  N   UNL     1     -37.115  22.476   3.591  0.00  0.00    -0.329 N 
ATOM      2  H   UNL     1     -37.515  21.871   4.256  0.00  0.00    +0.147 HD
ENDROOT
BRANCH   1   3
ATOM      3  C   UNL     1     -36.311  23.502   4.036  0.00  0.00    +0.058 C 
ATOM      4  C   UNL     1     -36.827  24.780   4.346  0.00  0.00    +0.056 C 
ATOM      5  C   UNL     1     -34.923  23.302   4.197  0.00  0.00    +0.017 C 
ATOM      6  C   UNL     1     -35.996  25.807   4.795  0.00  0.00    +0.039 C 
ATOM      7  C   UNL     1     -34.091  24.327   4.647  0.00  0.00    +0.025 C 
ATOM      8  C   UNL     1     -34.627  25.580   4.946  0.00  0.00    +0.144 C 
BRANCH   8  11
ATOM      9  O   UNL     1     -33.243  26.520   6.533  0.00  0.00    -0.126 OA
ATOM     10  O   UNL     1     -33.589  27.619   4.664  0.00  0.00    -0.126 OA
ATOM     11  N   UNL     1     -33.780  26.623   5.403  0.00  0.00    +0.058 N 
ENDBRANCH   8  11
BRANCH   4  12
ATOM     12  N   UNL     1     -38.211  25.032   4.201  0.00  0.00    -0.356 N 
ATOM     13  H   UNL     1     -38.756  24.458   3.617  0.00  0.00    +0.142 HD
ATOM     14  H   UNL     1     -38.628  25.781   4.685  0.00  0.00    +0.142 HD
ENDBRANCH   4  12
ENDBRANCH   1   3
BRANCH   1  15
ATOM     15  C   UNL     1     -37.403  22.241   2.180  0.00  0.00    +0.136 C 
BRANCH  15  16
ATOM     16  C   UNL     1     -36.813  23.415   1.375  0.00  0.00    +0.160 C 
BRANCH  16  17
ATOM     17  O   UNL     1     -37.824  24.353   1.026  0.00  0.00    -0.380 OA
ATOM     18  H   UNL     1     -37.497  24.936   0.323  0.00  0.00    +0.211 HD
ENDBRANCH  16  17
ENDBRANCH  15  16
BRANCH  15  19
ATOM     19  C   UNL     1     -36.740  20.909   1.770  0.00  0.00    +0.160 C 
BRANCH  19  20
ATOM     20  O   UNL     1     -36.727  19.968   2.839  0.00  0.00    -0.380 OA
ATOM     21  H   UNL     1     -36.000  20.177   3.445  0.00  0.00    +0.211 HD
ENDBRANCH  19  20
ENDBRANCH  15  19
BRANCH  15  22
ATOM     22  C   UNL     1     -38.934  22.175   2.009  0.00  0.00    +0.160 C 
BRANCH  22  23
ATOM     23  O   UNL     1     -39.422  20.870   2.301  0.00  0.00    -0.380 OA
ATOM     24  H   UNL     1     -40.208  20.937   2.866  0.00  0.00    +0.211 HD
ENDBRANCH  22  23
ENDBRANCH  15  22
ENDBRANCH   1  15
TORSDOF 10
ENDMDL
MODEL 2
REMARK VINA RESULT:      -5.6      0.520      2.043
REMARK  Name = 5484182
REMARK  10 active torsions:
REMARK  status: ('A' for Active; 'I' for Inactive)
REMARK    1  A    between atoms: N_1  and  C_3
REMARK    2  A    between atoms: N_1  and  C_15
REMARK    3  A    between atoms: C_4  and  N_12
REMARK    4  A    between atoms: C_8  and  N_11
REMARK    5  A    between atoms: C_15  and  C_16
REMARK    6  A    between atoms: C_15  and  C_19
REMARK    7  A    between atoms: C_15  and  C_22
REMARK    8  A    between atoms: C_16  and  O_17
REMARK    9  A    between atoms: C_19  and  O_20
REMARK   10  A    between atoms: C_22  and  O_23
REMARK                            x       y       z     vdW  Elec       q    Type
REMARK                         _______ _______ _______ _____ _____    ______ ____
ROOT
ATOM      1  N   UNL     1     -37.072  22.515   3.666  0.00  0.00    -0.329 N 
ATOM      2  H   UNL     1     -37.622  22.028   4.321  0.00  0.00    +0.147 HD
ENDROOT
BRANCH   1   3
ATOM      3  C   UNL     1     -36.289  23.558   4.113  0.00  0.00    +0.058 C 
ATOM      4  C   UNL     1     -36.814  24.852   4.327  0.00  0.00    +0.056 C 
ATOM      5  C   UNL     1     -34.917  23.358   4.374  0.00  0.00    +0.017 C 
ATOM      6  C   UNL     1     -36.005  25.895   4.779  0.00  0.00    +0.039 C 
ATOM      7  C   UNL     1     -34.107  24.401   4.828  0.00  0.00    +0.025 C 
ATOM      8  C   UNL     1     -34.651  25.669   5.030  0.00  0.00    +0.144 C 
BRANCH   8  11
ATOM      9  O   UNL     1     -33.435  26.720   6.683  0.00  0.00    -0.126 OA
ATOM     10  O   UNL     1     -33.511  27.644   4.692  0.00  0.00    -0.126 OA
ATOM     11  N   UNL     1     -33.827  26.728   5.491  0.00  0.00    +0.058 N 
ENDBRANCH   8  11
BRANCH   4  12
ATOM     12  N   UNL     1     -38.183  25.103   4.079  0.00  0.00    -0.356 N 
ATOM     13  H   UNL     1     -38.540  25.027   3.165  0.00  0.00    +0.142 HD
ATOM     14  H   UNL     1     -38.779  25.354   4.822  0.00  0.00    +0.142 HD
ENDBRANCH   4  12
ENDBRANCH   1   3
BRANCH   1  15
ATOM     15  C   UNL     1     -37.124  22.097   2.269  0.00  0.00    +0.136 C 
BRANCH  15  16
ATOM     16  C   UNL     1     -36.242  20.842   2.118  0.00  0.00    +0.160 C 
BRANCH  16  17
ATOM     17  O   UNL     1     -36.907  19.689   2.620  0.00  0.00    -0.380 OA
ATOM     18  H   UNL     1     -36.476  18.891   2.277  0.00  0.00    +0.211 HD
ENDBRANCH  16  17
ENDBRANCH  15  16
BRANCH  15  19
ATOM     19  C   UNL     1     -38.593  21.778   1.918  0.00  0.00    +0.160 C 
BRANCH  19  20
ATOM     20  O   UNL     1     -39.493  22.731   2.474  0.00  0.00    -0.380 OA
ATOM     21  H   UNL     1     -39.057  23.596   2.528  0.00  0.00    +0.211 HD
ENDBRANCH  19  20
ENDBRANCH  15  19
BRANCH  15  22
ATOM     22  C   UNL     1     -36.585  23.253   1.403  0.00  0.00    +0.160 C 
BRANCH  22  23
ATOM     23  O   UNL     1     -37.640  24.117   0.996  0.00  0.00    -0.380 OA
ATOM     24  H   UNL     1     -37.295  25.018   0.884  0.00  0.00    +0.211 HD
ENDBRANCH  22  23
ENDBRANCH  15  22
ENDBRANCH   1  15
TORSDOF 10
ENDMDL
MODEL 3
REMARK VINA RESULT:      -5.6      0.512      1.942
REMARK  Name = 5484182
REMARK  10 active torsions:
REMARK  status: ('A' for Active; 'I' for Inactive)
REMARK    1  A    between atoms: N_1  and  C_3
REMARK    2  A    between atoms: N_1  and  C_15
REMARK    3  A    between atoms: C_4  and  N_12
REMARK    4  A    between atoms: C_8  and  N_11
REMARK    5  A    between atoms: C_15  and  C_16
REMARK    6  A    between atoms: C_15  and  C_19
REMARK    7  A    between atoms: C_15  and  C_22
REMARK    8  A    between atoms: C_16  and  O_17
REMARK    9  A    between atoms: C_19  and  O_20
REMARK   10  A    between atoms: C_22  and  O_23
REMARK                            x       y       z     vdW  Elec       q    Type
REMARK                         _______ _______ _______ _____ _____    ______ ____
ROOT
ATOM      1  N   UNL     1     -37.083  22.509   3.640  0.00  0.00    -0.329 N 
ATOM      2  H   UNL     1     -37.618  22.006   4.296  0.00  0.00    +0.147 HD
ENDROOT
BRANCH   1   3
ATOM      3  C   UNL     1     -36.303  23.552   4.092  0.00  0.00    +0.058 C 
ATOM      4  C   UNL     1     -36.833  24.841   4.323  0.00  0.00    +0.056 C 
ATOM      5  C   UNL     1     -34.927  23.357   4.338  0.00  0.00    +0.017 C 
ATOM      6  C   UNL     1     -36.026  25.883   4.780  0.00  0.00    +0.039 C 
ATOM      7  C   UNL     1     -34.119  24.399   4.796  0.00  0.00    +0.025 C 
ATOM      8  C   UNL     1     -34.669  25.662   5.016  0.00  0.00    +0.144 C 
BRANCH   8  11
ATOM      9  O   UNL     1     -33.552  27.654   4.694  0.00  0.00    -0.126 OA
ATOM     10  O   UNL     1     -33.439  26.699   6.668  0.00  0.00    -0.126 OA
ATOM     11  N   UNL     1     -33.847  26.722   5.481  0.00  0.00    +0.058 N 
ENDBRANCH   8  11
BRANCH   4  12
ATOM     12  N   UNL     1     -38.206  25.086   4.090  0.00  0.00    -0.356 N 
ATOM     13  H   UNL     1     -38.872  24.396   4.307  0.00  0.00    +0.142 HD
ATOM     14  H   UNL     1     -38.494  25.948   3.711  0.00  0.00    +0.142 HD
ENDBRANCH   4  12
ENDBRANCH   1   3
BRANCH   1  15
ATOM     15  C   UNL     1     -37.154  22.113   2.238  0.00  0.00    +0.136 C 
BRANCH  15  16
ATOM     16  C   UNL     1     -38.629  21.807   1.908  0.00  0.00    +0.160 C 
BRANCH  16  17
ATOM     17  O   UNL     1     -39.494  22.767   2.502  0.00  0.00    -0.380 OA
ATOM     18  H   UNL     1     -39.528  23.561   1.947  0.00  0.00    +0.211 HD
ENDBRANCH  16  17
ENDBRANCH  15  16
BRANCH  15  19
ATOM     19  C   UNL     1     -36.635  23.286   1.380  0.00  0.00    +0.160 C 
BRANCH  19  20
ATOM     20  O   UNL     1     -37.684  24.166   0.989  0.00  0.00    -0.380 OA
ATOM     21  H   UNL     1     -37.902  24.757   1.727  0.00  0.00    +0.211 HD
ENDBRANCH  19  20
ENDBRANCH  15  19
BRANCH  15  22
ATOM     22  C   UNL     1     -36.280  20.858   2.051  0.00  0.00    +0.160 C 
BRANCH  22  23
ATOM     23  O   UNL     1     -36.896  19.717   2.639  0.00  0.00    -0.380 OA
ATOM     24  H   UNL     1     -36.214  19.072   2.885  0.00  0.00    +0.211 HD
ENDBRANCH  22  23
ENDBRANCH  15  22
ENDBRANCH   1  15
TORSDOF 10
ENDMDL
MODEL 4
REMARK VINA RESULT:      -5.0      2.692      5.552
REMARK  Name = 5484182
REMARK  10 active torsions:
REMARK  status: ('A' for Active; 'I' for Inactive)
REMARK    1  A    between atoms: N_1  and  C_3
REMARK    2  A    between atoms: N_1  and  C_15
REMARK    3  A    between atoms: C_4  and  N_12
REMARK    4  A    between atoms: C_8  and  N_11
REMARK    5  A    between atoms: C_15  and  C_16
REMARK    6  A    between atoms: C_15  and  C_19
REMARK    7  A    between atoms: C_15  and  C_22
REMARK    8  A    between atoms: C_16  and  O_17
REMARK    9  A    between atoms: C_19  and  O_20
REMARK   10  A    between atoms: C_22  and  O_23
REMARK                            x       y       z     vdW  Elec       q    Type
REMARK                         _______ _______ _______ _____ _____    ______ ____
ROOT
ATOM      1  N   UNL     1     -35.448  27.536   3.793  0.00  0.00    -0.329 N 
ATOM      2  H   UNL     1     -35.959  28.199   4.311  0.00  0.00    +0.147 HD
ENDROOT
BRANCH   1   3
ATOM      3  C   UNL     1     -35.475  26.221   4.203  0.00  0.00    +0.058 C 
ATOM      4  C   UNL     1     -34.673  25.748   5.265  0.00  0.00    +0.056 C 
ATOM      5  C   UNL     1     -36.321  25.292   3.559  0.00  0.00    +0.017 C 
ATOM      6  C   UNL     1     -34.715  24.412   5.664  0.00  0.00    +0.039 C 
ATOM      7  C   UNL     1     -36.365  23.955   3.959  0.00  0.00    +0.025 C 
ATOM      8  C   UNL     1     -35.562  23.516   5.011  0.00  0.00    +0.144 C 
BRANCH   8  11
ATOM      9  O   UNL     1     -35.261  21.266   4.601  0.00  0.00    -0.126 OA
ATOM     10  O   UNL     1     -35.987  21.881   6.580  0.00  0.00    -0.126 OA
ATOM     11  N   UNL     1     -35.606  22.156   5.416  0.00  0.00    +0.058 N 
ENDBRANCH   8  11
BRANCH   4  12
ATOM     12  N   UNL     1     -33.809  26.640   5.941  0.00  0.00    -0.356 N 
ATOM     13  H   UNL     1     -32.976  26.938   5.511  0.00  0.00    +0.142 HD
ATOM     14  H   UNL     1     -34.041  26.962   6.842  0.00  0.00    +0.142 HD
ENDBRANCH   4  12
ENDBRANCH   1   3
BRANCH   1  15
ATOM     15  C   UNL     1     -34.698  27.995   2.629  0.00  0.00    +0.136 C 
BRANCH  15  16
ATOM     16  C   UNL     1     -34.280  29.457   2.882  0.00  0.00    +0.160 C 
BRANCH  16  17
ATOM     17  O   UNL     1     -35.357  30.207   3.433  0.00  0.00    -0.380 OA
ATOM     18  H   UNL     1     -35.918  30.543   2.717  0.00  0.00    +0.211 HD
ENDBRANCH  16  17
ENDBRANCH  15  16
BRANCH  15  19
ATOM     19  C   UNL     1     -33.457  27.092   2.469  0.00  0.00    +0.160 C 
BRANCH  19  20
ATOM     20  O   UNL     1     -32.366  27.541   3.266  0.00  0.00    -0.380 OA
ATOM     21  H   UNL     1     -32.558  28.427   3.610  0.00  0.00    +0.211 HD
ENDBRANCH  19  20
ENDBRANCH  15  19
BRANCH  15  22
ATOM     22  C   UNL     1     -35.619  27.895   1.397  0.00  0.00    +0.160 C 
BRANCH  22  23
ATOM     23  O   UNL     1     -36.938  28.329   1.712  0.00  0.00    -0.380 OA
ATOM     24  H   UNL     1     -36.988  28.553   2.655  0.00  0.00    +0.211 HD
ENDBRANCH  22  23
ENDBRANCH  15  22
ENDBRANCH   1  15
TORSDOF 10
ENDMDL
MODEL 5
REMARK VINA RESULT:      -5.0      2.704      5.796
REMARK  Name = 5484182
REMARK  10 active torsions:
REMARK  status: ('A' for Active; 'I' for Inactive)
REMARK    1  A    between atoms: N_1  and  C_3
REMARK    2  A    between atoms: N_1  and  C_15
REMARK    3  A    between atoms: C_4  and  N_12
REMARK    4  A    between atoms: C_8  and  N_11
REMARK    5  A    between atoms: C_15  and  C_16
REMARK    6  A    between atoms: C_15  and  C_19
REMARK    7  A    between atoms: C_15  and  C_22
REMARK    8  A    between atoms: C_16  and  O_17
REMARK    9  A    between atoms: C_19  and  O_20
REMARK   10  A    between atoms: C_22  and  O_23
REMARK                            x       y       z     vdW  Elec       q    Type
REMARK                         _______ _______ _______ _____ _____    ______ ____
ROOT
ATOM      1  N   UNL     1     -35.375  27.554   3.853  0.00  0.00    -0.329 N 
ATOM      2  H   UNL     1     -35.840  28.228   4.400  0.00  0.00    +0.147 HD
ENDROOT
BRANCH   1   3
ATOM      3  C   UNL     1     -35.421  26.236   4.254  0.00  0.00    +0.058 C 
ATOM      4  C   UNL     1     -34.627  25.747   5.316  0.00  0.00    +0.056 C 
ATOM      5  C   UNL     1     -36.277  25.323   3.604  0.00  0.00    +0.017 C 
ATOM      6  C   UNL     1     -34.687  24.410   5.706  0.00  0.00    +0.039 C 
ATOM      7  C   UNL     1     -36.339  23.984   3.995  0.00  0.00    +0.025 C 
ATOM      8  C   UNL     1     -35.544  23.528   5.046  0.00  0.00    +0.144 C 
BRANCH   8  11
ATOM      9  O   UNL     1     -36.034  21.886   6.589  0.00  0.00    -0.126 OA
ATOM     10  O   UNL     1     -35.235  21.280   4.635  0.00  0.00    -0.126 OA
ATOM     11  N   UNL     1     -35.607  22.167   5.443  0.00  0.00    +0.058 N 
ENDBRANCH   8  11
BRANCH   4  12
ATOM     12  N   UNL     1     -33.753  26.623   5.999  0.00  0.00    -0.356 N 
ATOM     13  H   UNL     1     -33.990  26.956   6.893  0.00  0.00    +0.142 HD
ATOM     14  H   UNL     1     -32.906  26.899   5.578  0.00  0.00    +0.142 HD
ENDBRANCH   4  12
ENDBRANCH   1   3
BRANCH   1  15
ATOM     15  C   UNL     1     -34.673  28.001   2.655  0.00  0.00    +0.136 C 
BRANCH  15  16
ATOM     16  C   UNL     1     -35.619  27.812   1.453  0.00  0.00    +0.160 C 
BRANCH  16  17
ATOM     17  O   UNL     1     -36.914  28.329   1.738  0.00  0.00    -0.380 OA
ATOM     18  H   UNL     1     -37.429  28.384   0.919  0.00  0.00    +0.211 HD
ENDBRANCH  16  17
ENDBRANCH  15  16
BRANCH  15  19
ATOM     19  C   UNL     1     -34.311  29.490   2.837  0.00  0.00    +0.160 C 
BRANCH  19  20
ATOM     20  O   UNL     1     -35.379  30.230   3.420  0.00  0.00    -0.380 OA
ATOM     21  H   UNL     1     -35.947  30.586   2.719  0.00  0.00    +0.211 HD
ENDBRANCH  19  20
ENDBRANCH  15  19
BRANCH  15  22
ATOM     22  C   UNL     1     -33.406  27.138   2.494  0.00  0.00    +0.160 C 
BRANCH  22  23
ATOM     23  O   UNL     1     -32.370  27.589   3.360  0.00  0.00    -0.380 OA
ATOM     24  H   UNL     1     -31.514  27.513   2.908  0.00  0.00    +0.211 HD
ENDBRANCH  22  23
ENDBRANCH  15  22
ENDBRANCH   1  15
TORSDOF 10
ENDMDL
MODEL 6
REMARK VINA RESULT:      -5.0      2.512      4.741
REMARK  Name = 5484182
REMARK  10 active torsions:
REMARK  status: ('A' for Active; 'I' for Inactive)
REMARK    1  A    between atoms: N_1  and  C_3
REMARK    2  A    between atoms: N_1  and  C_15
REMARK    3  A    between atoms: C_4  and  N_12
REMARK    4  A    between atoms: C_8  and  N_11
REMARK    5  A    between atoms: C_15  and  C_16
REMARK    6  A    between atoms: C_15  and  C_19
REMARK    7  A    between atoms: C_15  and  C_22
REMARK    8  A    between atoms: C_16  and  O_17
REMARK    9  A    between atoms: C_19  and  O_20
REMARK   10  A    between atoms: C_22  and  O_23
REMARK                            x       y       z     vdW  Elec       q    Type
REMARK                         _______ _______ _______ _____ _____    ______ ____
ROOT
ATOM      1  N   UNL     1     -37.288  22.443   3.392  0.00  0.00    -0.329 N 
ATOM      2  H   UNL     1     -37.882  21.898   3.957  0.00  0.00    +0.147 HD
ENDROOT
BRANCH   1   3
ATOM      3  C   UNL     1     -37.824  23.525   2.728  0.00  0.00    +0.058 C 
ATOM      4  C   UNL     1     -37.891  24.808   3.315  0.00  0.00    +0.056 C 
ATOM      5  C   UNL     1     -38.332  23.377   1.420  0.00  0.00    +0.017 C 
ATOM      6  C   UNL     1     -38.438  25.890   2.626  0.00  0.00    +0.039 C 
ATOM      7  C   UNL     1     -38.879  24.460   0.729  0.00  0.00    +0.025 C 
ATOM      8  C   UNL     1     -38.933  25.716   1.333  0.00  0.00    +0.144 C 
BRANCH   8  11
ATOM      9  O   UNL     1     -40.594  26.673   0.052  0.00  0.00    -0.126 OA
ATOM     10  O   UNL     1     -38.863  27.904   0.609  0.00  0.00    -0.126 OA
ATOM     11  N   UNL     1     -39.489  26.816   0.630  0.00  0.00    +0.058 N 
ENDBRANCH   8  11
BRANCH   4  12
ATOM     12  N   UNL     1     -37.396  25.007   4.624  0.00  0.00    -0.356 N 
ATOM     13  H   UNL     1     -36.946  25.850   4.857  0.00  0.00    +0.142 HD
ATOM     14  H   UNL     1     -37.502  24.301   5.302  0.00  0.00    +0.142 HD
ENDBRANCH   4  12
ENDBRANCH   1   3
BRANCH   1  15
ATOM     15  C   UNL     1     -35.882  22.064   3.299  0.00  0.00    +0.136 C 
BRANCH  15  16
ATOM     16  C   UNL     1     -35.380  21.758   4.724  0.00  0.00    +0.160 C 
BRANCH  16  17
ATOM     17  O   UNL     1     -36.180  22.416   5.699  0.00  0.00    -0.380 OA
ATOM     18  H   UNL     1     -36.163  23.373   5.541  0.00  0.00    +0.211 HD
ENDBRANCH  16  17
ENDBRANCH  15  16
BRANCH  15  19
ATOM     19  C   UNL     1     -35.779  20.812   2.403  0.00  0.00    +0.160 C 
BRANCH  19  20
ATOM     20  O   UNL     1     -36.776  19.846   2.720  0.00  0.00    -0.380 OA
ATOM     21  H   UNL     1     -37.648  20.188   2.472  0.00  0.00    +0.211 HD
ENDBRANCH  19  20
ENDBRANCH  15  19
BRANCH  15  22
ATOM     22  C   UNL     1     -35.107  23.249   2.689  0.00  0.00    +0.160 C 
BRANCH  22  23
ATOM     23  O   UNL     1     -34.499  24.037   3.708  0.00  0.00    -0.380 OA
ATOM     24  H   UNL     1     -34.803  24.955   3.631  0.00  0.00    +0.211 HD
ENDBRANCH  22  23
ENDBRANCH  15  22
ENDBRANCH   1  15
TORSDOF 10
ENDMDL
MODEL 7
REMARK VINA RESULT:      -5.0      1.076      1.680
REMARK  Name = 5484182
REMARK  10 active torsions:
REMARK  status: ('A' for Active; 'I' for Inactive)
REMARK    1  A    between atoms: N_1  and  C_3
REMARK    2  A    between atoms: N_1  and  C_15
REMARK    3  A    between atoms: C_4  and  N_12
REMARK    4  A    between atoms: C_8  and  N_11
REMARK    5  A    between atoms: C_15  and  C_16
REMARK    6  A    between atoms: C_15  and  C_19
REMARK    7  A    between atoms: C_15  and  C_22
REMARK    8  A    between atoms: C_16  and  O_17
REMARK    9  A    between atoms: C_19  and  O_20
REMARK   10  A    between atoms: C_22  and  O_23
REMARK                            x       y       z     vdW  Elec       q    Type
REMARK                         _______ _______ _______ _____ _____    ______ ____
ROOT
ATOM      1  N   UNL     1     -37.557  23.001   3.371  0.00  0.00    -0.329 N 
ATOM      2  H   UNL     1     -38.384  22.878   3.891  0.00  0.00    +0.147 HD
ENDROOT
BRANCH   1   3
ATOM      3  C   UNL     1     -36.581  23.832   3.877  0.00  0.00    +0.058 C 
ATOM      4  C   UNL     1     -35.788  23.470   4.988  0.00  0.00    +0.056 C 
ATOM      5  C   UNL     1     -36.344  25.093   3.288  0.00  0.00    +0.017 C 
ATOM      6  C   UNL     1     -34.806  24.327   5.486  0.00  0.00    +0.039 C 
ATOM      7  C   UNL     1     -35.361  25.950   3.784  0.00  0.00    +0.025 C 
ATOM      8  C   UNL     1     -34.592  25.567   4.883  0.00  0.00    +0.144 C 
BRANCH   8  11
ATOM      9  O   UNL     1     -32.758  26.934   4.592  0.00  0.00    -0.126 OA
ATOM     10  O   UNL     1     -33.573  26.695   6.617  0.00  0.00    -0.126 OA
ATOM     11  N   UNL     1     -33.593  26.440   5.388  0.00  0.00    +0.058 N 
ENDBRANCH   8  11
BRANCH   4  12
ATOM     12  N   UNL     1     -35.988  22.218   5.614  0.00  0.00    -0.356 N 
ATOM     13  H   UNL     1     -35.281  21.833   6.180  0.00  0.00    +0.142 HD
ATOM     14  H   UNL     1     -36.834  21.733   5.483  0.00  0.00    +0.142 HD
ENDBRANCH   4  12
ENDBRANCH   1   3
BRANCH   1  15
ATOM     15  C   UNL     1     -37.425  22.293   2.103  0.00  0.00    +0.136 C 
BRANCH  15  16
ATOM     16  C   UNL     1     -37.314  23.345   0.982  0.00  0.00    +0.160 C 
BRANCH  16  17
ATOM     17  O   UNL     1     -38.315  23.142  -0.008  0.00  0.00    -0.380 OA
ATOM     18  H   UNL     1     -38.217  23.804  -0.710  0.00  0.00    +0.211 HD
ENDBRANCH  16  17
ENDBRANCH  15  16
BRANCH  15  19
ATOM     19  C   UNL     1     -36.149  21.427   2.166  0.00  0.00    +0.160 C 
BRANCH  19  20
ATOM     20  O   UNL     1     -36.279  20.352   3.091  0.00  0.00    -0.380 OA
ATOM     21  H   UNL     1     -37.217  20.217   3.301  0.00  0.00    +0.211 HD
ENDBRANCH  19  20
ENDBRANCH  15  19
BRANCH  15  22
ATOM     22  C   UNL     1     -38.680  21.419   1.910  0.00  0.00    +0.160 C 
BRANCH  22  23
ATOM     23  O   UNL     1     -38.426  20.362   0.990  0.00  0.00    -0.380 OA
ATOM     24  H   UNL     1     -38.660  20.651   0.093  0.00  0.00    +0.211 HD
ENDBRANCH  22  23
ENDBRANCH  15  22
ENDBRANCH   1  15
TORSDOF 10
ENDMDL
MODEL 8
REMARK VINA RESULT:      -5.0      2.504      4.797
REMARK  Name = 5484182
REMARK  10 active torsions:
REMARK  status: ('A' for Active; 'I' for Inactive)
REMARK    1  A    between atoms: N_1  and  C_3
REMARK    2  A    between atoms: N_1  and  C_15
REMARK    3  A    between atoms: C_4  and  N_12
REMARK    4  A    between atoms: C_8  and  N_11
REMARK    5  A    between atoms: C_15  and  C_16
REMARK    6  A    between atoms: C_15  and  C_19
REMARK    7  A    between atoms: C_15  and  C_22
REMARK    8  A    between atoms: C_16  and  O_17
REMARK    9  A    between atoms: C_19  and  O_20
REMARK   10  A    between atoms: C_22  and  O_23
REMARK                            x       y       z     vdW  Elec       q    Type
REMARK                         _______ _______ _______ _____ _____    ______ ____
ROOT
ATOM      1  N   UNL     1     -37.268  22.477   3.398  0.00  0.00    -0.329 N 
ATOM      2  H   UNL     1     -37.872  21.940   3.960  0.00  0.00    +0.147 HD
ENDROOT
BRANCH   1   3
ATOM      3  C   UNL     1     -37.789  23.561   2.726  0.00  0.00    +0.058 C 
ATOM      4  C   UNL     1     -37.871  24.842   3.316  0.00  0.00    +0.056 C 
ATOM      5  C   UNL     1     -38.265  23.419   1.404  0.00  0.00    +0.017 C 
ATOM      6  C   UNL     1     -38.403  25.927   2.619  0.00  0.00    +0.039 C 
ATOM      7  C   UNL     1     -38.796  24.505   0.706  0.00  0.00    +0.025 C 
ATOM      8  C   UNL     1     -38.865  25.758   1.313  0.00  0.00    +0.144 C 
BRANCH   8  11
ATOM      9  O   UNL     1     -38.902  27.180  -0.502  0.00  0.00    -0.126 OA
ATOM     10  O   UNL     1     -40.375  27.487   1.097  0.00  0.00    -0.126 OA
ATOM     11  N   UNL     1     -39.406  26.861   0.602  0.00  0.00    +0.058 N 
ENDBRANCH   8  11
BRANCH   4  12
ATOM     12  N   UNL     1     -37.409  25.036   4.638  0.00  0.00    -0.356 N 
ATOM     13  H   UNL     1     -38.046  25.258   5.354  0.00  0.00    +0.142 HD
ATOM     14  H   UNL     1     -36.449  24.947   4.841  0.00  0.00    +0.142 HD
ENDBRANCH   4  12
ENDBRANCH   1   3
BRANCH   1  15
ATOM     15  C   UNL     1     -35.866  22.085   3.317  0.00  0.00    +0.136 C 
BRANCH  15  16
ATOM     16  C   UNL     1     -35.772  20.850   2.399  0.00  0.00    +0.160 C 
BRANCH  16  17
ATOM     17  O   UNL     1     -36.747  19.876   2.753  0.00  0.00    -0.380 OA
ATOM     18  H   UNL     1     -37.135  19.499   1.949  0.00  0.00    +0.211 HD
ENDBRANCH  16  17
ENDBRANCH  15  16
BRANCH  15  19
ATOM     19  C   UNL     1     -35.069  23.267   2.726  0.00  0.00    +0.160 C 
BRANCH  19  20
ATOM     20  O   UNL     1     -34.502  24.088   3.741  0.00  0.00    -0.380 OA
ATOM     21  H   UNL     1     -33.891  24.725   3.339  0.00  0.00    +0.211 HD
ENDBRANCH  19  20
ENDBRANCH  15  19
BRANCH  15  22
ATOM     22  C   UNL     1     -35.381  21.746   4.740  0.00  0.00    +0.160 C 
BRANCH  22  23
ATOM     23  O   UNL     1     -36.178  22.405   5.719  0.00  0.00    -0.380 OA
ATOM     24  H   UNL     1     -37.023  21.937   5.817  0.00  0.00    +0.211 HD
ENDBRANCH  22  23
ENDBRANCH  15  22
ENDBRANCH   1  15
TORSDOF 10
ENDMDL
MODEL 9
REMARK VINA RESULT:      -4.9      2.807      5.508
REMARK  Name = 5484182
REMARK  10 active torsions:
REMARK  status: ('A' for Active; 'I' for Inactive)
REMARK    1  A    between atoms: N_1  and  C_3
REMARK    2  A    between atoms: N_1  and  C_15
REMARK    3  A    between atoms: C_4  and  N_12
REMARK    4  A    between atoms: C_8  and  N_11
REMARK    5  A    between atoms: C_15  and  C_16
REMARK    6  A    between atoms: C_15  and  C_19
REMARK    7  A    between atoms: C_15  and  C_22
REMARK    8  A    between atoms: C_16  and  O_17
REMARK    9  A    between atoms: C_19  and  O_20
REMARK   10  A    between atoms: C_22  and  O_23
REMARK                            x       y       z     vdW  Elec       q    Type
REMARK                         _______ _______ _______ _____ _____    ______ ____
ROOT
ATOM      1  N   UNL     1     -35.167  27.613   4.005  0.00  0.00    -0.329 N 
ATOM      2  H   UNL     1     -35.516  28.295   4.623  0.00  0.00    +0.147 HD
ENDROOT
BRANCH   1   3
ATOM      3  C   UNL     1     -35.287  26.286   4.358  0.00  0.00    +0.058 C 
ATOM      4  C   UNL     1     -36.495  25.572   4.195  0.00  0.00    +0.056 C 
ATOM      5  C   UNL     1     -34.186  25.591   4.902  0.00  0.00    +0.017 C 
ATOM      6  C   UNL     1     -36.597  24.229   4.558  0.00  0.00    +0.039 C 
ATOM      7  C   UNL     1     -34.286  24.247   5.265  0.00  0.00    +0.025 C 
ATOM      8  C   UNL     1     -35.492  23.567   5.093  0.00  0.00    +0.144 C 
BRANCH   8  11
ATOM      9  O   UNL     1     -35.261  21.318   4.634  0.00  0.00    -0.126 OA
ATOM     10  O   UNL     1     -36.011  21.910   6.611  0.00  0.00    -0.126 OA
ATOM     11  N   UNL     1     -35.593  22.200   5.463  0.00  0.00    +0.058 N 
ENDBRANCH   8  11
BRANCH   4  12
ATOM     12  N   UNL     1     -37.627  26.225   3.654  0.00  0.00    -0.356 N 
ATOM     13  H   UNL     1     -37.772  27.182   3.827  0.00  0.00    +0.142 HD
ATOM     14  H   UNL     1     -38.270  25.720   3.105  0.00  0.00    +0.142 HD
ENDBRANCH   4  12
ENDBRANCH   1   3
BRANCH   1  15
ATOM     15  C   UNL     1     -34.548  28.057   2.762  0.00  0.00    +0.136 C 
BRANCH  15  16
ATOM     16  C   UNL     1     -35.500  29.069   2.094  0.00  0.00    +0.160 C 
BRANCH  16  17
ATOM     17  O   UNL     1     -36.735  28.454   1.746  0.00  0.00    -0.380 OA
ATOM     18  H   UNL     1     -37.273  28.333   2.544  0.00  0.00    +0.211 HD
ENDBRANCH  16  17
ENDBRANCH  15  16
BRANCH  15  19
ATOM     19  C   UNL     1     -33.199  28.722   3.107  0.00  0.00    +0.160 C 
BRANCH  19  20
ATOM     20  O   UNL     1     -33.331  29.691   4.142  0.00  0.00    -0.380 OA
ATOM     21  H   UNL     1     -34.271  29.833   4.334  0.00  0.00    +0.211 HD
ENDBRANCH  19  20
ENDBRANCH  15  19
BRANCH  15  22
ATOM     22  C   UNL     1     -34.344  26.822   1.862  0.00  0.00    +0.160 C 
BRANCH  22  23
ATOM     23  O   UNL     1     -34.356  27.189   0.486  0.00  0.00    -0.380 OA
ATOM     24  H   UNL     1     -35.106  26.760   0.043  0.00  0.00    +0.211 HD
ENDBRANCH  22  23
ENDBRANCH  15  22
ENDBRANCH   1  15
TORSDOF 10
ENDMDL
