MODEL 1
REMARK VINA RESULT:      -6.4      0.000      0.000
REMARK  Name = 5742964
REMARK  6 active torsions:
REMARK  status: ('A' for Active; 'I' for Inactive)
REMARK    1  A    between atoms: N_1  and  C_6
REMARK    2  A    between atoms: N_1  and  N_16
REMARK    3  A    between atoms: N_2  and  C_7
REMARK    4  A    between atoms: N_2  and  N_24
REMARK    5  A    between atoms: N_16  and  C_19
REMARK    6  A    between atoms: N_24  and  C_27
REMARK                            x       y       z     vdW  Elec       q    Type
REMARK                         _______ _______ _______ _____ _____    ______ ____
ROOT
ATOM      1  C   UNL     1     -33.822  25.908   3.225  0.00  0.00    +0.085 C 
ATOM      2  C   UNL     1     -34.675  24.810   3.152  0.00  0.00    +0.004 C 
ATOM      3  C   UNL     1     -35.170  25.944   5.229  0.00  0.00    +0.032 C 
ATOM      4  C   UNL     1     -34.072  26.636   4.462  0.00  0.00    +0.078 C 
ATOM      5  C   UNL     1     -35.521  24.775   4.343  0.00  0.00    +0.089 C 
ATOM      6  C   UNL     1     -32.849  25.327   1.118  0.00  0.00    -0.004 C 
ATOM      7  C   UNL     1     -33.724  24.200   1.040  0.00  0.00    -0.001 C 
ATOM      8  C   UNL     1     -32.906  26.187   2.229  0.00  0.00    -0.016 C 
ATOM      9  C   UNL     1     -34.645  23.946   2.073  0.00  0.00    -0.002 C 
ATOM     10  C   UNL     1     -31.940  25.560   0.076  0.00  0.00    -0.000 C 
ATOM     11  C   UNL     1     -33.649  23.356  -0.078  0.00  0.00    -0.000 C 
ATOM     12  C   UNL     1     -31.885  24.706  -1.026  0.00  0.00    -0.000 C 
ATOM     13  C   UNL     1     -32.736  23.608  -1.103  0.00  0.00    -0.000 C 
ENDROOT
BRANCH   4  14
ATOM     14  N   UNL     1     -33.480  27.701   4.879  0.00  0.00    -0.118 NA
BRANCH  14  15
ATOM     15  N   UNL     1     -32.666  27.410   5.969  0.00  0.00    -0.125 NA
BRANCH  15  18
ATOM     16  N   UNL     1     -30.593  28.264   6.819  0.00  0.00    -0.369 N 
ATOM     17  N   UNL     1     -32.167  29.690   5.977  0.00  0.00    -0.369 N 
ATOM     18  C   UNL     1     -31.839  28.384   6.248  0.00  0.00    +0.210 C 
ATOM     19  H   UNL     1     -30.245  27.375   7.059  0.00  0.00    +0.159 HD
ATOM     20  H   UNL     1     -30.049  29.067   6.987  0.00  0.00    +0.159 HD
ATOM     21  H   UNL     1     -33.035  29.905   5.565  0.00  0.00    +0.159 HD
ATOM     22  H   UNL     1     -31.533  30.412   6.193  0.00  0.00    +0.159 HD
ENDBRANCH  15  18
ENDBRANCH  14  15
ENDBRANCH   4  14
BRANCH   5  23
ATOM     23  N   UNL     1     -36.432  23.911   4.630  0.00  0.00    -0.115 NA
BRANCH  23  24
ATOM     24  N   UNL     1     -36.044  23.141   5.722  0.00  0.00    -0.124 NA
BRANCH  24  27
ATOM     25  N   UNL     1     -35.786  21.303   4.205  0.00  0.00    -0.369 N 
ATOM     26  N   UNL     1     -34.624  21.345   6.172  0.00  0.00    -0.369 N 
ATOM     27  C   UNL     1     -35.526  21.995   5.366  0.00  0.00    +0.210 C 
ATOM     28  H   UNL     1     -36.420  21.669   3.545  0.00  0.00    +0.159 HD
ATOM     29  H   UNL     1     -35.340  20.443   4.034  0.00  0.00    +0.159 HD
ATOM     30  H   UNL     1     -34.357  21.741   7.033  0.00  0.00    +0.159 HD
ATOM     31  H   UNL     1     -34.243  20.482   5.889  0.00  0.00    +0.159 HD
ENDBRANCH  24  27
ENDBRANCH  23  24
ENDBRANCH   5  23
TORSDOF 6
ENDMDL
MODEL 2
REMARK VINA RESULT:      -6.4      0.106      5.052
REMARK  Name = 5742964
REMARK  6 active torsions:
REMARK  status: ('A' for Active; 'I' for Inactive)
REMARK    1  A    between atoms: N_1  and  C_6
REMARK    2  A    between atoms: N_1  and  N_16
REMARK    3  A    between atoms: N_2  and  C_7
REMARK    4  A    between atoms: N_2  and  N_24
REMARK    5  A    between atoms: N_16  and  C_19
REMARK    6  A    between atoms: N_24  and  C_27
REMARK                            x       y       z     vdW  Elec       q    Type
REMARK                         _______ _______ _______ _____ _____    ______ ____
ROOT
ATOM      1  C   UNL     1     -34.651  24.823   3.200  0.00  0.00    +0.085 C 
ATOM      2  C   UNL     1     -33.778  25.904   3.285  0.00  0.00    +0.004 C 
ATOM      3  C   UNL     1     -35.105  25.914   5.306  0.00  0.00    +0.032 C 
ATOM      4  C   UNL     1     -35.484  24.774   4.395  0.00  0.00    +0.078 C 
ATOM      5  C   UNL     1     -34.005  26.610   4.545  0.00  0.00    +0.089 C 
ATOM      6  C   UNL     1     -33.751  24.230   1.065  0.00  0.00    -0.004 C 
ATOM      7  C   UNL     1     -32.854  25.338   1.150  0.00  0.00    -0.001 C 
ATOM      8  C   UNL     1     -34.658  23.976   2.109  0.00  0.00    -0.016 C 
ATOM      9  C   UNL     1     -32.874  26.180   2.277  0.00  0.00    -0.002 C 
ATOM     10  C   UNL     1     -33.712  23.404  -0.068  0.00  0.00    -0.000 C 
ATOM     11  C   UNL     1     -31.958  25.571   0.096  0.00  0.00    -0.000 C 
ATOM     12  C   UNL     1     -32.811  23.656  -1.104  0.00  0.00    -0.000 C 
ATOM     13  C   UNL     1     -31.937  24.736  -1.022  0.00  0.00    -0.000 C 
ENDROOT
BRANCH   4  14
ATOM     14  N   UNL     1     -36.405  23.920   4.676  0.00  0.00    -0.118 NA
BRANCH  14  15
ATOM     15  N   UNL     1     -36.025  23.134   5.760  0.00  0.00    -0.125 NA
BRANCH  15  18
ATOM     16  N   UNL     1     -35.749  21.321   4.215  0.00  0.00    -0.369 N 
ATOM     17  N   UNL     1     -34.599  21.336   6.190  0.00  0.00    -0.369 N 
ATOM     18  C   UNL     1     -35.499  21.995   5.389  0.00  0.00    +0.210 C 
ATOM     19  H   UNL     1     -36.379  21.694   3.557  0.00  0.00    +0.159 HD
ATOM     20  H   UNL     1     -35.297  20.465   4.034  0.00  0.00    +0.159 HD
ATOM     21  H   UNL     1     -34.338  21.721   7.058  0.00  0.00    +0.159 HD
ATOM     22  H   UNL     1     -34.213  20.480   5.895  0.00  0.00    +0.159 HD
ENDBRANCH  15  18
ENDBRANCH  14  15
ENDBRANCH   4  14
BRANCH   5  23
ATOM     23  N   UNL     1     -33.391  27.656   4.977  0.00  0.00    -0.115 NA
BRANCH  23  24
ATOM     24  N   UNL     1     -32.441  27.303   5.931  0.00  0.00    -0.124 NA
BRANCH  24  27
ATOM     25  N   UNL     1     -30.406  28.236   6.788  0.00  0.00    -0.369 N 
ATOM     26  N   UNL     1     -32.118  29.605   6.140  0.00  0.00    -0.369 N 
ATOM     27  C   UNL     1     -31.681  28.309   6.273  0.00  0.00    +0.210 C 
ATOM     28  H   UNL     1     -29.982  27.358   6.930  0.00  0.00    +0.159 HD
ATOM     29  H   UNL     1     -29.918  29.061   7.013  0.00  0.00    +0.159 HD
ATOM     30  H   UNL     1     -33.016  29.787   5.783  0.00  0.00    +0.159 HD
ATOM     31  H   UNL     1     -31.532  30.351   6.403  0.00  0.00    +0.159 HD
ENDBRANCH  24  27
ENDBRANCH  23  24
ENDBRANCH   5  23
TORSDOF 6
ENDMDL
MODEL 3
REMARK VINA RESULT:      -6.3      3.201      6.939
REMARK  Name = 5742964
REMARK  6 active torsions:
REMARK  status: ('A' for Active; 'I' for Inactive)
REMARK    1  A    between atoms: N_1  and  C_6
REMARK    2  A    between atoms: N_1  and  N_16
REMARK    3  A    between atoms: N_2  and  C_7
REMARK    4  A    between atoms: N_2  and  N_24
REMARK    5  A    between atoms: N_16  and  C_19
REMARK    6  A    between atoms: N_24  and  C_27
REMARK                            x       y       z     vdW  Elec       q    Type
REMARK                         _______ _______ _______ _____ _____    ______ ____
ROOT
ATOM      1  C   UNL     1     -36.742  22.944   3.535  0.00  0.00    +0.085 C 
ATOM      2  C   UNL     1     -36.555  24.194   4.119  0.00  0.00    +0.004 C 
ATOM      3  C   UNL     1     -34.695  22.812   4.809  0.00  0.00    +0.032 C 
ATOM      4  C   UNL     1     -35.648  22.060   3.915  0.00  0.00    +0.078 C 
ATOM      5  C   UNL     1     -35.325  24.178   4.909  0.00  0.00    +0.089 C 
ATOM      6  C   UNL     1     -38.766  23.698   2.507  0.00  0.00    -0.004 C 
ATOM      7  C   UNL     1     -38.576  24.981   3.104  0.00  0.00    -0.001 C 
ATOM      8  C   UNL     1     -37.831  22.671   2.730  0.00  0.00    -0.016 C 
ATOM      9  C   UNL     1     -37.454  25.224   3.919  0.00  0.00    -0.002 C 
ATOM     10  C   UNL     1     -39.892  23.480   1.699  0.00  0.00    -0.000 C 
ATOM     11  C   UNL     1     -39.522  25.990   2.868  0.00  0.00    -0.000 C 
ATOM     12  C   UNL     1     -40.819  24.500   1.477  0.00  0.00    -0.000 C 
ATOM     13  C   UNL     1     -40.635  25.750   2.060  0.00  0.00    -0.000 C 
ENDROOT
BRANCH   4  14
ATOM     14  N   UNL     1     -35.476  20.831   3.572  0.00  0.00    -0.118 NA
BRANCH  14  15
ATOM     15  N   UNL     1     -34.964  20.755   2.280  0.00  0.00    -0.125 NA
BRANCH  15  18
ATOM     16  N   UNL     1     -36.818  19.444   1.510  0.00  0.00    -0.369 N 
ATOM     17  N   UNL     1     -34.690  18.923   0.860  0.00  0.00    -0.369 N 
ATOM     18  C   UNL     1     -35.483  19.769   1.596  0.00  0.00    +0.210 C 
ATOM     19  H   UNL     1     -37.487  19.978   1.995  0.00  0.00    +0.159 HD
ATOM     20  H   UNL     1     -37.103  18.676   0.963  0.00  0.00    +0.159 HD
ATOM     21  H   UNL     1     -33.714  19.054   0.841  0.00  0.00    +0.159 HD
ATOM     22  H   UNL     1     -35.097  18.185   0.350  0.00  0.00    +0.159 HD
ENDBRANCH  15  18
ENDBRANCH  14  15
ENDBRANCH   4  14
BRANCH   5  23
ATOM     23  N   UNL     1     -34.822  25.147   5.592  0.00  0.00    -0.115 NA
BRANCH  23  24
ATOM     24  N   UNL     1     -33.655  25.609   4.994  0.00  0.00    -0.124 NA
BRANCH  24  27
ATOM     25  N   UNL     1     -34.476  27.573   3.891  0.00  0.00    -0.369 N 
ATOM     26  N   UNL     1     -32.854  27.744   5.492  0.00  0.00    -0.369 N 
ATOM     27  C   UNL     1     -33.677  26.900   4.787  0.00  0.00    +0.210 C 
ATOM     28  H   UNL     1     -35.111  27.074   3.325  0.00  0.00    +0.159 HD
ATOM     29  H   UNL     1     -34.413  28.552   3.814  0.00  0.00    +0.159 HD
ATOM     30  H   UNL     1     -32.235  27.380   6.164  0.00  0.00    +0.159 HD
ATOM     31  H   UNL     1     -32.884  28.714   5.324  0.00  0.00    +0.159 HD
ENDBRANCH  24  27
ENDBRANCH  23  24
ENDBRANCH   5  23
TORSDOF 6
ENDMDL
MODEL 4
REMARK VINA RESULT:      -6.3      3.254      4.952
REMARK  Name = 5742964
REMARK  6 active torsions:
REMARK  status: ('A' for Active; 'I' for Inactive)
REMARK    1  A    between atoms: N_1  and  C_6
REMARK    2  A    between atoms: N_1  and  N_16
REMARK    3  A    between atoms: N_2  and  C_7
REMARK    4  A    between atoms: N_2  and  N_24
REMARK    5  A    between atoms: N_16  and  C_19
REMARK    6  A    between atoms: N_24  and  C_27
REMARK                            x       y       z     vdW  Elec       q    Type
REMARK                         _______ _______ _______ _____ _____    ______ ____
ROOT
ATOM      1  C   UNL     1     -36.627  24.167   4.055  0.00  0.00    +0.085 C 
ATOM      2  C   UNL     1     -36.794  22.918   3.462  0.00  0.00    +0.004 C 
ATOM      3  C   UNL     1     -34.742  22.820   4.737  0.00  0.00    +0.032 C 
ATOM      4  C   UNL     1     -35.400  24.173   4.841  0.00  0.00    +0.078 C 
ATOM      5  C   UNL     1     -35.678  22.052   3.839  0.00  0.00    +0.089 C 
ATOM      6  C   UNL     1     -38.658  24.942   3.056  0.00  0.00    -0.004 C 
ATOM      7  C   UNL     1     -38.832  23.661   2.448  0.00  0.00    -0.001 C 
ATOM      8  C   UNL     1     -37.537  25.189   3.870  0.00  0.00    -0.016 C 
ATOM      9  C   UNL     1     -37.884  22.643   2.659  0.00  0.00    -0.002 C 
ATOM     10  C   UNL     1     -39.616  25.941   2.831  0.00  0.00    -0.000 C 
ATOM     11  C   UNL     1     -39.958  23.438   1.641  0.00  0.00    -0.000 C 
ATOM     12  C   UNL     1     -40.728  25.695   2.025  0.00  0.00    -0.000 C 
ATOM     13  C   UNL     1     -40.898  24.448   1.431  0.00  0.00    -0.000 C 
ENDROOT
BRANCH   4  14
ATOM     14  N   UNL     1     -34.913  25.146   5.529  0.00  0.00    -0.118 NA
BRANCH  14  15
ATOM     15  N   UNL     1     -33.709  25.575   4.979  0.00  0.00    -0.125 NA
BRANCH  15  18
ATOM     16  N   UNL     1     -32.799  27.742   5.453  0.00  0.00    -0.369 N 
ATOM     17  N   UNL     1     -34.534  27.519   3.983  0.00  0.00    -0.369 N 
ATOM     18  C   UNL     1     -33.665  26.874   4.829  0.00  0.00    +0.210 C 
ATOM     19  H   UNL     1     -32.127  27.398   6.084  0.00  0.00    +0.159 HD
ATOM     20  H   UNL     1     -32.852  28.708   5.268  0.00  0.00    +0.159 HD
ATOM     21  H   UNL     1     -35.204  27.003   3.478  0.00  0.00    +0.159 HD
ATOM     22  H   UNL     1     -34.488  28.497   3.882  0.00  0.00    +0.159 HD
ENDBRANCH  15  18
ENDBRANCH  14  15
ENDBRANCH   4  14
BRANCH   5  23
ATOM     23  N   UNL     1     -35.485  20.828   3.487  0.00  0.00    -0.115 NA
BRANCH  23  24
ATOM     24  N   UNL     1     -34.986  20.767   2.190  0.00  0.00    -0.124 NA
BRANCH  24  27
ATOM     25  N   UNL     1     -34.653  18.817   0.837  0.00  0.00    -0.369 N 
ATOM     26  N   UNL     1     -36.757  19.416   1.496  0.00  0.00    -0.369 N 
ATOM     27  C   UNL     1     -35.419  19.720   1.538  0.00  0.00    +0.210 C 
ATOM     28  H   UNL     1     -33.675  18.929   0.793  0.00  0.00    +0.159 HD
ATOM     29  H   UNL     1     -35.082  18.059   0.379  0.00  0.00    +0.159 HD
ATOM     30  H   UNL     1     -37.408  19.989   1.961  0.00  0.00    +0.159 HD
ATOM     31  H   UNL     1     -37.066  18.623   1.000  0.00  0.00    +0.159 HD
ENDBRANCH  24  27
ENDBRANCH  23  24
ENDBRANCH   5  23
TORSDOF 6
ENDMDL
MODEL 5
REMARK VINA RESULT:      -6.3      2.808      6.053
REMARK  Name = 5742964
REMARK  6 active torsions:
REMARK  status: ('A' for Active; 'I' for Inactive)
REMARK    1  A    between atoms: N_1  and  C_6
REMARK    2  A    between atoms: N_1  and  N_16
REMARK    3  A    between atoms: N_2  and  C_7
REMARK    4  A    between atoms: N_2  and  N_24
REMARK    5  A    between atoms: N_16  and  C_19
REMARK    6  A    between atoms: N_24  and  C_27
REMARK                            x       y       z     vdW  Elec       q    Type
REMARK                         _______ _______ _______ _____ _____    ______ ____
ROOT
ATOM      1  C   UNL     1     -35.844  26.152   3.853  0.00  0.00    +0.085 C 
ATOM      2  C   UNL     1     -34.897  27.152   3.648  0.00  0.00    +0.004 C 
ATOM      3  C   UNL     1     -34.204  25.920   5.610  0.00  0.00    +0.032 C 
ATOM      4  C   UNL     1     -35.481  25.370   5.028  0.00  0.00    +0.078 C 
ATOM      5  C   UNL     1     -33.872  27.064   4.686  0.00  0.00    +0.089 C 
ATOM      6  C   UNL     1     -37.073  26.886   1.937  0.00  0.00    -0.004 C 
ATOM      7  C   UNL     1     -36.103  27.912   1.724  0.00  0.00    -0.001 C 
ATOM      8  C   UNL     1     -36.934  25.998   3.018  0.00  0.00    -0.016 C 
ATOM      9  C   UNL     1     -35.005  28.040   2.595  0.00  0.00    -0.002 C 
ATOM     10  C   UNL     1     -38.159  26.779   1.055  0.00  0.00    -0.000 C 
ATOM     11  C   UNL     1     -36.263  28.787   0.638  0.00  0.00    -0.000 C 
ATOM     12  C   UNL     1     -38.295  27.660  -0.018  0.00  0.00    -0.000 C 
ATOM     13  C   UNL     1     -37.351  28.661  -0.225  0.00  0.00    -0.000 C 
ENDROOT
BRANCH   4  14
ATOM     14  N   UNL     1     -36.112  24.366   5.529  0.00  0.00    -0.118 NA
BRANCH  14  15
ATOM     15  N   UNL     1     -35.222  23.346   5.854  0.00  0.00    -0.125 NA
BRANCH  15  18
ATOM     16  N   UNL     1     -36.323  22.012   4.194  0.00  0.00    -0.369 N 
ATOM     17  N   UNL     1     -35.174  21.013   5.898  0.00  0.00    -0.369 N 
ATOM     18  C   UNL     1     -35.565  22.200   5.327  0.00  0.00    +0.210 C 
ATOM     19  H   UNL     1     -36.663  22.789   3.695  0.00  0.00    +0.159 HD
ATOM     20  H   UNL     1     -36.524  21.099   3.882  0.00  0.00    +0.159 HD
ATOM     21  H   UNL     1     -34.626  21.017   6.715  0.00  0.00    +0.159 HD
ATOM     22  H   UNL     1     -35.441  20.158   5.488  0.00  0.00    +0.159 HD
ENDBRANCH  15  18
ENDBRANCH  14  15
ENDBRANCH   4  14
BRANCH   5  23
ATOM     23  N   UNL     1     -32.836  27.817   4.827  0.00  0.00    -0.115 NA
BRANCH  23  24
ATOM     24  N   UNL     1     -32.530  27.975   6.175  0.00  0.00    -0.124 NA
BRANCH  24  27
ATOM     25  N   UNL     1     -30.649  29.125   7.117  0.00  0.00    -0.369 N 
ATOM     26  N   UNL     1     -32.219  30.274   5.918  0.00  0.00    -0.369 N 
ATOM     27  C   UNL     1     -31.823  29.051   6.403  0.00  0.00    +0.210 C 
ATOM     28  H   UNL     1     -30.263  28.311   7.516  0.00  0.00    +0.159 HD
ATOM     29  H   UNL     1     -30.195  29.991   7.229  0.00  0.00    +0.159 HD
ATOM     30  H   UNL     1     -33.046  30.350   5.390  0.00  0.00    +0.159 HD
ATOM     31  H   UNL     1     -31.675  31.075   6.099  0.00  0.00    +0.159 HD
ENDBRANCH  24  27
ENDBRANCH  23  24
ENDBRANCH   5  23
TORSDOF 6
ENDMDL
MODEL 6
REMARK VINA RESULT:      -6.2     13.006     15.187
REMARK  Name = 5742964
REMARK  6 active torsions:
REMARK  status: ('A' for Active; 'I' for Inactive)
REMARK    1  A    between atoms: N_1  and  C_6
REMARK    2  A    between atoms: N_1  and  N_16
REMARK    3  A    between atoms: N_2  and  C_7
REMARK    4  A    between atoms: N_2  and  N_24
REMARK    5  A    between atoms: N_16  and  C_19
REMARK    6  A    between atoms: N_24  and  C_27
REMARK                            x       y       z     vdW  Elec       q    Type
REMARK                         _______ _______ _______ _____ _____    ______ ____
ROOT
ATOM      1  C   UNL     1     -46.025  33.219   5.122  0.00  0.00    +0.085 C 
ATOM      2  C   UNL     1     -46.125  32.121   5.973  0.00  0.00    +0.004 C 
ATOM      3  C   UNL     1     -44.667  31.470   4.157  0.00  0.00    +0.032 C 
ATOM      4  C   UNL     1     -45.156  32.888   4.000  0.00  0.00    +0.078 C 
ATOM      5  C   UNL     1     -45.320  31.023   5.441  0.00  0.00    +0.089 C 
ATOM      6  C   UNL     1     -47.480  34.483   6.539  0.00  0.00    -0.004 C 
ATOM      7  C   UNL     1     -47.583  33.359   7.414  0.00  0.00    -0.001 C 
ATOM      8  C   UNL     1     -46.688  34.403   5.379  0.00  0.00    -0.016 C 
ATOM      9  C   UNL     1     -46.894  32.168   7.120  0.00  0.00    -0.002 C 
ATOM     10  C   UNL     1     -48.176  35.659   6.853  0.00  0.00    -0.000 C 
ATOM     11  C   UNL     1     -48.379  33.462   8.565  0.00  0.00    -0.000 C 
ATOM     12  C   UNL     1     -48.961  35.738   8.004  0.00  0.00    -0.000 C 
ATOM     13  C   UNL     1     -49.062  34.643   8.856  0.00  0.00    -0.000 C 
ENDROOT
BRANCH   4  14
ATOM     14  N   UNL     1     -44.826  33.645   3.012  0.00  0.00    -0.118 NA
BRANCH  14  15
ATOM     15  N   UNL     1     -43.513  33.394   2.625  0.00  0.00    -0.125 NA
BRANCH  15  18
ATOM     16  N   UNL     1     -42.453  34.973   4.085  0.00  0.00    -0.369 N 
ATOM     17  N   UNL     1     -42.053  35.035   1.836  0.00  0.00    -0.369 N 
ATOM     18  C   UNL     1     -42.722  34.409   2.859  0.00  0.00    +0.210 C 
ATOM     19  H   UNL     1     -42.875  34.611   4.897  0.00  0.00    +0.159 HD
ATOM     20  H   UNL     1     -41.838  35.740   4.149  0.00  0.00    +0.159 HD
ATOM     21  H   UNL     1     -42.164  34.721   0.910  0.00  0.00    +0.159 HD
ATOM     22  H   UNL     1     -41.461  35.798   2.030  0.00  0.00    +0.159 HD
ENDBRANCH  15  18
ENDBRANCH  14  15
ENDBRANCH   4  14
BRANCH   5  23
ATOM     23  N   UNL     1     -45.163  29.851   5.949  0.00  0.00    -0.115 NA
BRANCH  23  24
ATOM     24  N   UNL     1     -43.957  29.777   6.639  0.00  0.00    -0.124 NA
BRANCH  24  27
ATOM     25  N   UNL     1     -43.290  30.629   8.778  0.00  0.00    -0.369 N 
ATOM     26  N   UNL     1     -45.169  29.342   8.585  0.00  0.00    -0.369 N 
ATOM     27  C   UNL     1     -44.110  29.921   7.929  0.00  0.00    +0.210 C 
ATOM     28  H   UNL     1     -42.494  31.091   8.423  0.00  0.00    +0.159 HD
ATOM     29  H   UNL     1     -43.498  30.675   9.739  0.00  0.00    +0.159 HD
ATOM     30  H   UNL     1     -45.826  28.808   8.085  0.00  0.00    +0.159 HD
ATOM     31  H   UNL     1     -45.269  29.461   9.558  0.00  0.00    +0.159 HD
ENDBRANCH  24  27
ENDBRANCH  23  24
ENDBRANCH   5  23
TORSDOF 6
ENDMDL
MODEL 7
REMARK VINA RESULT:      -6.2      2.744      3.109
REMARK  Name = 5742964
REMARK  6 active torsions:
REMARK  status: ('A' for Active; 'I' for Inactive)
REMARK    1  A    between atoms: N_1  and  C_6
REMARK    2  A    between atoms: N_1  and  N_16
REMARK    3  A    between atoms: N_2  and  C_7
REMARK    4  A    between atoms: N_2  and  N_24
REMARK    5  A    between atoms: N_16  and  C_19
REMARK    6  A    between atoms: N_24  and  C_27
REMARK                            x       y       z     vdW  Elec       q    Type
REMARK                         _______ _______ _______ _____ _____    ______ ____
ROOT
ATOM      1  C   UNL     1     -34.675  27.129   3.677  0.00  0.00    +0.085 C 
ATOM      2  C   UNL     1     -35.697  26.195   3.816  0.00  0.00    +0.004 C 
ATOM      3  C   UNL     1     -34.144  25.808   5.627  0.00  0.00    +0.032 C 
ATOM      4  C   UNL     1     -33.700  26.946   4.745  0.00  0.00    +0.078 C 
ATOM      5  C   UNL     1     -35.432  25.359   4.986  0.00  0.00    +0.089 C 
ATOM      6  C   UNL     1     -35.728  28.032   1.729  0.00  0.00    -0.004 C 
ATOM      7  C   UNL     1     -36.779  27.075   1.869  0.00  0.00    -0.001 C 
ATOM      8  C   UNL     1     -34.666  28.053   2.650  0.00  0.00    -0.016 C 
ATOM      9  C   UNL     1     -36.756  26.149   2.929  0.00  0.00    -0.002 C 
ATOM     10  C   UNL     1     -35.773  28.945   0.665  0.00  0.00    -0.000 C 
ATOM     11  C   UNL     1     -37.829  27.074   0.938  0.00  0.00    -0.000 C 
ATOM     12  C   UNL     1     -36.828  28.925  -0.248  0.00  0.00    -0.000 C 
ATOM     13  C   UNL     1     -37.852  27.992  -0.112  0.00  0.00    -0.000 C 
ENDROOT
BRANCH   4  14
ATOM     14  N   UNL     1     -32.621  27.619   4.946  0.00  0.00    -0.118 NA
BRANCH  14  15
ATOM     15  N   UNL     1     -32.485  27.925   6.297  0.00  0.00    -0.125 NA
BRANCH  15  18
ATOM     16  N   UNL     1     -30.670  29.183   7.230  0.00  0.00    -0.369 N 
ATOM     17  N   UNL     1     -32.247  30.220   5.942  0.00  0.00    -0.369 N 
ATOM     18  C   UNL     1     -31.822  29.035   6.492  0.00  0.00    +0.210 C 
ATOM     19  H   UNL     1     -30.267  28.403   7.675  0.00  0.00    +0.159 HD
ATOM     20  H   UNL     1     -30.249  30.070   7.313  0.00  0.00    +0.159 HD
ATOM     21  H   UNL     1     -33.062  30.242   5.391  0.00  0.00    +0.159 HD
ATOM     22  H   UNL     1     -31.736  31.047   6.099  0.00  0.00    +0.159 HD
ENDBRANCH  15  18
ENDBRANCH  14  15
ENDBRANCH   4  14
BRANCH   5  23
ATOM     23  N   UNL     1     -36.152  24.390   5.434  0.00  0.00    -0.115 NA
BRANCH  23  24
ATOM     24  N   UNL     1     -35.344  23.378   5.941  0.00  0.00    -0.124 NA
BRANCH  24  27
ATOM     25  N   UNL     1     -35.185  20.987   5.860  0.00  0.00    -0.369 N 
ATOM     26  N   UNL     1     -36.353  22.119   4.255  0.00  0.00    -0.369 N 
ATOM     27  C   UNL     1     -35.600  22.216   5.400  0.00  0.00    +0.210 C 
ATOM     28  H   UNL     1     -34.636  20.927   6.677  0.00  0.00    +0.159 HD
ATOM     29  H   UNL     1     -35.435  20.169   5.374  0.00  0.00    +0.159 HD
ATOM     30  H   UNL     1     -36.708  22.932   3.829  0.00  0.00    +0.159 HD
ATOM     31  H   UNL     1     -36.537  21.236   3.860  0.00  0.00    +0.159 HD
ENDBRANCH  24  27
ENDBRANCH  23  24
ENDBRANCH   5  23
TORSDOF 6
ENDMDL
MODEL 8
REMARK VINA RESULT:      -6.1      4.565      7.611
REMARK  Name = 5742964
REMARK  6 active torsions:
REMARK  status: ('A' for Active; 'I' for Inactive)
REMARK    1  A    between atoms: N_1  and  C_6
REMARK    2  A    between atoms: N_1  and  N_16
REMARK    3  A    between atoms: N_2  and  C_7
REMARK    4  A    between atoms: N_2  and  N_24
REMARK    5  A    between atoms: N_16  and  C_19
REMARK    6  A    between atoms: N_24  and  C_27
REMARK                            x       y       z     vdW  Elec       q    Type
REMARK                         _______ _______ _______ _____ _____    ______ ____
ROOT
ATOM      1  C   UNL     1     -37.279  21.300   1.259  0.00  0.00    +0.085 C 
ATOM      2  C   UNL     1     -36.435  21.564   2.335  0.00  0.00    +0.004 C 
ATOM      3  C   UNL     1     -38.327  23.055   2.546  0.00  0.00    +0.032 C 
ATOM      4  C   UNL     1     -38.445  22.173   1.330  0.00  0.00    +0.078 C 
ATOM      5  C   UNL     1     -37.017  22.624   3.156  0.00  0.00    +0.089 C 
ATOM      6  C   UNL     1     -35.779  19.618   0.460  0.00  0.00    -0.004 C 
ATOM      7  C   UNL     1     -34.912  19.885   1.562  0.00  0.00    -0.001 C 
ATOM      8  C   UNL     1     -36.977  20.339   0.314  0.00  0.00    -0.016 C 
ATOM      9  C   UNL     1     -35.252  20.872   2.507  0.00  0.00    -0.002 C 
ATOM     10  C   UNL     1     -35.419  18.629  -0.469  0.00  0.00    -0.000 C 
ATOM     11  C   UNL     1     -33.722  19.152   1.687  0.00  0.00    -0.000 C 
ATOM     12  C   UNL     1     -34.231  17.913  -0.323  0.00  0.00    -0.000 C 
ATOM     13  C   UNL     1     -33.385  18.174   0.751  0.00  0.00    -0.000 C 
ENDROOT
BRANCH   4  14
ATOM     14  N   UNL     1     -39.439  22.222   0.513  0.00  0.00    -0.118 NA
BRANCH  14  15
ATOM     15  N   UNL     1     -40.363  21.225   0.813  0.00  0.00    -0.125 NA
BRANCH  15  18
ATOM     16  N   UNL     1     -42.376  20.839  -0.430  0.00  0.00    -0.369 N 
ATOM     17  N   UNL     1     -40.346  20.288  -1.325  0.00  0.00    -0.369 N 
ATOM     18  C   UNL     1     -41.012  20.813  -0.244  0.00  0.00    +0.210 C 
ATOM     19  H   UNL     1     -42.962  21.194   0.276  0.00  0.00    +0.159 HD
ATOM     20  H   UNL     1     -42.764  20.502  -1.270  0.00  0.00    +0.159 HD
ATOM     21  H   UNL     1     -39.364  20.218  -1.311  0.00  0.00    +0.159 HD
ATOM     22  H   UNL     1     -40.851  19.983  -2.113  0.00  0.00    +0.159 HD
ENDBRANCH  15  18
ENDBRANCH  14  15
ENDBRANCH   4  14
BRANCH   5  23
ATOM     23  N   UNL     1     -36.529  23.135   4.232  0.00  0.00    -0.115 NA
BRANCH  23  24
ATOM     24  N   UNL     1     -37.108  24.374   4.488  0.00  0.00    -0.124 NA
BRANCH  24  27
ATOM     25  N   UNL     1     -36.463  26.568   5.209  0.00  0.00    -0.369 N 
ATOM     26  N   UNL     1     -35.034  24.803   5.469  0.00  0.00    -0.369 N 
ATOM     27  C   UNL     1     -36.265  25.218   5.022  0.00  0.00    +0.210 C 
ATOM     28  H   UNL     1     -37.310  26.985   4.928  0.00  0.00    +0.159 HD
ATOM     29  H   UNL     1     -35.758  27.116   5.624  0.00  0.00    +0.159 HD
ATOM     30  H   UNL     1     -34.775  23.857   5.389  0.00  0.00    +0.159 HD
ATOM     31  H   UNL     1     -34.411  25.452   5.869  0.00  0.00    +0.159 HD
ENDBRANCH  24  27
ENDBRANCH  23  24
ENDBRANCH   5  23
TORSDOF 6
ENDMDL
MODEL 9
REMARK VINA RESULT:      -6.1      9.490     11.444
REMARK  Name = 5742964
REMARK  6 active torsions:
REMARK  status: ('A' for Active; 'I' for Inactive)
REMARK    1  A    between atoms: N_1  and  C_6
REMARK    2  A    between atoms: N_1  and  N_16
REMARK    3  A    between atoms: N_2  and  C_7
REMARK    4  A    between atoms: N_2  and  N_24
REMARK    5  A    between atoms: N_16  and  C_19
REMARK    6  A    between atoms: N_24  and  C_27
REMARK                            x       y       z     vdW  Elec       q    Type
REMARK                         _______ _______ _______ _____ _____    ______ ____
ROOT
ATOM      1  C   UNL     1     -44.787  26.961   4.107  0.00  0.00    +0.085 C 
ATOM      2  C   UNL     1     -44.272  26.459   2.915  0.00  0.00    +0.004 C 
ATOM      3  C   UNL     1     -42.912  28.365   3.517  0.00  0.00    +0.032 C 
ATOM      4  C   UNL     1     -44.006  28.119   4.525  0.00  0.00    +0.078 C 
ATOM      5  C   UNL     1     -43.129  27.271   2.503  0.00  0.00    +0.089 C 
ATOM      6  C   UNL     1     -46.471  25.263   4.126  0.00  0.00    -0.004 C 
ATOM      7  C   UNL     1     -45.944  24.745   2.903  0.00  0.00    -0.001 C 
ATOM      8  C   UNL     1     -45.878  26.386   4.729  0.00  0.00    -0.016 C 
ATOM      9  C   UNL     1     -44.831  25.356   2.297  0.00  0.00    -0.002 C 
ATOM     10  C   UNL     1     -47.581  24.636   4.711  0.00  0.00    -0.000 C 
ATOM     11  C   UNL     1     -46.553  23.623   2.320  0.00  0.00    -0.000 C 
ATOM     12  C   UNL     1     -48.168  23.521   4.113  0.00  0.00    -0.000 C 
ATOM     13  C   UNL     1     -47.656  23.016   2.921  0.00  0.00    -0.000 C 
ENDROOT
BRANCH   4  14
ATOM     14  N   UNL     1     -44.180  28.846   5.573  0.00  0.00    -0.118 NA
BRANCH  14  15
ATOM     15  N   UNL     1     -43.161  29.786   5.686  0.00  0.00    -0.125 NA
BRANCH  15  18
ATOM     16  N   UNL     1     -43.782  32.052   6.166  0.00  0.00    -0.369 N 
ATOM     17  N   UNL     1     -43.503  30.550   7.866  0.00  0.00    -0.369 N 
ATOM     18  C   UNL     1     -43.467  30.756   6.508  0.00  0.00    +0.210 C 
ATOM     19  H   UNL     1     -43.790  32.323   5.220  0.00  0.00    +0.159 HD
ATOM     20  H   UNL     1     -43.999  32.707   6.868  0.00  0.00    +0.159 HD
ATOM     21  H   UNL     1     -43.297  29.660   8.234  0.00  0.00    +0.159 HD
ATOM     22  H   UNL     1     -43.736  31.291   8.470  0.00  0.00    +0.159 HD
ENDBRANCH  15  18
ENDBRANCH  14  15
ENDBRANCH   4  14
BRANCH   5  23
ATOM     23  N   UNL     1     -42.395  27.115   1.456  0.00  0.00    -0.115 NA
BRANCH  23  24
ATOM     24  N   UNL     1     -41.048  27.096   1.803  0.00  0.00    -0.124 NA
BRANCH  24  27
ATOM     25  N   UNL     1     -40.850  24.715   1.604  0.00  0.00    -0.369 N 
ATOM     26  N   UNL     1     -39.990  25.795   3.425  0.00  0.00    -0.369 N 
ATOM     27  C   UNL     1     -40.661  25.925   2.234  0.00  0.00    +0.210 C 
ATOM     28  H   UNL     1     -41.320  24.678   0.739  0.00  0.00    +0.159 HD
ATOM     29  H   UNL     1     -40.516  23.887   2.019  0.00  0.00    +0.159 HD
ATOM     30  H   UNL     1     -39.795  26.592   3.970  0.00  0.00    +0.159 HD
ATOM     31  H   UNL     1     -39.704  24.905   3.736  0.00  0.00    +0.159 HD
ENDBRANCH  24  27
ENDBRANCH  23  24
ENDBRANCH   5  23
TORSDOF 6
ENDMDL
