MODEL 1
REMARK VINA RESULT:      -7.5      0.000      0.000
REMARK  Name = 5379540
REMARK  4 active torsions:
REMARK  status: ('A' for Active; 'I' for Inactive)
REMARK    1  A    between atoms: C_9  and  O_23
REMARK    2  A    between atoms: C_12  and  O_25
REMARK    3  A    between atoms: C_18  and  C_30
REMARK    4  A    between atoms: C_20  and  O_27
REMARK                            x       y       z     vdW  Elec       q    Type
REMARK                         _______ _______ _______ _____ _____    ______ ____
ROOT
ATOM      1  O   UNL     1     -36.638  22.972   1.582  0.00  0.00    -0.450 OA
ATOM      2  O   UNL     1     -39.737  20.370  -0.032  0.00  0.00    -0.417 OA
ATOM      3  O   UNL     1     -37.751  25.582   2.078  0.00  0.00    -0.418 OA
ATOM      4  O   UNL     1     -41.883  21.189  -0.305  0.00  0.00    -0.245 OA
ATOM      5  O   UNL     1     -36.013  26.611   3.152  0.00  0.00    -0.244 OA
ATOM      6  C   UNL     1     -38.768  22.254   0.822  0.00  0.00    +0.094 A 
ATOM      7  C   UNL     1     -37.959  23.238   1.363  0.00  0.00    +0.182 A 
ATOM      8  C   UNL     1     -40.103  22.514   0.578  0.00  0.00    +0.114 A 
ATOM      9  C   UNL     1     -38.458  20.859   0.442  0.00  0.00    +0.315 C 
ATOM     10  C   UNL     1     -38.524  24.486   1.622  0.00  0.00    +0.182 A 
ATOM     11  C   UNL     1     -39.878  24.748   1.354  0.00  0.00    +0.050 A 
ATOM     12  C   UNL     1     -40.689  23.742   0.831  0.00  0.00    +0.139 A 
ATOM     13  C   UNL     1     -36.272  23.091   2.899  0.00  0.00    +0.157 C 
ATOM     14  C   UNL     1     -40.723  21.319   0.029  0.00  0.00    +0.346 C 
ATOM     15  C   UNL     1     -36.279  24.314   3.571  0.00  0.00    +0.107 C 
ATOM     16  C   UNL     1     -35.857  24.367   4.905  0.00  0.00    -0.010 C 
ATOM     17  C   UNL     1     -40.452  26.102   1.626  0.00  0.00    +0.038 C 
ATOM     18  C   UNL     1     -35.835  21.931   3.545  0.00  0.00    +0.110 C 
ATOM     19  C   UNL     1     -36.636  25.583   2.913  0.00  0.00    +0.348 C 
ATOM     20  C   UNL     1     -35.426  21.988   4.877  0.00  0.00    +0.139 C 
ATOM     21  C   UNL     1     -35.440  23.205   5.556  0.00  0.00    +0.033 C 
ATOM     22  C   UNL     1     -35.860  25.631   5.706  0.00  0.00    +0.031 C 
ENDROOT
BRANCH   9  23
ATOM     23  O   UNL     1     -37.476  20.831  -0.578  0.00  0.00    -0.347 OA
ATOM     24  H   UNL     1     -37.608  21.584  -1.176  0.00  0.00    +0.214 HD
ENDBRANCH   9  23
BRANCH  12  25
ATOM     25  O   UNL     1     -42.003  23.964   0.571  0.00  0.00    -0.506 OA
ATOM     26  H   UNL     1     -42.580  24.226   1.262  0.00  0.00    +0.292 HD
ENDBRANCH  12  25
BRANCH  20  27
ATOM     27  O   UNL     1     -35.003  20.870   5.530  0.00  0.00    -0.505 OA
ATOM     28  H   UNL     1     -34.279  20.377   5.196  0.00  0.00    +0.292 HD
ENDBRANCH  20  27
BRANCH  18  30
ATOM     29  O   UNL     1     -34.736  20.023   2.679  0.00  0.00    -0.283 OA
ATOM     30  C   UNL     1     -35.780  20.657   2.837  0.00  0.00    +0.240 C 
ENDBRANCH  18  30
TORSDOF 4
ENDMDL
MODEL 2
REMARK VINA RESULT:      -7.1      1.721      4.787
REMARK  Name = 5379540
REMARK  4 active torsions:
REMARK  status: ('A' for Active; 'I' for Inactive)
REMARK    1  A    between atoms: C_9  and  O_23
REMARK    2  A    between atoms: C_12  and  O_25
REMARK    3  A    between atoms: C_18  and  C_30
REMARK    4  A    between atoms: C_20  and  O_27
REMARK                            x       y       z     vdW  Elec       q    Type
REMARK                         _______ _______ _______ _____ _____    ______ ____
ROOT
ATOM      1  O   UNL     1     -37.920  21.731   2.691  0.00  0.00    -0.450 OA
ATOM      2  O   UNL     1     -38.798  20.611  -1.427  0.00  0.00    -0.417 OA
ATOM      3  O   UNL     1     -35.335  20.696   3.427  0.00  0.00    -0.418 OA
ATOM      4  O   UNL     1     -37.235  19.409  -2.638  0.00  0.00    -0.245 OA
ATOM      5  O   UNL     1     -35.040  21.656   5.482  0.00  0.00    -0.244 OA
ATOM      6  C   UNL     1     -37.635  20.791   0.531  0.00  0.00    +0.094 A 
ATOM      7  C   UNL     1     -37.142  21.052   1.798  0.00  0.00    +0.182 A 
ATOM      8  C   UNL     1     -36.866  20.089  -0.378  0.00  0.00    +0.114 A 
ATOM      9  C   UNL     1     -38.922  21.165  -0.094  0.00  0.00    +0.315 C 
ATOM     10  C   UNL     1     -35.877  20.566   2.124  0.00  0.00    +0.182 A 
ATOM     11  C   UNL     1     -35.109  19.838   1.200  0.00  0.00    +0.050 A 
ATOM     12  C   UNL     1     -35.606  19.601  -0.080  0.00  0.00    +0.139 A 
ATOM     13  C   UNL     1     -37.356  22.907   3.117  0.00  0.00    +0.157 C 
ATOM     14  C   UNL     1     -37.606  19.967  -1.625  0.00  0.00    +0.346 C 
ATOM     15  C   UNL     1     -36.195  22.943   3.890  0.00  0.00    +0.107 C 
ATOM     16  C   UNL     1     -35.696  24.178   4.322  0.00  0.00    -0.010 C 
ATOM     17  C   UNL     1     -33.763  19.314   1.586  0.00  0.00    +0.038 C 
ATOM     18  C   UNL     1     -38.024  24.089   2.787  0.00  0.00    +0.110 C 
ATOM     19  C   UNL     1     -35.505  21.725   4.350  0.00  0.00    +0.348 C 
ATOM     20  C   UNL     1     -37.516  25.316   3.210  0.00  0.00    +0.139 C 
ATOM     21  C   UNL     1     -36.351  25.360   3.976  0.00  0.00    +0.033 C 
ATOM     22  C   UNL     1     -34.443  24.307   5.130  0.00  0.00    +0.031 C 
ENDROOT
BRANCH   9  23
ATOM     23  O   UNL     1     -40.003  20.586   0.615  0.00  0.00    -0.347 OA
ATOM     24  H   UNL     1     -40.294  19.780   0.160  0.00  0.00    +0.214 HD
ENDBRANCH   9  23
BRANCH  12  25
ATOM     25  O   UNL     1     -34.882  18.908  -0.997  0.00  0.00    -0.506 OA
ATOM     26  H   UNL     1     -35.318  18.437  -1.679  0.00  0.00    +0.292 HD
ENDBRANCH  12  25
BRANCH  20  27
ATOM     27  O   UNL     1     -38.144  26.483   2.895  0.00  0.00    -0.505 OA
ATOM     28  H   UNL     1     -38.952  26.709   3.313  0.00  0.00    +0.292 HD
ENDBRANCH  20  27
BRANCH  18  30
ATOM     29  O   UNL     1     -40.305  24.589   2.405  0.00  0.00    -0.283 OA
ATOM     30  C   UNL     1     -39.263  24.058   2.018  0.00  0.00    +0.240 C 
ENDBRANCH  18  30
TORSDOF 4
ENDMDL
MODEL 3
REMARK VINA RESULT:      -6.9      1.704      5.378
REMARK  Name = 5379540
REMARK  4 active torsions:
REMARK  status: ('A' for Active; 'I' for Inactive)
REMARK    1  A    between atoms: C_9  and  O_23
REMARK    2  A    between atoms: C_12  and  O_25
REMARK    3  A    between atoms: C_18  and  C_30
REMARK    4  A    between atoms: C_20  and  O_27
REMARK                            x       y       z     vdW  Elec       q    Type
REMARK                         _______ _______ _______ _____ _____    ______ ____
ROOT
ATOM      1  O   UNL     1     -37.376  23.220   3.607  0.00  0.00    -0.450 OA
ATOM      2  O   UNL     1     -34.563  26.450   4.401  0.00  0.00    -0.417 OA
ATOM      3  O   UNL     1     -39.280  24.083   1.624  0.00  0.00    -0.418 OA
ATOM      4  O   UNL     1     -34.756  28.440   3.236  0.00  0.00    -0.245 OA
ATOM      5  O   UNL     1     -40.416  22.139   1.223  0.00  0.00    -0.244 OA
ATOM      6  C   UNL     1     -36.316  25.336   3.449  0.00  0.00    +0.094 A 
ATOM      7  C   UNL     1     -37.293  24.452   3.026  0.00  0.00    +0.182 A 
ATOM      8  C   UNL     1     -36.230  26.594   2.883  0.00  0.00    +0.114 A 
ATOM      9  C   UNL     1     -35.248  25.175   4.459  0.00  0.00    +0.315 C 
ATOM     10  C   UNL     1     -38.187  24.880   2.046  0.00  0.00    +0.182 A 
ATOM     11  C   UNL     1     -38.104  26.167   1.488  0.00  0.00    +0.050 A 
ATOM     12  C   UNL     1     -37.102  27.041   1.905  0.00  0.00    +0.139 A 
ATOM     13  C   UNL     1     -37.209  22.189   2.717  0.00  0.00    +0.157 C 
ATOM     14  C   UNL     1     -35.118  27.309   3.491  0.00  0.00    +0.346 C 
ATOM     15  C   UNL     1     -38.125  21.923   1.698  0.00  0.00    +0.107 C 
ATOM     16  C   UNL     1     -37.910  20.830   0.849  0.00  0.00    -0.010 C 
ATOM     17  C   UNL     1     -39.089  26.603   0.450  0.00  0.00    +0.038 C 
ATOM     18  C   UNL     1     -36.095  21.366   2.899  0.00  0.00    +0.110 C 
ATOM     19  C   UNL     1     -39.367  22.697   1.520  0.00  0.00    +0.348 C 
ATOM     20  C   UNL     1     -35.880  20.286   2.044  0.00  0.00    +0.139 C 
ATOM     21  C   UNL     1     -36.787  20.020   1.018  0.00  0.00    +0.033 C 
ATOM     22  C   UNL     1     -38.828  20.493  -0.284  0.00  0.00    +0.031 C 
ENDROOT
BRANCH   9  23
ATOM     23  O   UNL     1     -35.808  24.939   5.738  0.00  0.00    -0.347 OA
ATOM     24  H   UNL     1     -36.636  25.437   5.826  0.00  0.00    +0.214 HD
ENDBRANCH   9  23
BRANCH  12  25
ATOM     25  O   UNL     1     -36.992  28.287   1.377  0.00  0.00    -0.506 OA
ATOM     26  H   UNL     1     -36.168  28.732   1.392  0.00  0.00    +0.292 HD
ENDBRANCH  12  25
BRANCH  20  27
ATOM     27  O   UNL     1     -34.797  19.474   2.196  0.00  0.00    -0.505 OA
ATOM     28  H   UNL     1     -34.527  18.915   1.494  0.00  0.00    +0.292 HD
ENDBRANCH  20  27
BRANCH  18  30
ATOM     29  O   UNL     1     -35.062  20.867   4.968  0.00  0.00    -0.283 OA
ATOM     30  C   UNL     1     -35.156  21.608   3.989  0.00  0.00    +0.240 C 
ENDBRANCH  18  30
TORSDOF 4
ENDMDL
MODEL 4
REMARK VINA RESULT:      -6.9      1.791      5.471
REMARK  Name = 5379540
REMARK  4 active torsions:
REMARK  status: ('A' for Active; 'I' for Inactive)
REMARK    1  A    between atoms: C_9  and  O_23
REMARK    2  A    between atoms: C_12  and  O_25
REMARK    3  A    between atoms: C_18  and  C_30
REMARK    4  A    between atoms: C_20  and  O_27
REMARK                            x       y       z     vdW  Elec       q    Type
REMARK                         _______ _______ _______ _____ _____    ______ ____
ROOT
ATOM      1  O   UNL     1     -37.740  21.186   2.379  0.00  0.00    -0.450 OA
ATOM      2  O   UNL     1     -35.471  24.166   4.604  0.00  0.00    -0.417 OA
ATOM      3  O   UNL     1     -40.205  22.360   1.459  0.00  0.00    -0.418 OA
ATOM      4  O   UNL     1     -36.316  26.309   4.825  0.00  0.00    -0.245 OA
ATOM      5  O   UNL     1     -41.023  20.690   0.127  0.00  0.00    -0.244 OA
ATOM      6  C   UNL     1     -37.167  23.266   3.365  0.00  0.00    +0.094 A 
ATOM      7  C   UNL     1     -38.036  22.498   2.610  0.00  0.00    +0.182 A 
ATOM      8  C   UNL     1     -37.461  24.592   3.622  0.00  0.00    +0.114 A 
ATOM      9  C   UNL     1     -35.869  22.919   3.984  0.00  0.00    +0.315 C 
ATOM     10  C   UNL     1     -39.210  23.094   2.151  0.00  0.00    +0.182 A 
ATOM     11  C   UNL     1     -39.510  24.437   2.432  0.00  0.00    +0.050 A 
ATOM     12  C   UNL     1     -38.617  25.207   3.174  0.00  0.00    +0.139 A 
ATOM     13  C   UNL     1     -37.612  20.886   1.046  0.00  0.00    +0.157 C 
ATOM     14  C   UNL     1     -36.386  25.167   4.416  0.00  0.00    +0.346 C 
ATOM     15  C   UNL     1     -38.687  20.943   0.159  0.00  0.00    +0.107 C 
ATOM     16  C   UNL     1     -38.491  20.586  -1.181  0.00  0.00    -0.010 C 
ATOM     17  C   UNL     1     -40.786  25.042   1.940  0.00  0.00    +0.038 C 
ATOM     18  C   UNL     1     -36.354  20.463   0.609  0.00  0.00    +0.110 C 
ATOM     19  C   UNL     1     -40.055  21.286   0.584  0.00  0.00    +0.348 C 
ATOM     20  C   UNL     1     -36.162  20.120  -0.729  0.00  0.00    +0.139 C 
ATOM     21  C   UNL     1     -37.230  20.183  -1.623  0.00  0.00    +0.033 C 
ATOM     22  C   UNL     1     -39.583  20.646  -2.203  0.00  0.00    +0.031 C 
ENDROOT
BRANCH   9  23
ATOM     23  O   UNL     1     -36.038  21.889   4.941  0.00  0.00    -0.347 OA
ATOM     24  H   UNL     1     -36.551  22.226   5.693  0.00  0.00    +0.214 HD
ENDBRANCH   9  23
BRANCH  12  25
ATOM     25  O   UNL     1     -38.877  26.511   3.452  0.00  0.00    -0.506 OA
ATOM     26  H   UNL     1     -39.349  26.739   4.229  0.00  0.00    +0.292 HD
ENDBRANCH  12  25
BRANCH  20  27
ATOM     27  O   UNL     1     -34.944  19.712  -1.182  0.00  0.00    -0.505 OA
ATOM     28  H   UNL     1     -34.299  20.346  -1.431  0.00  0.00    +0.292 HD
ENDBRANCH  20  27
BRANCH  18  30
ATOM     29  O   UNL     1     -34.415  19.438   1.496  0.00  0.00    -0.283 OA
ATOM     30  C   UNL     1     -35.235  20.356   1.538  0.00  0.00    +0.240 C 
ENDBRANCH  18  30
TORSDOF 4
ENDMDL
MODEL 5
REMARK VINA RESULT:      -6.8      4.422      6.955
REMARK  Name = 5379540
REMARK  4 active torsions:
REMARK  status: ('A' for Active; 'I' for Inactive)
REMARK    1  A    between atoms: C_9  and  O_23
REMARK    2  A    between atoms: C_12  and  O_25
REMARK    3  A    between atoms: C_18  and  C_30
REMARK    4  A    between atoms: C_20  and  O_27
REMARK                            x       y       z     vdW  Elec       q    Type
REMARK                         _______ _______ _______ _____ _____    ______ ____
ROOT
ATOM      1  O   UNL     1     -32.706  27.150   4.013  0.00  0.00    -0.450 OA
ATOM      2  O   UNL     1     -36.005  24.567   5.206  0.00  0.00    -0.417 OA
ATOM      3  O   UNL     1     -33.554  28.829   1.831  0.00  0.00    -0.418 OA
ATOM      4  O   UNL     1     -38.043  24.750   4.125  0.00  0.00    -0.245 OA
ATOM      5  O   UNL     1     -31.754  30.225   1.619  0.00  0.00    -0.244 OA
ATOM      6  C   UNL     1     -34.872  26.184   4.056  0.00  0.00    +0.094 A 
ATOM      7  C   UNL     1     -33.983  27.106   3.533  0.00  0.00    +0.182 A 
ATOM      8  C   UNL     1     -36.163  26.115   3.568  0.00  0.00    +0.114 A 
ATOM      9  C   UNL     1     -34.699  25.190   5.137  0.00  0.00    +0.315 C 
ATOM     10  C   UNL     1     -34.422  27.928   2.496  0.00  0.00    +0.182 A 
ATOM     11  C   UNL     1     -35.731  27.840   1.993  0.00  0.00    +0.050 A 
ATOM     12  C   UNL     1     -36.625  26.924   2.544  0.00  0.00    +0.139 A 
ATOM     13  C   UNL     1     -32.375  28.362   4.563  0.00  0.00    +0.157 C 
ATOM     14  C   UNL     1     -36.887  25.083   4.294  0.00  0.00    +0.346 C 
ATOM     15  C   UNL     1     -32.276  29.527   3.802  0.00  0.00    +0.107 C 
ATOM     16  C   UNL     1     -31.896  30.724   4.423  0.00  0.00    -0.010 C 
ATOM     17  C   UNL     1     -36.167  28.724   0.869  0.00  0.00    +0.038 C 
ATOM     18  C   UNL     1     -32.085  28.382   5.930  0.00  0.00    +0.110 C 
ATOM     19  C   UNL     1     -32.474  29.546   2.342  0.00  0.00    +0.348 C 
ATOM     20  C   UNL     1     -31.718  29.579   6.545  0.00  0.00    +0.139 C 
ATOM     21  C   UNL     1     -31.626  30.749   5.792  0.00  0.00    +0.033 C 
ATOM     22  C   UNL     1     -31.793  32.022   3.686  0.00  0.00    +0.031 C 
ENDROOT
BRANCH   9  23
ATOM     23  O   UNL     1     -33.691  24.256   4.793  0.00  0.00    -0.347 OA
ATOM     24  H   UNL     1     -32.915  24.727   4.453  0.00  0.00    +0.214 HD
ENDBRANCH   9  23
BRANCH  12  25
ATOM     25  O   UNL     1     -37.899  26.823   2.084  0.00  0.00    -0.506 OA
ATOM     26  H   UNL     1     -38.073  26.897   1.167  0.00  0.00    +0.292 HD
ENDBRANCH  12  25
BRANCH  20  27
ATOM     27  O   UNL     1     -31.438  29.626   7.877  0.00  0.00    -0.505 OA
ATOM     28  H   UNL     1     -31.266  30.449   8.292  0.00  0.00    +0.292 HD
ENDBRANCH  20  27
BRANCH  18  30
ATOM     29  O   UNL     1     -32.938  27.000   7.649  0.00  0.00    -0.283 OA
ATOM     30  C   UNL     1     -32.141  27.161   6.724  0.00  0.00    +0.240 C 
ENDBRANCH  18  30
TORSDOF 4
ENDMDL
MODEL 6
REMARK VINA RESULT:      -6.7      2.464      6.316
REMARK  Name = 5379540
REMARK  4 active torsions:
REMARK  status: ('A' for Active; 'I' for Inactive)
REMARK    1  A    between atoms: C_9  and  O_23
REMARK    2  A    between atoms: C_12  and  O_25
REMARK    3  A    between atoms: C_18  and  C_30
REMARK    4  A    between atoms: C_20  and  O_27
REMARK                            x       y       z     vdW  Elec       q    Type
REMARK                         _______ _______ _______ _____ _____    ______ ____
ROOT
ATOM      1  O   UNL     1     -36.425  25.251   4.437  0.00  0.00    -0.450 OA
ATOM      2  O   UNL     1     -32.552  27.191   4.900  0.00  0.00    -0.417 OA
ATOM      3  O   UNL     1     -37.851  26.483   2.257  0.00  0.00    -0.418 OA
ATOM      4  O   UNL     1     -31.951  28.894   3.453  0.00  0.00    -0.245 OA
ATOM      5  O   UNL     1     -39.670  25.108   2.083  0.00  0.00    -0.244 OA
ATOM      6  C   UNL     1     -34.613  26.728   4.030  0.00  0.00    +0.094 A 
ATOM      7  C   UNL     1     -35.866  26.247   3.689  0.00  0.00    +0.182 A 
ATOM      8  C   UNL     1     -34.041  27.748   3.294  0.00  0.00    +0.114 A 
ATOM      9  C   UNL     1     -33.686  26.314   5.105  0.00  0.00    +0.315 C 
ATOM     10  C   UNL     1     -36.527  26.839   2.614  0.00  0.00    +0.182 A 
ATOM     11  C   UNL     1     -35.946  27.888   1.882  0.00  0.00    +0.050 A 
ATOM     12  C   UNL     1     -34.674  28.348   2.219  0.00  0.00    +0.139 A 
ATOM     13  C   UNL     1     -36.691  24.116   3.714  0.00  0.00    +0.157 C 
ATOM     14  C   UNL     1     -32.730  28.050   3.848  0.00  0.00    +0.346 C 
ATOM     15  C   UNL     1     -37.648  24.081   2.699  0.00  0.00    +0.107 C 
ATOM     16  C   UNL     1     -37.895  22.877   2.028  0.00  0.00    -0.010 C 
ATOM     17  C   UNL     1     -36.687  28.514   0.745  0.00  0.00    +0.038 C 
ATOM     18  C   UNL     1     -35.993  22.958   4.069  0.00  0.00    +0.110 C 
ATOM     19  C   UNL     1     -38.483  25.245   2.349  0.00  0.00    +0.348 C 
ATOM     20  C   UNL     1     -36.235  21.765   3.389  0.00  0.00    +0.139 C 
ATOM     21  C   UNL     1     -37.184  21.726   2.368  0.00  0.00    +0.033 C 
ATOM     22  C   UNL     1     -38.883  22.760   0.910  0.00  0.00    +0.031 C 
ENDROOT
BRANCH   9  23
ATOM     23  O   UNL     1     -34.280  26.515   6.375  0.00  0.00    -0.347 OA
ATOM     24  H   UNL     1     -34.202  25.703   6.901  0.00  0.00    +0.214 HD
ENDBRANCH   9  23
BRANCH  12  25
ATOM     25  O   UNL     1     -34.084  29.354   1.524  0.00  0.00    -0.506 OA
ATOM     26  H   UNL     1     -33.423  29.160   0.889  0.00  0.00    +0.292 HD
ENDBRANCH  12  25
BRANCH  20  27
ATOM     27  O   UNL     1     -35.562  20.625   3.711  0.00  0.00    -0.505 OA
ATOM     28  H   UNL     1     -36.027  19.816   3.806  0.00  0.00    +0.292 HD
ENDBRANCH  20  27
BRANCH  18  30
ATOM     29  O   UNL     1     -35.147  22.287   6.173  0.00  0.00    -0.283 OA
ATOM     30  C   UNL     1     -35.024  22.973   5.158  0.00  0.00    +0.240 C 
ENDBRANCH  18  30
TORSDOF 4
ENDMDL
MODEL 7
REMARK VINA RESULT:      -6.6      2.484      5.510
REMARK  Name = 5379540
REMARK  4 active torsions:
REMARK  status: ('A' for Active; 'I' for Inactive)
REMARK    1  A    between atoms: C_9  and  O_23
REMARK    2  A    between atoms: C_12  and  O_25
REMARK    3  A    between atoms: C_18  and  C_30
REMARK    4  A    between atoms: C_20  and  O_27
REMARK                            x       y       z     vdW  Elec       q    Type
REMARK                         _______ _______ _______ _____ _____    ______ ____
ROOT
ATOM      1  O   UNL     1     -36.558  26.162   3.793  0.00  0.00    -0.450 OA
ATOM      2  O   UNL     1     -38.470  23.149   1.295  0.00  0.00    -0.417 OA
ATOM      3  O   UNL     1     -34.791  24.865   5.662  0.00  0.00    -0.418 OA
ATOM      4  O   UNL     1     -37.937  20.918   1.592  0.00  0.00    -0.245 OA
ATOM      5  O   UNL     1     -33.752  26.666   6.616  0.00  0.00    -0.244 OA
ATOM      6  C   UNL     1     -37.109  24.034   2.902  0.00  0.00    +0.094 A 
ATOM      7  C   UNL     1     -36.375  24.809   3.782  0.00  0.00    +0.182 A 
ATOM      8  C   UNL     1     -36.949  22.661   2.892  0.00  0.00    +0.114 A 
ATOM      9  C   UNL     1     -38.099  24.424   1.875  0.00  0.00    +0.315 C 
ATOM     10  C   UNL     1     -35.505  24.164   4.659  0.00  0.00    +0.182 A 
ATOM     11  C   UNL     1     -35.361  22.766   4.655  0.00  0.00    +0.050 A 
ATOM     12  C   UNL     1     -36.088  21.997   3.748  0.00  0.00    +0.139 A 
ATOM     13  C   UNL     1     -35.416  26.865   3.500  0.00  0.00    +0.157 C 
ATOM     14  C   UNL     1     -37.819  22.093   1.873  0.00  0.00    +0.346 C 
ATOM     15  C   UNL     1     -34.303  26.870   4.340  0.00  0.00    +0.107 C 
ATOM     16  C   UNL     1     -33.185  27.641   3.996  0.00  0.00    -0.010 C 
ATOM     17  C   UNL     1     -34.433  22.102   5.620  0.00  0.00    +0.038 C 
ATOM     18  C   UNL     1     -35.425  27.633   2.332  0.00  0.00    +0.110 C 
ATOM     19  C   UNL     1     -34.274  26.159   5.630  0.00  0.00    +0.348 C 
ATOM     20  C   UNL     1     -34.305  28.389   1.988  0.00  0.00    +0.139 C 
ATOM     21  C   UNL     1     -33.186  28.391   2.820  0.00  0.00    +0.033 C 
ATOM     22  C   UNL     1     -31.941  27.679   4.826  0.00  0.00    +0.031 C 
ENDROOT
BRANCH   9  23
ATOM     23  O   UNL     1     -39.208  25.068   2.475  0.00  0.00    -0.347 OA
ATOM     24  H   UNL     1     -39.477  24.579   3.269  0.00  0.00    +0.214 HD
ENDBRANCH   9  23
BRANCH  12  25
ATOM     25  O   UNL     1     -35.962  20.645   3.715  0.00  0.00    -0.506 OA
ATOM     26  H   UNL     1     -35.953  20.195   2.893  0.00  0.00    +0.292 HD
ENDBRANCH  12  25
BRANCH  20  27
ATOM     27  O   UNL     1     -34.287  29.140   0.852  0.00  0.00    -0.505 OA
ATOM     28  H   UNL     1     -34.990  29.732   0.668  0.00  0.00    +0.292 HD
ENDBRANCH  20  27
BRANCH  18  30
ATOM     29  O   UNL     1     -37.187  28.715   1.183  0.00  0.00    -0.283 OA
ATOM     30  C   UNL     1     -36.602  27.671   1.470  0.00  0.00    +0.240 C 
ENDBRANCH  18  30
TORSDOF 4
ENDMDL
MODEL 8
REMARK VINA RESULT:      -6.6      3.332      6.072
REMARK  Name = 5379540
REMARK  4 active torsions:
REMARK  status: ('A' for Active; 'I' for Inactive)
REMARK    1  A    between atoms: C_9  and  O_23
REMARK    2  A    between atoms: C_12  and  O_25
REMARK    3  A    between atoms: C_18  and  C_30
REMARK    4  A    between atoms: C_20  and  O_27
REMARK                            x       y       z     vdW  Elec       q    Type
REMARK                         _______ _______ _______ _____ _____    ______ ____
ROOT
ATOM      1  O   UNL     1     -35.131  22.807   0.824  0.00  0.00    -0.450 OA
ATOM      2  O   UNL     1     -36.833  24.029   4.643  0.00  0.00    -0.417 OA
ATOM      3  O   UNL     1     -32.950  24.564   0.149  0.00  0.00    -0.418 OA
ATOM      4  O   UNL     1     -35.909  25.819   5.781  0.00  0.00    -0.245 OA
ATOM      5  O   UNL     1     -32.105  23.530  -1.708  0.00  0.00    -0.244 OA
ATOM      6  C   UNL     1     -35.439  24.029   2.834  0.00  0.00    +0.094 A 
ATOM      7  C   UNL     1     -34.733  23.806   1.664  0.00  0.00    +0.182 A 
ATOM      8  C   UNL     1     -35.059  25.049   3.686  0.00  0.00    +0.114 A 
ATOM      9  C   UNL     1     -36.603  23.316   3.403  0.00  0.00    +0.315 C 
ATOM     10  C   UNL     1     -33.664  24.651   1.370  0.00  0.00    +0.182 A 
ATOM     11  C   UNL     1     -33.296  25.697   2.233  0.00  0.00    +0.050 A 
ATOM     12  C   UNL     1     -33.999  25.897   3.420  0.00  0.00    +0.139 A 
ATOM     13  C   UNL     1     -34.167  21.851   0.625  0.00  0.00    +0.157 C 
ATOM     14  C   UNL     1     -35.949  25.056   4.837  0.00  0.00    +0.346 C 
ATOM     15  C   UNL     1     -32.970  22.120  -0.039  0.00  0.00    +0.107 C 
ATOM     16  C   UNL     1     -32.048  21.086  -0.239  0.00  0.00    -0.010 C 
ATOM     17  C   UNL     1     -32.155  26.597   1.881  0.00  0.00    +0.038 C 
ATOM     18  C   UNL     1     -34.452  20.558   1.075  0.00  0.00    +0.110 C 
ATOM     19  C   UNL     1     -32.660  23.439  -0.620  0.00  0.00    +0.348 C 
ATOM     20  C   UNL     1     -33.524  19.535   0.883  0.00  0.00    +0.139 C 
ATOM     21  C   UNL     1     -32.322  19.800   0.227  0.00  0.00    +0.033 C 
ATOM     22  C   UNL     1     -30.730  21.297  -0.916  0.00  0.00    +0.031 C 
ENDROOT
BRANCH   9  23
ATOM     23  O   UNL     1     -37.715  23.410   2.531  0.00  0.00    -0.347 OA
ATOM     24  H   UNL     1     -37.443  23.838   1.704  0.00  0.00    +0.214 HD
ENDBRANCH   9  23
BRANCH  12  25
ATOM     25  O   UNL     1     -33.659  26.894   4.277  0.00  0.00    -0.506 OA
ATOM     26  H   UNL     1     -33.849  27.785   4.058  0.00  0.00    +0.292 HD
ENDBRANCH  12  25
BRANCH  20  27
ATOM     27  O   UNL     1     -33.774  18.269   1.318  0.00  0.00    -0.505 OA
ATOM     28  H   UNL     1     -34.323  18.129   2.065  0.00  0.00    +0.292 HD
ENDBRANCH  20  27
BRANCH  18  30
ATOM     29  O   UNL     1     -35.826  20.106   2.947  0.00  0.00    -0.283 OA
ATOM     30  C   UNL     1     -35.720  20.256   1.729  0.00  0.00    +0.240 C 
ENDBRANCH  18  30
TORSDOF 4
ENDMDL
MODEL 9
REMARK VINA RESULT:      -6.5      3.692      7.085
REMARK  Name = 5379540
REMARK  4 active torsions:
REMARK  status: ('A' for Active; 'I' for Inactive)
REMARK    1  A    between atoms: C_9  and  O_23
REMARK    2  A    between atoms: C_12  and  O_25
REMARK    3  A    between atoms: C_18  and  C_30
REMARK    4  A    between atoms: C_20  and  O_27
REMARK                            x       y       z     vdW  Elec       q    Type
REMARK                         _______ _______ _______ _____ _____    ______ ____
ROOT
ATOM      1  O   UNL     1     -35.488  24.949   2.610  0.00  0.00    -0.450 OA
ATOM      2  O   UNL     1     -34.120  26.597   6.403  0.00  0.00    -0.417 OA
ATOM      3  O   UNL     1     -33.588  25.607   0.547  0.00  0.00    -0.418 OA
ATOM      4  O   UNL     1     -32.111  27.743   6.489  0.00  0.00    -0.245 OA
ATOM      5  O   UNL     1     -34.411  24.404  -1.215  0.00  0.00    -0.244 OA
ATOM      6  C   UNL     1     -34.113  26.080   4.178  0.00  0.00    +0.094 A 
ATOM      7  C   UNL     1     -34.339  25.630   2.889  0.00  0.00    +0.182 A 
ATOM      8  C   UNL     1     -32.962  26.786   4.472  0.00  0.00    +0.114 A 
ATOM      9  C   UNL     1     -34.923  25.920   5.406  0.00  0.00    +0.315 C 
ATOM     10  C   UNL     1     -33.393  25.936   1.911  0.00  0.00    +0.182 A 
ATOM     11  C   UNL     1     -32.234  26.670   2.215  0.00  0.00    +0.050 A 
ATOM     12  C   UNL     1     -32.006  27.097   3.522  0.00  0.00    +0.139 A 
ATOM     13  C   UNL     1     -35.265  23.679   2.141  0.00  0.00    +0.157 C 
ATOM     14  C   UNL     1     -32.965  27.123   5.888  0.00  0.00    +0.346 C 
ATOM     15  C   UNL     1     -34.657  23.432   0.910  0.00  0.00    +0.107 C 
ATOM     16  C   UNL     1     -34.495  22.110   0.477  0.00  0.00    -0.010 C 
ATOM     17  C   UNL     1     -31.247  26.997   1.140  0.00  0.00    +0.038 C 
ATOM     18  C   UNL     1     -35.723  22.621   2.930  0.00  0.00    +0.110 C 
ATOM     19  C   UNL     1     -34.244  24.509  -0.007  0.00  0.00    +0.348 C 
ATOM     20  C   UNL     1     -35.550  21.306   2.499  0.00  0.00    +0.139 C 
ATOM     21  C   UNL     1     -34.934  21.052   1.274  0.00  0.00    +0.033 C 
ATOM     22  C   UNL     1     -33.829  21.757  -0.815  0.00  0.00    +0.031 C 
ENDROOT
BRANCH   9  23
ATOM     23  O   UNL     1     -36.188  26.535   5.247  0.00  0.00    -0.347 OA
ATOM     24  H   UNL     1     -36.649  26.137   4.491  0.00  0.00    +0.214 HD
ENDBRANCH   9  23
BRANCH  12  25
ATOM     25  O   UNL     1     -30.890  27.800   3.845  0.00  0.00    -0.506 OA
ATOM     26  H   UNL     1     -30.958  28.565   4.383  0.00  0.00    +0.292 HD
ENDBRANCH  12  25
BRANCH  20  27
ATOM     27  O   UNL     1     -35.980  20.257   3.253  0.00  0.00    -0.505 OA
ATOM     28  H   UNL     1     -35.370  19.612   3.552  0.00  0.00    +0.292 HD
ENDBRANCH  20  27
BRANCH  18  30
ATOM     29  O   UNL     1     -35.971  22.469   5.278  0.00  0.00    -0.283 OA
ATOM     30  C   UNL     1     -36.402  22.871   4.196  0.00  0.00    +0.240 C 
ENDBRANCH  18  30
TORSDOF 4
ENDMDL
