MODEL 1
REMARK VINA RESULT:      -7.2      0.000      0.000
REMARK  Name = 5702036
REMARK  6 active torsions:
REMARK  status: ('A' for Active; 'I' for Inactive)
REMARK    1  A    between atoms: C_7  and  O_23
REMARK    2  A    between atoms: C_7  and  C_28
REMARK    3  A    between atoms: C_11  and  O_25
REMARK    4  A    between atoms: C_28  and  C_29
REMARK    5  A    between atoms: C_29  and  O_30
REMARK    6  A    between atoms: O_30  and  C_32
REMARK                            x       y       z     vdW  Elec       q    Type
REMARK                         _______ _______ _______ _____ _____    ______ ____
ROOT
ATOM      1  F   UNL     1     -36.502  22.178   0.422  0.00  0.00    -0.237 F 
ATOM      2  O   UNL     1     -35.841  19.037  -3.248  0.00  0.00    -0.287 OA
ATOM      3  C   UNL     1     -35.923  23.767   3.538  0.00  0.00    +0.032 C 
ATOM      4  C   UNL     1     -35.059  24.010   2.285  0.00  0.00    +0.005 C 
ATOM      5  C   UNL     1     -34.535  22.714   1.616  0.00  0.00    +0.033 C 
ATOM      6  C   UNL     1     -35.632  21.638   1.347  0.00  0.00    +0.164 C 
ATOM      7  C   UNL     1     -36.576  25.171   3.773  0.00  0.00    +0.142 C 
ATOM      8  C   UNL     1     -35.943  24.908   1.406  0.00  0.00    +0.003 C 
ATOM      9  C   UNL     1     -37.008  22.691   3.245  0.00  0.00    +0.035 C 
ATOM     10  C   UNL     1     -36.706  25.830   2.375  0.00  0.00    +0.032 C 
ATOM     11  C   UNL     1     -36.488  21.389   2.612  0.00  0.00    +0.141 C 
ATOM     12  C   UNL     1     -35.038  20.344   0.654  0.00  0.00    +0.064 C 
ATOM     13  C   UNL     1     -33.759  23.057   0.328  0.00  0.00    +0.007 C 
ATOM     14  C   UNL     1     -35.061  23.323   4.740  0.00  0.00    +0.003 C 
ATOM     15  C   UNL     1     -33.172  21.818  -0.338  0.00  0.00    +0.023 C 
ATOM     16  C   UNL     1     -34.256  20.801  -0.583  0.00  0.00    -0.035 C 
ATOM     17  C   UNL     1     -38.131  26.092   1.894  0.00  0.00    +0.003 C 
ATOM     18  C   UNL     1     -34.075  19.524   1.545  0.00  0.00    +0.011 C 
ATOM     19  C   UNL     1     -36.165  19.394   0.271  0.00  0.00    -0.017 C 
ATOM     20  C   UNL     1     -34.520  20.381  -1.832  0.00  0.00    +0.034 C 
ATOM     21  C   UNL     1     -36.434  18.973  -0.969  0.00  0.00    +0.038 C 
ATOM     22  C   UNL     1     -35.615  19.429  -2.107  0.00  0.00    +0.195 C 
ENDROOT
BRANCH   7  23
ATOM     23  O   UNL     1     -37.807  25.055   4.471  0.00  0.00    -0.380 OA
ATOM     24  H   UNL     1     -38.074  24.124   4.502  0.00  0.00    +0.211 HD
ENDBRANCH   7  23
BRANCH  11  25
ATOM     25  O   UNL     1     -35.786  20.628   3.583  0.00  0.00    -0.382 OA
ATOM     26  H   UNL     1     -35.174  20.022   3.138  0.00  0.00    +0.210 HD
ENDBRANCH  11  25
BRANCH   7  28
ATOM     27  O   UNL     1     -36.007  26.218   5.847  0.00  0.00    -0.290 OA
ATOM     28  C   UNL     1     -35.740  26.067   4.656  0.00  0.00    +0.218 C 
BRANCH  28  29
ATOM     29  C   UNL     1     -34.567  26.755   3.993  0.00  0.00    +0.274 C 
BRANCH  29  30
ATOM     30  O   UNL     1     -33.376  26.518   4.714  0.00  0.00    -0.440 OA
BRANCH  30  32
ATOM     31  O   UNL     1     -32.654  28.699   4.956  0.00  0.00    -0.250 OA
ATOM     32  C   UNL     1     -32.868  27.583   5.412  0.00  0.00    +0.318 C 
ATOM     33  C   UNL     1     -32.608  27.195   6.835  0.00  0.00    +0.121 C 
ENDBRANCH  30  32
ENDBRANCH  29  30
ENDBRANCH  28  29
ENDBRANCH   7  28
TORSDOF 6
ENDMDL
MODEL 2
REMARK VINA RESULT:      -7.1      2.009      7.909
REMARK  Name = 5702036
REMARK  6 active torsions:
REMARK  status: ('A' for Active; 'I' for Inactive)
REMARK    1  A    between atoms: C_7  and  O_23
REMARK    2  A    between atoms: C_7  and  C_28
REMARK    3  A    between atoms: C_11  and  O_25
REMARK    4  A    between atoms: C_28  and  C_29
REMARK    5  A    between atoms: C_29  and  O_30
REMARK    6  A    between atoms: O_30  and  C_32
REMARK                            x       y       z     vdW  Elec       q    Type
REMARK                         _______ _______ _______ _____ _____    ______ ____
ROOT
ATOM      1  F   UNL     1     -34.514  23.358   3.372  0.00  0.00    -0.237 F 
ATOM      2  O   UNL     1     -32.698  27.171   5.809  0.00  0.00    -0.287 OA
ATOM      3  C   UNL     1     -36.691  21.555   1.233  0.00  0.00    +0.032 C 
ATOM      4  C   UNL     1     -35.600  22.517   0.723  0.00  0.00    +0.005 C 
ATOM      5  C   UNL     1     -35.642  23.923   1.374  0.00  0.00    +0.033 C 
ATOM      6  C   UNL     1     -35.701  23.909   2.933  0.00  0.00    +0.164 C 
ATOM      7  C   UNL     1     -36.197  20.171   0.690  0.00  0.00    +0.142 C 
ATOM      8  C   UNL     1     -34.299  21.725   0.919  0.00  0.00    +0.003 C 
ATOM      9  C   UNL     1     -36.729  21.560   2.789  0.00  0.00    +0.035 C 
ATOM     10  C   UNL     1     -34.650  20.255   0.627  0.00  0.00    +0.032 C 
ATOM     11  C   UNL     1     -36.805  22.951   3.439  0.00  0.00    +0.141 C 
ATOM     12  C   UNL     1     -35.729  25.372   3.540  0.00  0.00    +0.064 C 
ATOM     13  C   UNL     1     -34.464  24.779   0.865  0.00  0.00    +0.007 C 
ATOM     14  C   UNL     1     -38.081  21.930   0.677  0.00  0.00    +0.003 C 
ATOM     15  C   UNL     1     -34.493  26.193   1.433  0.00  0.00    +0.023 C 
ATOM     16  C   UNL     1     -34.549  26.144   2.938  0.00  0.00    -0.035 C 
ATOM     17  C   UNL     1     -33.895  19.304   1.552  0.00  0.00    +0.003 C 
ATOM     18  C   UNL     1     -37.020  26.168   3.232  0.00  0.00    +0.011 C 
ATOM     19  C   UNL     1     -35.628  25.309   5.057  0.00  0.00    -0.017 C 
ATOM     20  C   UNL     1     -33.579  26.716   3.671  0.00  0.00    +0.034 C 
ATOM     21  C   UNL     1     -34.665  25.875   5.792  0.00  0.00    +0.038 C 
ATOM     22  C   UNL     1     -33.579  26.633   5.145  0.00  0.00    +0.195 C 
ENDROOT
BRANCH   7  23
ATOM     23  O   UNL     1     -36.684  19.103   1.488  0.00  0.00    -0.380 OA
ATOM     24  H   UNL     1     -36.717  19.381   2.416  0.00  0.00    +0.211 HD
ENDBRANCH   7  23
BRANCH  11  25
ATOM     25  O   UNL     1     -38.102  23.498   3.259  0.00  0.00    -0.382 OA
ATOM     26  H   UNL     1     -38.657  22.863   2.781  0.00  0.00    +0.210 HD
ENDBRANCH  11  25
BRANCH   7  28
ATOM     27  O   UNL     1     -36.297  20.451  -1.683  0.00  0.00    -0.290 OA
ATOM     28  C   UNL     1     -36.723  19.862  -0.692  0.00  0.00    +0.218 C 
BRANCH  28  29
ATOM     29  C   UNL     1     -37.792  18.794  -0.778  0.00  0.00    +0.274 C 
BRANCH  29  30
ATOM     30  O   UNL     1     -37.210  17.511  -0.867  0.00  0.00    -0.440 OA
BRANCH  30  32
ATOM     31  O   UNL     1     -37.658  15.616   0.377  0.00  0.00    -0.250 OA
ATOM     32  C   UNL     1     -37.986  16.463  -0.445  0.00  0.00    +0.318 C 
ATOM     33  C   UNL     1     -39.317  16.492  -1.132  0.00  0.00    +0.121 C 
ENDBRANCH  30  32
ENDBRANCH  29  30
ENDBRANCH  28  29
ENDBRANCH   7  28
TORSDOF 6
ENDMDL
MODEL 3
REMARK VINA RESULT:      -7.0      1.845      2.451
REMARK  Name = 5702036
REMARK  6 active torsions:
REMARK  status: ('A' for Active; 'I' for Inactive)
REMARK    1  A    between atoms: C_7  and  O_23
REMARK    2  A    between atoms: C_7  and  C_28
REMARK    3  A    between atoms: C_11  and  O_25
REMARK    4  A    between atoms: C_28  and  C_29
REMARK    5  A    between atoms: C_29  and  O_30
REMARK    6  A    between atoms: O_30  and  C_32
REMARK                            x       y       z     vdW  Elec       q    Type
REMARK                         _______ _______ _______ _____ _____    ______ ____
ROOT
ATOM      1  F   UNL     1     -37.138  23.744   0.984  0.00  0.00    -0.237 F 
ATOM      2  O   UNL     1     -39.304  20.596  -2.044  0.00  0.00    -0.287 OA
ATOM      3  C   UNL     1     -35.004  24.874   3.579  0.00  0.00    +0.032 C 
ATOM      4  C   UNL     1     -34.502  24.480   2.176  0.00  0.00    +0.005 C 
ATOM      5  C   UNL     1     -34.984  23.086   1.700  0.00  0.00    +0.033 C 
ATOM      6  C   UNL     1     -36.521  22.853   1.839  0.00  0.00    +0.164 C 
ATOM      7  C   UNL     1     -34.672  26.404   3.636  0.00  0.00    +0.142 C 
ATOM      8  C   UNL     1     -34.919  25.670   1.297  0.00  0.00    +0.003 C 
ATOM      9  C   UNL     1     -36.537  24.633   3.692  0.00  0.00    +0.035 C 
ATOM     10  C   UNL     1     -34.759  26.923   2.177  0.00  0.00    +0.032 C 
ATOM     11  C   UNL     1     -37.016  23.239   3.254  0.00  0.00    +0.141 C 
ATOM     12  C   UNL     1     -36.953  21.418   1.328  0.00  0.00    +0.064 C 
ATOM     13  C   UNL     1     -34.506  22.821   0.259  0.00  0.00    +0.007 C 
ATOM     14  C   UNL     1     -34.269  24.084   4.684  0.00  0.00    +0.003 C 
ATOM     15  C   UNL     1     -34.905  21.436  -0.236  0.00  0.00    +0.023 C 
ATOM     16  C   UNL     1     -36.393  21.245  -0.089  0.00  0.00    -0.035 C 
ATOM     17  C   UNL     1     -35.857  27.946   1.899  0.00  0.00    +0.003 C 
ATOM     18  C   UNL     1     -36.428  20.246   2.190  0.00  0.00    +0.011 C 
ATOM     19  C   UNL     1     -38.471  21.297   1.336  0.00  0.00    -0.017 C 
ATOM     20  C   UNL     1     -37.152  20.984  -1.166  0.00  0.00    +0.034 C 
ATOM     21  C   UNL     1     -39.232  21.039   0.268  0.00  0.00    +0.038 C 
ATOM     22  C   UNL     1     -38.618  20.850  -1.059  0.00  0.00    +0.195 C 
ENDROOT
BRANCH   7  23
ATOM     23  O   UNL     1     -35.532  27.083   4.539  0.00  0.00    -0.380 OA
ATOM     24  H   UNL     1     -36.421  27.139   4.159  0.00  0.00    +0.211 HD
ENDBRANCH   7  23
BRANCH  11  25
ATOM     25  O   UNL     1     -36.643  22.274   4.225  0.00  0.00    -0.382 OA
ATOM     26  H   UNL     1     -37.391  21.680   4.394  0.00  0.00    +0.210 HD
ENDBRANCH  11  25
BRANCH   7  28
ATOM     27  O   UNL     1     -32.302  26.655   3.434  0.00  0.00    -0.290 OA
ATOM     28  C   UNL     1     -33.288  26.686   4.169  0.00  0.00    +0.218 C 
BRANCH  28  29
ATOM     29  C   UNL     1     -33.190  27.004   5.646  0.00  0.00    +0.274 C 
BRANCH  29  30
ATOM     30  O   UNL     1     -32.784  28.343   5.841  0.00  0.00    -0.440 OA
BRANCH  30  32
ATOM     31  O   UNL     1     -30.575  27.764   6.195  0.00  0.00    -0.250 OA
ATOM     32  C   UNL     1     -31.523  28.525   6.347  0.00  0.00    +0.318 C 
ATOM     33  C   UNL     1     -31.455  29.803   7.126  0.00  0.00    +0.121 C 
ENDBRANCH  30  32
ENDBRANCH  29  30
ENDBRANCH  28  29
ENDBRANCH   7  28
TORSDOF 6
ENDMDL
MODEL 4
REMARK VINA RESULT:      -6.7      2.034      7.966
REMARK  Name = 5702036
REMARK  6 active torsions:
REMARK  status: ('A' for Active; 'I' for Inactive)
REMARK    1  A    between atoms: C_7  and  O_23
REMARK    2  A    between atoms: C_7  and  C_28
REMARK    3  A    between atoms: C_11  and  O_25
REMARK    4  A    between atoms: C_28  and  C_29
REMARK    5  A    between atoms: C_29  and  O_30
REMARK    6  A    between atoms: O_30  and  C_32
REMARK                            x       y       z     vdW  Elec       q    Type
REMARK                         _______ _______ _______ _____ _____    ______ ____
ROOT
ATOM      1  F   UNL     1     -34.502  22.828   2.680  0.00  0.00    -0.237 F 
ATOM      2  O   UNL     1     -34.469  26.995   5.211  0.00  0.00    -0.287 OA
ATOM      3  C   UNL     1     -35.737  20.295   0.529  0.00  0.00    +0.032 C 
ATOM      4  C   UNL     1     -35.205  21.653   0.028  0.00  0.00    +0.005 C 
ATOM      5  C   UNL     1     -35.839  22.879   0.732  0.00  0.00    +0.033 C 
ATOM      6  C   UNL     1     -35.826  22.806   2.291  0.00  0.00    +0.164 C 
ATOM      7  C   UNL     1     -34.704  19.286  -0.077  0.00  0.00    +0.142 C 
ATOM      8  C   UNL     1     -33.681  21.514   0.164  0.00  0.00    +0.003 C 
ATOM      9  C   UNL     1     -35.715  20.247   2.084  0.00  0.00    +0.035 C 
ATOM     10  C   UNL     1     -33.357  20.048  -0.174  0.00  0.00    +0.032 C 
ATOM     11  C   UNL     1     -36.373  21.446   2.787  0.00  0.00    +0.141 C 
ATOM     12  C   UNL     1     -36.476  24.091   2.951  0.00  0.00    +0.064 C 
ATOM     13  C   UNL     1     -35.182  24.179   0.227  0.00  0.00    +0.007 C 
ATOM     14  C   UNL     1     -37.170  20.028   0.021  0.00  0.00    +0.003 C 
ATOM     15  C   UNL     1     -35.812  25.421   0.847  0.00  0.00    +0.023 C 
ATOM     16  C   UNL     1     -35.782  25.319   2.350  0.00  0.00    -0.035 C 
ATOM     17  C   UNL     1     -32.224  19.510   0.697  0.00  0.00    +0.003 C 
ATOM     18  C   UNL     1     -37.996  24.238   2.704  0.00  0.00    +0.011 C 
ATOM     19  C   UNL     1     -36.299  24.045   4.462  0.00  0.00    -0.017 C 
ATOM     20  C   UNL     1     -35.139  26.245   3.080  0.00  0.00    +0.034 C 
ATOM     21  C   UNL     1     -35.659  24.963   5.194  0.00  0.00    +0.038 C 
ATOM     22  C   UNL     1     -35.045  26.138   4.549  0.00  0.00    +0.195 C 
ENDROOT
BRANCH   7  23
ATOM     23  O   UNL     1     -34.636  18.095   0.693  0.00  0.00    -0.380 OA
ATOM     24  H   UNL     1     -33.981  17.496   0.306  0.00  0.00    +0.211 HD
ENDBRANCH   7  23
BRANCH  11  25
ATOM     25  O   UNL     1     -37.784  21.366   2.659  0.00  0.00    -0.382 OA
ATOM     26  H   UNL     1     -38.074  21.927   1.924  0.00  0.00    +0.210 HD
ENDBRANCH  11  25
BRANCH   7  28
ATOM     27  O   UNL     1     -35.189  19.589  -2.399  0.00  0.00    -0.290 OA
ATOM     28  C   UNL     1     -35.091  18.806  -1.455  0.00  0.00    +0.218 C 
BRANCH  28  29
ATOM     29  C   UNL     1     -35.346  17.322  -1.602  0.00  0.00    +0.274 C 
BRANCH  29  30
ATOM     30  O   UNL     1     -36.705  17.023  -1.362  0.00  0.00    -0.440 OA
BRANCH  30  32
ATOM     31  O   UNL     1     -36.106  15.330   0.092  0.00  0.00    -0.250 OA
ATOM     32  C   UNL     1     -36.954  15.987  -0.500  0.00  0.00    +0.318 C 
ATOM     33  C   UNL     1     -38.429  15.759  -0.372  0.00  0.00    +0.121 C 
ENDBRANCH  30  32
ENDBRANCH  29  30
ENDBRANCH  28  29
ENDBRANCH   7  28
TORSDOF 6
ENDMDL
MODEL 5
REMARK VINA RESULT:      -6.6      3.003      5.622
REMARK  Name = 5702036
REMARK  6 active torsions:
REMARK  status: ('A' for Active; 'I' for Inactive)
REMARK    1  A    between atoms: C_7  and  O_23
REMARK    2  A    between atoms: C_7  and  C_28
REMARK    3  A    between atoms: C_11  and  O_25
REMARK    4  A    between atoms: C_28  and  C_29
REMARK    5  A    between atoms: C_29  and  O_30
REMARK    6  A    between atoms: O_30  and  C_32
REMARK                            x       y       z     vdW  Elec       q    Type
REMARK                         _______ _______ _______ _____ _____    ______ ____
ROOT
ATOM      1  F   UNL     1     -34.001  25.117   2.441  0.00  0.00    -0.237 F 
ATOM      2  O   UNL     1     -35.466  20.533   3.230  0.00  0.00    -0.287 OA
ATOM      3  C   UNL     1     -34.061  28.658   2.574  0.00  0.00    +0.032 C 
ATOM      4  C   UNL     1     -33.645  27.769   3.762  0.00  0.00    +0.005 C 
ATOM      5  C   UNL     1     -34.666  26.656   4.106  0.00  0.00    +0.033 C 
ATOM      6  C   UNL     1     -35.118  25.795   2.885  0.00  0.00    +0.164 C 
ATOM      7  C   UNL     1     -32.733  29.423   2.247  0.00  0.00    +0.142 C 
ATOM      8  C   UNL     1     -32.236  27.293   3.380  0.00  0.00    +0.003 C 
ATOM      9  C   UNL     1     -34.506  27.778   1.370  0.00  0.00    +0.035 C 
ATOM     10  C   UNL     1     -31.574  28.472   2.645  0.00  0.00    +0.032 C 
ATOM     11  C   UNL     1     -35.545  26.693   1.700  0.00  0.00    +0.141 C 
ATOM     12  C   UNL     1     -36.151  24.668   3.301  0.00  0.00    +0.064 C 
ATOM     13  C   UNL     1     -34.123  25.770   5.245  0.00  0.00    +0.007 C 
ATOM     14  C   UNL     1     -35.201  29.624   2.962  0.00  0.00    +0.003 C 
ATOM     15  C   UNL     1     -35.117  24.692   5.662  0.00  0.00    +0.023 C 
ATOM     16  C   UNL     1     -35.531  23.880   4.461  0.00  0.00    -0.035 C 
ATOM     17  C   UNL     1     -30.687  27.992   1.500  0.00  0.00    +0.003 C 
ATOM     18  C   UNL     1     -37.524  25.201   3.772  0.00  0.00    +0.011 C 
ATOM     19  C   UNL     1     -36.438  23.761   2.113  0.00  0.00    -0.017 C 
ATOM     20  C   UNL     1     -35.311  22.555   4.431  0.00  0.00    +0.034 C 
ATOM     21  C   UNL     1     -36.221  22.443   2.076  0.00  0.00    +0.038 C 
ATOM     22  C   UNL     1     -35.654  21.746   3.245  0.00  0.00    +0.195 C 
ENDROOT
BRANCH   7  23
ATOM     23  O   UNL     1     -32.699  29.835   0.889  0.00  0.00    -0.380 OA
ATOM     24  H   UNL     1     -31.887  29.508   0.472  0.00  0.00    +0.211 HD
ENDBRANCH   7  23
BRANCH  11  25
ATOM     25  O   UNL     1     -36.813  27.291   1.921  0.00  0.00    -0.382 OA
ATOM     26  H   UNL     1     -36.691  28.196   2.246  0.00  0.00    +0.210 HD
ENDBRANCH  11  25
BRANCH   7  28
ATOM     27  O   UNL     1     -33.197  31.728   2.686  0.00  0.00    -0.290 OA
ATOM     28  C   UNL     1     -32.592  30.711   3.022  0.00  0.00    +0.218 C 
BRANCH  28  29
ATOM     29  C   UNL     1     -31.672  30.673   4.223  0.00  0.00    +0.274 C 
BRANCH  29  30
ATOM     30  O   UNL     1     -32.389  30.326   5.389  0.00  0.00    -0.440 OA
BRANCH  30  32
ATOM     31  O   UNL     1     -32.302  28.620   6.945  0.00  0.00    -0.250 OA
ATOM     32  C   UNL     1     -31.757  29.473   6.257  0.00  0.00    +0.318 C 
ATOM     33  C   UNL     1     -30.280  29.727   6.251  0.00  0.00    +0.121 C 
ENDBRANCH  30  32
ENDBRANCH  29  30
ENDBRANCH  28  29
ENDBRANCH   7  28
TORSDOF 6
ENDMDL
MODEL 6
REMARK VINA RESULT:      -6.6      2.441      4.839
REMARK  Name = 5702036
REMARK  6 active torsions:
REMARK  status: ('A' for Active; 'I' for Inactive)
REMARK    1  A    between atoms: C_7  and  O_23
REMARK    2  A    between atoms: C_7  and  C_28
REMARK    3  A    between atoms: C_11  and  O_25
REMARK    4  A    between atoms: C_28  and  C_29
REMARK    5  A    between atoms: C_29  and  O_30
REMARK    6  A    between atoms: O_30  and  C_32
REMARK                            x       y       z     vdW  Elec       q    Type
REMARK                         _______ _______ _______ _____ _____    ______ ____
ROOT
ATOM      1  F   UNL     1     -34.280  21.651   2.172  0.00  0.00    -0.237 F 
ATOM      2  O   UNL     1     -31.934  17.467   1.298  0.00  0.00    -0.287 OA
ATOM      3  C   UNL     1     -36.373  24.442   1.544  0.00  0.00    +0.032 C 
ATOM      4  C   UNL     1     -36.908  23.027   1.842  0.00  0.00    +0.005 C 
ATOM      5  C   UNL     1     -36.288  21.918   0.956  0.00  0.00    +0.033 C 
ATOM      6  C   UNL     1     -34.729  21.934   0.898  0.00  0.00    +0.164 C 
ATOM      7  C   UNL     1     -36.885  25.261   2.777  0.00  0.00    +0.142 C 
ATOM      8  C   UNL     1     -36.695  22.874   3.356  0.00  0.00    +0.003 C 
ATOM      9  C   UNL     1     -34.818  24.432   1.491  0.00  0.00    +0.035 C 
ATOM     10  C   UNL     1     -36.953  24.265   3.963  0.00  0.00    +0.032 C 
ATOM     11  C   UNL     1     -34.199  23.354   0.586  0.00  0.00    +0.141 C 
ATOM     12  C   UNL     1     -34.156  20.771  -0.013  0.00  0.00    +0.064 C 
ATOM     13  C   UNL     1     -36.819  20.535   1.387  0.00  0.00    +0.007 C 
ATOM     14  C   UNL     1     -36.935  24.990   0.214  0.00  0.00    +0.003 C 
ATOM     15  C   UNL     1     -36.283  19.412   0.507  0.00  0.00    +0.023 C 
ATOM     16  C   UNL     1     -34.777  19.456   0.473  0.00  0.00    -0.035 C 
ATOM     17  C   UNL     1     -36.008  24.552   5.127  0.00  0.00    +0.003 C 
ATOM     18  C   UNL     1     -34.480  20.918  -1.518  0.00  0.00    +0.011 C 
ATOM     19  C   UNL     1     -32.638  20.731   0.088  0.00  0.00    -0.017 C 
ATOM     20  C   UNL     1     -34.060  18.402   0.895  0.00  0.00    +0.034 C 
ATOM     21  C   UNL     1     -31.918  19.686   0.507  0.00  0.00    +0.038 C 
ATOM     22  C   UNL     1     -32.584  18.439   0.927  0.00  0.00    +0.195 C 
ENDROOT
BRANCH   7  23
ATOM     23  O   UNL     1     -36.062  26.391   3.022  0.00  0.00    -0.380 OA
ATOM     24  H   UNL     1     -36.607  27.125   3.344  0.00  0.00    +0.211 HD
ENDBRANCH   7  23
BRANCH  11  25
ATOM     25  O   UNL     1     -34.390  23.700  -0.777  0.00  0.00    -0.382 OA
ATOM     26  H   UNL     1     -34.913  24.514  -0.833  0.00  0.00    +0.210 HD
ENDBRANCH  11  25
BRANCH   7  28
ATOM     27  O   UNL     1     -38.411  26.901   1.937  0.00  0.00    -0.290 OA
ATOM     28  C   UNL     1     -38.259  25.851   2.560  0.00  0.00    +0.218 C 
BRANCH  28  29
ATOM     29  C   UNL     1     -39.420  25.080   3.148  0.00  0.00    +0.274 C 
BRANCH  29  30
ATOM     30  O   UNL     1     -40.410  24.845   2.168  0.00  0.00    -0.440 OA
BRANCH  30  32
ATOM     31  O   UNL     1     -40.286  22.540   2.077  0.00  0.00    -0.250 OA
ATOM     32  C   UNL     1     -40.353  23.633   1.530  0.00  0.00    +0.318 C 
ATOM     33  C   UNL     1     -40.387  23.826   0.044  0.00  0.00    +0.121 C 
ENDBRANCH  30  32
ENDBRANCH  29  30
ENDBRANCH  28  29
ENDBRANCH   7  28
TORSDOF 6
ENDMDL
MODEL 7
REMARK VINA RESULT:      -6.5      3.462      5.970
REMARK  Name = 5702036
REMARK  6 active torsions:
REMARK  status: ('A' for Active; 'I' for Inactive)
REMARK    1  A    between atoms: C_7  and  O_23
REMARK    2  A    between atoms: C_7  and  C_28
REMARK    3  A    between atoms: C_11  and  O_25
REMARK    4  A    between atoms: C_28  and  C_29
REMARK    5  A    between atoms: C_29  and  O_30
REMARK    6  A    between atoms: O_30  and  C_32
REMARK                            x       y       z     vdW  Elec       q    Type
REMARK                         _______ _______ _______ _____ _____    ______ ____
ROOT
ATOM      1  F   UNL     1     -33.689  24.585   3.055  0.00  0.00    -0.237 F 
ATOM      2  O   UNL     1     -35.171  20.933   5.927  0.00  0.00    -0.287 OA
ATOM      3  C   UNL     1     -33.907  27.560   1.141  0.00  0.00    +0.032 C 
ATOM      4  C   UNL     1     -33.848  27.541   2.682  0.00  0.00    +0.005 C 
ATOM      5  C   UNL     1     -34.887  26.601   3.342  0.00  0.00    +0.033 C 
ATOM      6  C   UNL     1     -34.911  25.154   2.758  0.00  0.00    +0.164 C 
ATOM      7  C   UNL     1     -32.569  28.284   0.764  0.00  0.00    +0.142 C 
ATOM      8  C   UNL     1     -32.374  27.230   2.982  0.00  0.00    +0.003 C 
ATOM      9  C   UNL     1     -33.930  26.108   0.584  0.00  0.00    +0.035 C 
ATOM     10  C   UNL     1     -31.558  27.944   1.889  0.00  0.00    +0.032 C 
ATOM     11  C   UNL     1     -34.982  25.180   1.213  0.00  0.00    +0.141 C 
ATOM     12  C   UNL     1     -35.983  24.239   3.481  0.00  0.00    +0.064 C 
ATOM     13  C   UNL     1     -34.692  26.585   4.872  0.00  0.00    +0.007 C 
ATOM     14  C   UNL     1     -35.143  28.332   0.633  0.00  0.00    +0.003 C 
ATOM     15  C   UNL     1     -35.729  25.718   5.576  0.00  0.00    +0.023 C 
ATOM     16  C   UNL     1     -35.725  24.330   4.989  0.00  0.00    -0.035 C 
ATOM     17  C   UNL     1     -30.345  27.120   1.466  0.00  0.00    +0.003 C 
ATOM     18  C   UNL     1     -37.452  24.652   3.228  0.00  0.00    +0.011 C 
ATOM     19  C   UNL     1     -35.860  22.804   2.988  0.00  0.00    -0.017 C 
ATOM     20  C   UNL     1     -35.462  23.266   5.767  0.00  0.00    +0.034 C 
ATOM     21  C   UNL     1     -35.598  21.742   3.756  0.00  0.00    +0.038 C 
ATOM     22  C   UNL     1     -35.395  21.902   5.208  0.00  0.00    +0.195 C 
ENDROOT
BRANCH   7  23
ATOM     23  O   UNL     1     -32.132  27.910  -0.534  0.00  0.00    -0.380 OA
ATOM     24  H   UNL     1     -31.174  27.768  -0.524  0.00  0.00    +0.211 HD
ENDBRANCH   7  23
BRANCH  11  25
ATOM     25  O   UNL     1     -36.276  25.535   0.750  0.00  0.00    -0.382 OA
ATOM     26  H   UNL     1     -36.633  24.817   0.206  0.00  0.00    +0.210 HD
ENDBRANCH  11  25
BRANCH   7  28
ATOM     27  O   UNL     1     -33.240  30.321  -0.295  0.00  0.00    -0.290 OA
ATOM     28  C   UNL     1     -32.717  29.784   0.680  0.00  0.00    +0.218 C 
BRANCH  28  29
ATOM     29  C   UNL     1     -32.189  30.576   1.857  0.00  0.00    +0.274 C 
BRANCH  29  30
ATOM     30  O   UNL     1     -33.186  31.439   2.364  0.00  0.00    -0.440 OA
BRANCH  30  32
ATOM     31  O   UNL     1     -33.442  30.591   4.498  0.00  0.00    -0.250 OA
ATOM     32  C   UNL     1     -33.908  30.969   3.431  0.00  0.00    +0.318 C 
ATOM     33  C   UNL     1     -35.372  30.980   3.112  0.00  0.00    +0.121 C 
ENDBRANCH  30  32
ENDBRANCH  29  30
ENDBRANCH  28  29
ENDBRANCH   7  28
TORSDOF 6
ENDMDL
MODEL 8
REMARK VINA RESULT:      -6.4      2.736      4.106
REMARK  Name = 5702036
REMARK  6 active torsions:
REMARK  status: ('A' for Active; 'I' for Inactive)
REMARK    1  A    between atoms: C_7  and  O_23
REMARK    2  A    between atoms: C_7  and  C_28
REMARK    3  A    between atoms: C_11  and  O_25
REMARK    4  A    between atoms: C_28  and  C_29
REMARK    5  A    between atoms: C_29  and  O_30
REMARK    6  A    between atoms: O_30  and  C_32
REMARK                            x       y       z     vdW  Elec       q    Type
REMARK                         _______ _______ _______ _____ _____    ______ ____
ROOT
ATOM      1  F   UNL     1     -37.542  23.346   2.258  0.00  0.00    -0.237 F 
ATOM      2  O   UNL     1     -41.158  20.631   0.433  0.00  0.00    -0.287 OA
ATOM      3  C   UNL     1     -34.909  25.719   2.301  0.00  0.00    +0.032 C 
ATOM      4  C   UNL     1     -36.402  26.104   2.272  0.00  0.00    +0.005 C 
ATOM      5  C   UNL     1     -37.212  25.407   1.150  0.00  0.00    +0.033 C 
ATOM      6  C   UNL     1     -37.025  23.859   1.086  0.00  0.00    +0.164 C 
ATOM      7  C   UNL     1     -34.448  26.272   3.693  0.00  0.00    +0.142 C 
ATOM      8  C   UNL     1     -36.872  25.832   3.708  0.00  0.00    +0.003 C 
ATOM      9  C   UNL     1     -34.749  24.173   2.236  0.00  0.00    +0.035 C 
ATOM     10  C   UNL     1     -35.690  26.206   4.620  0.00  0.00    +0.032 C 
ATOM     11  C   UNL     1     -35.525  23.480   1.104  0.00  0.00    +0.141 C 
ATOM     12  C   UNL     1     -37.886  23.203  -0.071  0.00  0.00    +0.064 C 
ATOM     13  C   UNL     1     -38.703  25.787   1.257  0.00  0.00    +0.007 C 
ATOM     14  C   UNL     1     -34.134  26.372   1.136  0.00  0.00    +0.003 C 
ATOM     15  C   UNL     1     -39.536  25.171   0.139  0.00  0.00    +0.023 C 
ATOM     16  C   UNL     1     -39.333  23.678   0.106  0.00  0.00    -0.035 C 
ATOM     17  C   UNL     1     -35.580  25.258   5.812  0.00  0.00    +0.003 C 
ATOM     18  C   UNL     1     -37.434  23.585  -1.500  0.00  0.00    +0.011 C 
ATOM     19  C   UNL     1     -37.793  21.686   0.007  0.00  0.00    -0.017 C 
ATOM     20  C   UNL     1     -40.377  22.849   0.270  0.00  0.00    +0.034 C 
ATOM     21  C   UNL     1     -38.827  20.855   0.171  0.00  0.00    +0.038 C 
ATOM     22  C   UNL     1     -40.198  21.384   0.299  0.00  0.00    +0.195 C 
ENDROOT
BRANCH   7  23
ATOM     23  O   UNL     1     -33.325  25.555   4.184  0.00  0.00    -0.380 OA
ATOM     24  H   UNL     1     -32.511  25.976   3.871  0.00  0.00    +0.211 HD
ENDBRANCH   7  23
BRANCH  11  25
ATOM     25  O   UNL     1     -34.899  23.744  -0.142  0.00  0.00    -0.382 OA
ATOM     26  H   UNL     1     -34.102  23.198  -0.226  0.00  0.00    +0.210 HD
ENDBRANCH  11  25
BRANCH   7  28
ATOM     27  O   UNL     1     -34.734  28.621   3.344  0.00  0.00    -0.290 OA
ATOM     28  C   UNL     1     -33.967  27.702   3.626  0.00  0.00    +0.218 C 
BRANCH  28  29
ATOM     29  C   UNL     1     -32.501  27.930   3.926  0.00  0.00    +0.274 C 
BRANCH  29  30
ATOM     30  O   UNL     1     -32.346  28.873   4.967  0.00  0.00    -0.440 OA
BRANCH  30  32
ATOM     31  O   UNL     1     -32.191  27.195   6.548  0.00  0.00    -0.250 OA
ATOM     32  C   UNL     1     -32.055  28.363   6.206  0.00  0.00    +0.318 C 
ATOM     33  C   UNL     1     -31.536  29.445   7.103  0.00  0.00    +0.121 C 
ENDBRANCH  30  32
ENDBRANCH  29  30
ENDBRANCH  28  29
ENDBRANCH   7  28
TORSDOF 6
ENDMDL
MODEL 9
REMARK VINA RESULT:      -6.3      2.293      3.221
REMARK  Name = 5702036
REMARK  6 active torsions:
REMARK  status: ('A' for Active; 'I' for Inactive)
REMARK    1  A    between atoms: C_7  and  O_23
REMARK    2  A    between atoms: C_7  and  C_28
REMARK    3  A    between atoms: C_11  and  O_25
REMARK    4  A    between atoms: C_28  and  C_29
REMARK    5  A    between atoms: C_29  and  O_30
REMARK    6  A    between atoms: O_30  and  C_32
REMARK                            x       y       z     vdW  Elec       q    Type
REMARK                         _______ _______ _______ _____ _____    ______ ____
ROOT
ATOM      1  F   UNL     1     -35.058  21.580  -0.752  0.00  0.00    -0.237 F 
ATOM      2  O   UNL     1     -32.467  18.260  -3.209  0.00  0.00    -0.287 OA
ATOM      3  C   UNL     1     -37.436  22.854   1.548  0.00  0.00    +0.032 C 
ATOM      4  C   UNL     1     -36.066  22.286   1.967  0.00  0.00    +0.005 C 
ATOM      5  C   UNL     1     -35.762  20.880   1.393  0.00  0.00    +0.033 C 
ATOM      6  C   UNL     1     -35.981  20.751  -0.147  0.00  0.00    +0.164 C 
ATOM      7  C   UNL     1     -37.316  24.360   1.962  0.00  0.00    +0.142 C 
ATOM      8  C   UNL     1     -35.080  23.398   1.578  0.00  0.00    +0.003 C 
ATOM      9  C   UNL     1     -37.631  22.714   0.010  0.00  0.00    +0.035 C 
ATOM     10  C   UNL     1     -35.814  24.726   1.841  0.00  0.00    +0.032 C 
ATOM     11  C   UNL     1     -37.363  21.311  -0.560  0.00  0.00    +0.141 C 
ATOM     12  C   UNL     1     -35.643  19.297  -0.676  0.00  0.00    +0.064 C 
ATOM     13  C   UNL     1     -34.340  20.437   1.795  0.00  0.00    +0.007 C 
ATOM     14  C   UNL     1     -38.592  22.144   2.285  0.00  0.00    +0.003 C 
ATOM     15  C   UNL     1     -34.012  19.033   1.302  0.00  0.00    +0.023 C 
ATOM     16  C   UNL     1     -34.233  18.944  -0.186  0.00  0.00    -0.035 C 
ATOM     17  C   UNL     1     -35.468  25.775   0.787  0.00  0.00    +0.003 C 
ATOM     18  C   UNL     1     -36.606  18.194  -0.178  0.00  0.00    +0.011 C 
ATOM     19  C   UNL     1     -35.720  19.264  -2.196  0.00  0.00    -0.017 C 
ATOM     20  C   UNL     1     -33.219  18.615  -1.003  0.00  0.00    +0.034 C 
ATOM     21  C   UNL     1     -34.714  18.939  -3.015  0.00  0.00    +0.038 C 
ATOM     22  C   UNL     1     -33.393  18.576  -2.469  0.00  0.00    +0.195 C 
ENDROOT
BRANCH   7  23
ATOM     23  O   UNL     1     -38.172  25.178   1.179  0.00  0.00    -0.380 OA
ATOM     24  H   UNL     1     -38.675  24.624   0.563  0.00  0.00    +0.211 HD
ENDBRANCH   7  23
BRANCH  11  25
ATOM     25  O   UNL     1     -38.417  20.434  -0.199  0.00  0.00    -0.382 OA
ATOM     26  H   UNL     1     -38.896  20.799   0.561  0.00  0.00    +0.210 HD
ENDBRANCH  11  25
BRANCH   7  28
ATOM     27  O   UNL     1     -38.956  24.588   3.688  0.00  0.00    -0.290 OA
ATOM     28  C   UNL     1     -37.765  24.616   3.381  0.00  0.00    +0.218 C 
BRANCH  28  29
ATOM     29  C   UNL     1     -36.673  24.904   4.388  0.00  0.00    +0.274 C 
BRANCH  29  30
ATOM     30  O   UNL     1     -36.461  23.787   5.226  0.00  0.00    -0.440 OA
BRANCH  30  32
ATOM     31  O   UNL     1     -34.171  23.966   4.975  0.00  0.00    -0.250 OA
ATOM     32  C   UNL     1     -35.166  23.348   5.332  0.00  0.00    +0.318 C 
ATOM     33  C   UNL     1     -35.128  21.987   5.958  0.00  0.00    +0.121 C 
ENDBRANCH  30  32
ENDBRANCH  29  30
ENDBRANCH  28  29
ENDBRANCH   7  28
TORSDOF 6
ENDMDL
