MODEL 1
REMARK VINA RESULT:      -7.2      0.000      0.000
REMARK  Name = 53420578
REMARK  6 active torsions:
REMARK  status: ('A' for Active; 'I' for Inactive)
REMARK    1  A    between atoms: C_2  and  C_18
REMARK    2  A    between atoms: C_3  and  O_27
REMARK    3  A    between atoms: C_4  and  N_6
REMARK    4  A    between atoms: C_5  and  C_29
REMARK    5  A    between atoms: C_23  and  N_26
REMARK    6  A    between atoms: C_29  and  O_30
REMARK                            x       y       z     vdW  Elec       q    Type
REMARK                         _______ _______ _______ _____ _____    ______ ____
ROOT
ATOM      1  O   UNL     1     -37.990  22.376   2.726  0.00  0.00    -0.335 OA
ATOM      2  C   UNL     1     -35.988  22.128   1.438  0.00  0.00    +0.099 C 
ATOM      3  C   UNL     1     -37.202  21.840   0.563  0.00  0.00    +0.148 C 
ATOM      4  C   UNL     1     -36.593  22.031   2.848  0.00  0.00    +0.201 C 
ATOM      5  C   UNL     1     -38.307  22.545   1.337  0.00  0.00    +0.173 C 
ENDROOT
BRANCH   4   6
ATOM      6  N   UNL     1     -35.905  22.925   3.852  0.00  0.00    -0.249 N 
ATOM      7  N   UNL     1     -34.802  23.528   5.693  0.00  0.00    -0.242 NA
ATOM      8  N   UNL     1     -36.153  25.092   2.785  0.00  0.00    -0.228 NA
ATOM      9  N   UNL     1     -35.142  26.862   4.128  0.00  0.00    -0.229 NA
ATOM     10  C   UNL     1     -35.740  24.278   3.768  0.00  0.00    +0.152 C 
ATOM     11  C   UNL     1     -35.324  22.521   5.025  0.00  0.00    +0.223 C 
ATOM     12  C   UNL     1     -35.055  24.632   4.919  0.00  0.00    +0.140 C 
ATOM     13  C   UNL     1     -34.756  25.981   5.082  0.00  0.00    +0.143 C 
ATOM     14  C   UNL     1     -35.807  26.370   3.055  0.00  0.00    +0.253 C 
ATOM     15  N   UNL     1     -34.062  26.429   6.220  0.00  0.00    -0.342 N 
ATOM     16  H   UNL     1     -33.856  27.387   6.325  0.00  0.00    +0.144 HD
ATOM     17  H   UNL     1     -33.782  25.787   6.911  0.00  0.00    +0.144 HD
ENDBRANCH   4   6
BRANCH   2  18
ATOM     18  C   UNL     1     -34.806  21.213   1.205  0.00  0.00    -0.016 C 
ATOM     19  C   UNL     1     -33.771  21.613   0.358  0.00  0.00    -0.002 C 
ATOM     20  C   UNL     1     -34.750  19.972   1.837  0.00  0.00    -0.002 C 
ATOM     21  C   UNL     1     -32.681  20.769   0.144  0.00  0.00    +0.024 C 
ATOM     22  C   UNL     1     -33.661  19.128   1.623  0.00  0.00    +0.024 C 
ATOM     23  C   UNL     1     -32.627  19.527   0.776  0.00  0.00    +0.143 C 
BRANCH  23  26
ATOM     24  O   UNL     1     -31.387  17.647   1.276  0.00  0.00    -0.126 OA
ATOM     25  O   UNL     1     -30.695  18.954  -0.347  0.00  0.00    -0.126 OA
ATOM     26  N   UNL     1     -31.516  18.668   0.557  0.00  0.00    +0.058 N 
ENDBRANCH  23  26
ENDBRANCH   2  18
BRANCH   3  27
ATOM     27  O   UNL     1     -37.042  22.390  -0.733  0.00  0.00    -0.381 OA
ATOM     28  H   UNL     1     -37.710  22.014  -1.327  0.00  0.00    +0.210 HD
ENDBRANCH   3  27
BRANCH   5  29
ATOM     29  C   UNL     1     -39.690  21.984   1.060  0.00  0.00    +0.169 C 
BRANCH  29  30
ATOM     30  O   UNL     1     -40.030  21.075   2.096  0.00  0.00    -0.379 OA
ATOM     31  H   UNL     1     -40.162  20.191   1.719  0.00  0.00    +0.211 HD
ENDBRANCH  29  30
ENDBRANCH   5  29
TORSDOF 6
ENDMDL
MODEL 2
REMARK VINA RESULT:      -6.9      3.289      6.668
REMARK  Name = 53420578
REMARK  6 active torsions:
REMARK  status: ('A' for Active; 'I' for Inactive)
REMARK    1  A    between atoms: C_2  and  C_18
REMARK    2  A    between atoms: C_3  and  O_27
REMARK    3  A    between atoms: C_4  and  N_6
REMARK    4  A    between atoms: C_5  and  C_29
REMARK    5  A    between atoms: C_23  and  N_26
REMARK    6  A    between atoms: C_29  and  O_30
REMARK                            x       y       z     vdW  Elec       q    Type
REMARK                         _______ _______ _______ _____ _____    ______ ____
ROOT
ATOM      1  O   UNL     1     -36.822  22.002   1.553  0.00  0.00    -0.335 OA
ATOM      2  C   UNL     1     -38.834  22.932   2.454  0.00  0.00    +0.099 C 
ATOM      3  C   UNL     1     -39.173  21.768   1.532  0.00  0.00    +0.148 C 
ATOM      4  C   UNL     1     -37.383  23.237   2.046  0.00  0.00    +0.201 C 
ATOM      5  C   UNL     1     -37.855  21.008   1.507  0.00  0.00    +0.173 C 
ENDROOT
BRANCH   4   6
ATOM      6  N   UNL     1     -36.552  23.791   3.179  0.00  0.00    -0.249 N 
ATOM      7  N   UNL     1     -35.438  23.853   5.108  0.00  0.00    -0.242 NA
ATOM      8  N   UNL     1     -36.199  26.071   2.419  0.00  0.00    -0.228 NA
ATOM      9  N   UNL     1     -34.858  27.340   4.016  0.00  0.00    -0.229 NA
ATOM     10  C   UNL     1     -36.055  25.058   3.287  0.00  0.00    +0.152 C 
ATOM     11  C   UNL     1     -36.155  23.106   4.296  0.00  0.00    +0.223 C 
ATOM     12  C   UNL     1     -35.367  25.076   4.491  0.00  0.00    +0.140 C 
ATOM     13  C   UNL     1     -34.755  26.273   4.846  0.00  0.00    +0.143 C 
ATOM     14  C   UNL     1     -35.563  27.174   2.871  0.00  0.00    +0.253 C 
ATOM     15  N   UNL     1     -34.036  26.382   6.050  0.00  0.00    -0.342 N 
ATOM     16  H   UNL     1     -33.606  27.234   6.291  0.00  0.00    +0.144 HD
ATOM     17  H   UNL     1     -33.961  25.606   6.650  0.00  0.00    +0.144 HD
ENDBRANCH   4   6
BRANCH   2  18
ATOM     18  C   UNL     1     -39.770  24.117   2.352  0.00  0.00    -0.016 C 
ATOM     19  C   UNL     1     -40.538  24.302   1.202  0.00  0.00    -0.002 C 
ATOM     20  C   UNL     1     -39.866  25.022   3.409  0.00  0.00    -0.002 C 
ATOM     21  C   UNL     1     -41.401  25.394   1.110  0.00  0.00    +0.024 C 
ATOM     22  C   UNL     1     -40.729  26.114   3.316  0.00  0.00    +0.024 C 
ATOM     23  C   UNL     1     -41.496  26.299   2.166  0.00  0.00    +0.143 C 
BRANCH  23  26
ATOM     24  O   UNL     1     -43.280  27.398   1.201  0.00  0.00    -0.126 OA
ATOM     25  O   UNL     1     -42.222  28.376   2.858  0.00  0.00    -0.126 OA
ATOM     26  N   UNL     1     -42.375  27.411   2.071  0.00  0.00    +0.058 N 
ENDBRANCH  23  26
ENDBRANCH   2  18
BRANCH   3  27
ATOM     27  O   UNL     1     -40.219  20.977   2.068  0.00  0.00    -0.381 OA
ATOM     28  H   UNL     1     -40.005  20.736   2.983  0.00  0.00    +0.210 HD
ENDBRANCH   3  27
BRANCH   5  29
ATOM     29  C   UNL     1     -37.677  20.148   0.268  0.00  0.00    +0.169 C 
BRANCH  29  30
ATOM     30  O   UNL     1     -38.902  19.489  -0.011  0.00  0.00    -0.379 OA
ATOM     31  H   UNL     1     -38.773  18.863  -0.741  0.00  0.00    +0.211 HD
ENDBRANCH  29  30
ENDBRANCH   5  29
TORSDOF 6
ENDMDL
MODEL 3
REMARK VINA RESULT:      -6.7      1.050      1.916
REMARK  Name = 53420578
REMARK  6 active torsions:
REMARK  status: ('A' for Active; 'I' for Inactive)
REMARK    1  A    between atoms: C_2  and  C_18
REMARK    2  A    between atoms: C_3  and  O_27
REMARK    3  A    between atoms: C_4  and  N_6
REMARK    4  A    between atoms: C_5  and  C_29
REMARK    5  A    between atoms: C_23  and  N_26
REMARK    6  A    between atoms: C_29  and  O_30
REMARK                            x       y       z     vdW  Elec       q    Type
REMARK                         _______ _______ _______ _____ _____    ______ ____
ROOT
ATOM      1  O   UNL     1     -37.691  22.824   2.523  0.00  0.00    -0.335 OA
ATOM      2  C   UNL     1     -36.039  21.969   1.017  0.00  0.00    +0.099 C 
ATOM      3  C   UNL     1     -37.353  21.226   0.814  0.00  0.00    +0.148 C 
ATOM      4  C   UNL     1     -36.266  22.632   2.385  0.00  0.00    +0.201 C 
ATOM      5  C   UNL     1     -38.351  22.210   1.406  0.00  0.00    +0.173 C 
ENDROOT
BRANCH   4   6
ATOM      6  N   UNL     1     -35.530  23.943   2.539  0.00  0.00    -0.249 N 
ATOM      7  N   UNL     1     -34.380  25.765   1.971  0.00  0.00    -0.242 NA
ATOM      8  N   UNL     1     -35.716  24.296   4.935  0.00  0.00    -0.228 NA
ATOM      9  N   UNL     1     -34.623  26.371   5.612  0.00  0.00    -0.229 NA
ATOM     10  C   UNL     1     -35.320  24.633   3.698  0.00  0.00    +0.152 C 
ATOM     11  C   UNL     1     -34.948  24.663   1.530  0.00  0.00    +0.223 C 
ATOM     12  C   UNL     1     -34.605  25.760   3.325  0.00  0.00    +0.140 C 
ATOM     13  C   UNL     1     -34.255  26.647   4.337  0.00  0.00    +0.143 C 
ATOM     14  C   UNL     1     -35.321  25.229   5.828  0.00  0.00    +0.253 C 
ATOM     15  N   UNL     1     -33.530  27.816   4.048  0.00  0.00    -0.342 N 
ATOM     16  H   UNL     1     -33.288  28.437   4.774  0.00  0.00    +0.144 HD
ATOM     17  H   UNL     1     -33.265  28.014   3.122  0.00  0.00    +0.144 HD
ENDBRANCH   4   6
BRANCH   2  18
ATOM     18  C   UNL     1     -34.801  21.101   0.946  0.00  0.00    -0.016 C 
ATOM     19  C   UNL     1     -34.744  19.907   1.666  0.00  0.00    -0.002 C 
ATOM     20  C   UNL     1     -33.719  21.494   0.159  0.00  0.00    -0.002 C 
ATOM     21  C   UNL     1     -33.603  19.108   1.599  0.00  0.00    +0.024 C 
ATOM     22  C   UNL     1     -32.578  20.694   0.092  0.00  0.00    +0.024 C 
ATOM     23  C   UNL     1     -32.521  19.502   0.812  0.00  0.00    +0.143 C 
BRANCH  23  26
ATOM     24  O   UNL     1     -31.300  17.651   1.452  0.00  0.00    -0.126 OA
ATOM     25  O   UNL     1     -30.423  19.024  -0.019  0.00  0.00    -0.126 OA
ATOM     26  N   UNL     1     -31.359  18.687   0.745  0.00  0.00    +0.058 N 
ENDBRANCH  23  26
ENDBRANCH   2  18
BRANCH   3  27
ATOM     27  O   UNL     1     -37.605  20.995  -0.561  0.00  0.00    -0.381 OA
ATOM     28  H   UNL     1     -38.357  21.536  -0.847  0.00  0.00    +0.210 HD
ENDBRANCH   3  27
BRANCH   5  29
ATOM     29  C   UNL     1     -39.639  21.556   1.876  0.00  0.00    +0.169 C 
BRANCH  29  30
ATOM     30  O   UNL     1     -40.042  20.597   0.912  0.00  0.00    -0.379 OA
ATOM     31  H   UNL     1     -39.757  19.714   1.196  0.00  0.00    +0.211 HD
ENDBRANCH  29  30
ENDBRANCH   5  29
TORSDOF 6
ENDMDL
MODEL 4
REMARK VINA RESULT:      -6.6      2.970      6.332
REMARK  Name = 53420578
REMARK  6 active torsions:
REMARK  status: ('A' for Active; 'I' for Inactive)
REMARK    1  A    between atoms: C_2  and  C_18
REMARK    2  A    between atoms: C_3  and  O_27
REMARK    3  A    between atoms: C_4  and  N_6
REMARK    4  A    between atoms: C_5  and  C_29
REMARK    5  A    between atoms: C_23  and  N_26
REMARK    6  A    between atoms: C_29  and  O_30
REMARK                            x       y       z     vdW  Elec       q    Type
REMARK                         _______ _______ _______ _____ _____    ______ ____
ROOT
ATOM      1  O   UNL     1     -38.001  23.187   1.240  0.00  0.00    -0.335 OA
ATOM      2  C   UNL     1     -37.141  24.020   3.312  0.00  0.00    +0.099 C 
ATOM      3  C   UNL     1     -38.444  24.734   2.972  0.00  0.00    +0.148 C 
ATOM      4  C   UNL     1     -36.766  23.399   1.957  0.00  0.00    +0.201 C 
ATOM      5  C   UNL     1     -39.081  23.752   1.998  0.00  0.00    +0.173 C 
ENDROOT
BRANCH   4   6
ATOM      6  N   UNL     1     -35.994  22.107   2.090  0.00  0.00    -0.249 N 
ATOM      7  N   UNL     1     -35.186  20.250   3.020  0.00  0.00    -0.242 NA
ATOM      8  N   UNL     1     -34.989  21.941  -0.115  0.00  0.00    -0.228 NA
ATOM      9  N   UNL     1     -33.622  19.930  -0.317  0.00  0.00    -0.229 NA
ATOM     10  C   UNL     1     -35.224  21.510   1.134  0.00  0.00    +0.152 C 
ATOM     11  C   UNL     1     -35.941  21.312   3.204  0.00  0.00    +0.223 C 
ATOM     12  C   UNL     1     -34.731  20.360   1.730  0.00  0.00    +0.140 C 
ATOM     13  C   UNL     1     -33.902  19.557   0.955  0.00  0.00    +0.143 C 
ATOM     14  C   UNL     1     -34.175  21.082  -0.766  0.00  0.00    +0.253 C 
ATOM     15  N   UNL     1     -33.358  18.371   1.480  0.00  0.00    -0.342 N 
ATOM     16  H   UNL     1     -32.772  17.809   0.922  0.00  0.00    +0.144 HD
ATOM     17  H   UNL     1     -33.563  18.101   2.403  0.00  0.00    +0.144 HD
ENDBRANCH   4   6
BRANCH   2  18
ATOM     18  C   UNL     1     -36.069  24.907   3.907  0.00  0.00    -0.016 C 
ATOM     19  C   UNL     1     -35.419  24.523   5.080  0.00  0.00    -0.002 C 
ATOM     20  C   UNL     1     -35.731  26.106   3.282  0.00  0.00    -0.002 C 
ATOM     21  C   UNL     1     -34.431  25.340   5.628  0.00  0.00    +0.024 C 
ATOM     22  C   UNL     1     -34.742  26.924   3.830  0.00  0.00    +0.024 C 
ATOM     23  C   UNL     1     -34.093  26.541   5.003  0.00  0.00    +0.143 C 
BRANCH  23  26
ATOM     24  O   UNL     1     -32.800  28.451   4.986  0.00  0.00    -0.126 OA
ATOM     25  O   UNL     1     -32.510  27.007   6.615  0.00  0.00    -0.126 OA
ATOM     26  N   UNL     1     -33.086  27.373   5.562  0.00  0.00    +0.058 N 
ENDBRANCH  23  26
ENDBRANCH   2  18
BRANCH   3  27
ATOM     27  O   UNL     1     -39.246  24.915   4.125  0.00  0.00    -0.381 OA
ATOM     28  H   UNL     1     -38.684  25.174   4.871  0.00  0.00    +0.210 HD
ENDBRANCH   3  27
BRANCH   5  29
ATOM     29  C   UNL     1     -40.078  24.400   1.054  0.00  0.00    +0.169 C 
BRANCH  29  30
ATOM     30  O   UNL     1     -40.979  25.191   1.813  0.00  0.00    -0.379 OA
ATOM     31  H   UNL     1     -41.287  24.683   2.580  0.00  0.00    +0.211 HD
ENDBRANCH  29  30
ENDBRANCH   5  29
TORSDOF 6
ENDMDL
MODEL 5
REMARK VINA RESULT:      -6.5      2.376      6.163
REMARK  Name = 53420578
REMARK  6 active torsions:
REMARK  status: ('A' for Active; 'I' for Inactive)
REMARK    1  A    between atoms: C_2  and  C_18
REMARK    2  A    between atoms: C_3  and  O_27
REMARK    3  A    between atoms: C_4  and  N_6
REMARK    4  A    between atoms: C_5  and  C_29
REMARK    5  A    between atoms: C_23  and  N_26
REMARK    6  A    between atoms: C_29  and  O_30
REMARK                            x       y       z     vdW  Elec       q    Type
REMARK                         _______ _______ _______ _____ _____    ______ ____
ROOT
ATOM      1  O   UNL     1     -36.233  20.481  -0.328  0.00  0.00    -0.335 OA
ATOM      2  C   UNL     1     -36.016  21.283   1.916  0.00  0.00    +0.099 C 
ATOM      3  C   UNL     1     -37.469  21.391   1.469  0.00  0.00    +0.148 C 
ATOM      4  C   UNL     1     -35.292  21.103   0.572  0.00  0.00    +0.201 C 
ATOM      5  C   UNL     1     -37.509  20.390   0.324  0.00  0.00    +0.173 C 
ENDROOT
BRANCH   4   6
ATOM      6  N   UNL     1     -34.030  20.280   0.684  0.00  0.00    -0.249 N 
ATOM      7  N   UNL     1     -32.668  18.629   1.304  0.00  0.00    -0.242 NA
ATOM      8  N   UNL     1     -32.507  21.585  -0.687  0.00  0.00    -0.228 NA
ATOM      9  N   UNL     1     -30.292  20.563  -0.769  0.00  0.00    -0.229 NA
ATOM     10  C   UNL     1     -32.824  20.546   0.100  0.00  0.00    +0.152 C 
ATOM     11  C   UNL     1     -33.886  19.119   1.395  0.00  0.00    +0.223 C 
ATOM     12  C   UNL     1     -31.994  19.510   0.497  0.00  0.00    +0.140 C 
ATOM     13  C   UNL     1     -30.683  19.543   0.032  0.00  0.00    +0.143 C 
ATOM     14  C   UNL     1     -31.215  21.507  -1.074  0.00  0.00    +0.253 C 
ATOM     15  N   UNL     1     -29.772  18.532   0.384  0.00  0.00    -0.342 N 
ATOM     16  H   UNL     1     -28.846  18.565   0.049  0.00  0.00    +0.144 HD
ATOM     17  H   UNL     1     -30.058  17.791   0.965  0.00  0.00    +0.144 HD
ENDBRANCH   4   6
BRANCH   2  18
ATOM     18  C   UNL     1     -35.517  22.449   2.740  0.00  0.00    -0.016 C 
ATOM     19  C   UNL     1     -35.031  23.594   2.107  0.00  0.00    -0.002 C 
ATOM     20  C   UNL     1     -35.544  22.381   4.133  0.00  0.00    -0.002 C 
ATOM     21  C   UNL     1     -34.572  24.669   2.868  0.00  0.00    +0.024 C 
ATOM     22  C   UNL     1     -35.084  23.456   4.894  0.00  0.00    +0.024 C 
ATOM     23  C   UNL     1     -34.598  24.599   4.260  0.00  0.00    +0.143 C 
BRANCH  23  26
ATOM     24  O   UNL     1     -32.981  26.149   4.812  0.00  0.00    -0.126 OA
ATOM     25  O   UNL     1     -34.876  26.177   5.920  0.00  0.00    -0.126 OA
ATOM     26  N   UNL     1     -34.130  25.694   5.035  0.00  0.00    +0.058 N 
ENDBRANCH  23  26
ENDBRANCH   2  18
BRANCH   3  27
ATOM     27  O   UNL     1     -38.355  21.024   2.511  0.00  0.00    -0.381 OA
ATOM     28  H   UNL     1     -38.406  21.743   3.160  0.00  0.00    +0.210 HD
ENDBRANCH   3  27
BRANCH   5  29
ATOM     29  C   UNL     1     -38.612  20.666  -0.682  0.00  0.00    +0.169 C 
BRANCH  29  30
ATOM     30  O   UNL     1     -39.855  20.287  -0.112  0.00  0.00    -0.379 OA
ATOM     31  H   UNL     1     -39.762  20.222   0.852  0.00  0.00    +0.211 HD
ENDBRANCH  29  30
ENDBRANCH   5  29
TORSDOF 6
ENDMDL
MODEL 6
REMARK VINA RESULT:      -6.5      3.376      7.099
REMARK  Name = 53420578
REMARK  6 active torsions:
REMARK  status: ('A' for Active; 'I' for Inactive)
REMARK    1  A    between atoms: C_2  and  C_18
REMARK    2  A    between atoms: C_3  and  O_27
REMARK    3  A    between atoms: C_4  and  N_6
REMARK    4  A    between atoms: C_5  and  C_29
REMARK    5  A    between atoms: C_23  and  N_26
REMARK    6  A    between atoms: C_29  and  O_30
REMARK                            x       y       z     vdW  Elec       q    Type
REMARK                         _______ _______ _______ _____ _____    ______ ____
ROOT
ATOM      1  O   UNL     1     -37.086  22.372   1.192  0.00  0.00    -0.335 OA
ATOM      2  C   UNL     1     -39.065  23.200   2.253  0.00  0.00    +0.099 C 
ATOM      3  C   UNL     1     -39.371  21.883   1.551  0.00  0.00    +0.148 C 
ATOM      4  C   UNL     1     -37.732  23.597   1.598  0.00  0.00    +0.201 C 
ATOM      5  C   UNL     1     -37.981  21.275   1.430  0.00  0.00    +0.173 C 
ENDROOT
BRANCH   4   6
ATOM      6  N   UNL     1     -36.837  24.399   2.514  0.00  0.00    -0.249 N 
ATOM      7  N   UNL     1     -35.658  26.125   3.287  0.00  0.00    -0.242 NA
ATOM      8  N   UNL     1     -36.399  22.775   4.266  0.00  0.00    -0.228 NA
ATOM      9  N   UNL     1     -34.946  23.705   5.993  0.00  0.00    -0.229 NA
ATOM     10  C   UNL     1     -36.276  23.978   3.685  0.00  0.00    +0.152 C 
ATOM     11  C   UNL     1     -36.437  25.694   2.318  0.00  0.00    +0.223 C 
ATOM     12  C   UNL     1     -35.549  25.063   4.149  0.00  0.00    +0.140 C 
ATOM     13  C   UNL     1     -34.867  24.895   5.350  0.00  0.00    +0.143 C 
ATOM     14  C   UNL     1     -35.696  22.733   5.419  0.00  0.00    +0.253 C 
ATOM     15  N   UNL     1     -34.105  25.944   5.895  0.00  0.00    -0.342 N 
ATOM     16  H   UNL     1     -33.626  25.814   6.746  0.00  0.00    +0.144 HD
ATOM     17  H   UNL     1     -34.050  26.807   5.427  0.00  0.00    +0.144 HD
ENDBRANCH   4   6
BRANCH   2  18
ATOM     18  C   UNL     1     -40.151  24.247   2.138  0.00  0.00    -0.016 C 
ATOM     19  C   UNL     1     -41.053  24.203   1.075  0.00  0.00    -0.002 C 
ATOM     20  C   UNL     1     -40.250  25.256   3.096  0.00  0.00    -0.002 C 
ATOM     21  C   UNL     1     -42.054  25.169   0.971  0.00  0.00    +0.024 C 
ATOM     22  C   UNL     1     -41.251  26.222   2.991  0.00  0.00    +0.024 C 
ATOM     23  C   UNL     1     -42.153  26.178   1.928  0.00  0.00    +0.143 C 
BRANCH  23  26
ATOM     24  O   UNL     1     -43.100  28.192   2.533  0.00  0.00    -0.126 OA
ATOM     25  O   UNL     1     -44.118  26.972   1.018  0.00  0.00    -0.126 OA
ATOM     26  N   UNL     1     -43.172  27.161   1.821  0.00  0.00    +0.058 N 
ENDBRANCH  23  26
ENDBRANCH   2  18
BRANCH   3  27
ATOM     27  O   UNL     1     -40.226  21.070   2.335  0.00  0.00    -0.381 OA
ATOM     28  H   UNL     1     -41.053  20.913   1.852  0.00  0.00    +0.210 HD
ENDBRANCH   3  27
BRANCH   5  29
ATOM     29  C   UNL     1     -37.858  20.268   0.301  0.00  0.00    +0.169 C 
BRANCH  29  30
ATOM     30  O   UNL     1     -39.147  19.754   0.004  0.00  0.00    -0.379 OA
ATOM     31  H   UNL     1     -39.251  18.883   0.418  0.00  0.00    +0.211 HD
ENDBRANCH  29  30
ENDBRANCH   5  29
TORSDOF 6
ENDMDL
MODEL 7
REMARK VINA RESULT:      -6.4      4.421      7.758
REMARK  Name = 53420578
REMARK  6 active torsions:
REMARK  status: ('A' for Active; 'I' for Inactive)
REMARK    1  A    between atoms: C_2  and  C_18
REMARK    2  A    between atoms: C_3  and  O_27
REMARK    3  A    between atoms: C_4  and  N_6
REMARK    4  A    between atoms: C_5  and  C_29
REMARK    5  A    between atoms: C_23  and  N_26
REMARK    6  A    between atoms: C_29  and  O_30
REMARK                            x       y       z     vdW  Elec       q    Type
REMARK                         _______ _______ _______ _____ _____    ______ ____
ROOT
ATOM      1  O   UNL     1     -31.537  29.020   4.478  0.00  0.00    -0.335 OA
ATOM      2  C   UNL     1     -33.313  27.606   5.236  0.00  0.00    +0.099 C 
ATOM      3  C   UNL     1     -32.072  27.375   6.089  0.00  0.00    +0.148 C 
ATOM      4  C   UNL     1     -32.720  28.333   4.018  0.00  0.00    +0.201 C 
ATOM      5  C   UNL     1     -31.294  28.661   5.846  0.00  0.00    +0.173 C 
ENDROOT
BRANCH   4   6
ATOM      6  N   UNL     1     -33.688  29.299   3.375  0.00  0.00    -0.249 N 
ATOM      7  N   UNL     1     -34.635  31.239   2.821  0.00  0.00    -0.242 NA
ATOM      8  N   UNL     1     -35.143  27.766   2.179  0.00  0.00    -0.228 NA
ATOM      9  N   UNL     1     -36.894  28.966   0.973  0.00  0.00    -0.229 NA
ATOM     10  C   UNL     1     -34.744  28.987   2.568  0.00  0.00    +0.152 C 
ATOM     11  C   UNL     1     -33.663  30.663   3.496  0.00  0.00    +0.223 C 
ATOM     12  C   UNL     1     -35.318  30.203   2.235  0.00  0.00    +0.140 C 
ATOM     13  C   UNL     1     -36.434  30.165   1.405  0.00  0.00    +0.143 C 
ATOM     14  C   UNL     1     -36.230  27.857   1.381  0.00  0.00    +0.253 C 
ATOM     15  N   UNL     1     -37.080  31.351   1.016  0.00  0.00    -0.342 N 
ATOM     16  H   UNL     1     -37.869  31.312   0.428  0.00  0.00    +0.144 HD
ATOM     17  H   UNL     1     -36.743  32.221   1.330  0.00  0.00    +0.144 HD
ENDBRANCH   4   6
BRANCH   2  18
ATOM     18  C   UNL     1     -34.091  26.355   4.895  0.00  0.00    -0.016 C 
ATOM     19  C   UNL     1     -33.664  25.529   3.855  0.00  0.00    -0.002 C 
ATOM     20  C   UNL     1     -35.235  26.026   5.622  0.00  0.00    -0.002 C 
ATOM     21  C   UNL     1     -34.382  24.375   3.542  0.00  0.00    +0.024 C 
ATOM     22  C   UNL     1     -35.953  24.871   5.309  0.00  0.00    +0.024 C 
ATOM     23  C   UNL     1     -35.526  24.047   4.268  0.00  0.00    +0.143 C 
BRANCH  23  26
ATOM     24  O   UNL     1     -35.702  21.754   4.085  0.00  0.00    -0.126 OA
ATOM     25  O   UNL     1     -37.437  22.982   3.538  0.00  0.00    -0.126 OA
ATOM     26  N   UNL     1     -36.257  22.871   3.949  0.00  0.00    +0.058 N 
ENDBRANCH  23  26
ENDBRANCH   2  18
BRANCH   3  27
ATOM     27  O   UNL     1     -32.409  27.222   7.456  0.00  0.00    -0.381 OA
ATOM     28  H   UNL     1     -33.279  27.619   7.620  0.00  0.00    +0.210 HD
ENDBRANCH   3  27
BRANCH   5  29
ATOM     29  C   UNL     1     -29.800  28.515   6.073  0.00  0.00    +0.169 C 
BRANCH  29  30
ATOM     30  O   UNL     1     -29.569  27.364   6.870  0.00  0.00    -0.379 OA
ATOM     31  H   UNL     1     -29.136  27.625   7.698  0.00  0.00    +0.211 HD
ENDBRANCH  29  30
ENDBRANCH   5  29
TORSDOF 6
ENDMDL
MODEL 8
REMARK VINA RESULT:      -6.4      1.473      2.278
REMARK  Name = 53420578
REMARK  6 active torsions:
REMARK  status: ('A' for Active; 'I' for Inactive)
REMARK    1  A    between atoms: C_2  and  C_18
REMARK    2  A    between atoms: C_3  and  O_27
REMARK    3  A    between atoms: C_4  and  N_6
REMARK    4  A    between atoms: C_5  and  C_29
REMARK    5  A    between atoms: C_23  and  N_26
REMARK    6  A    between atoms: C_29  and  O_30
REMARK                            x       y       z     vdW  Elec       q    Type
REMARK                         _______ _______ _______ _____ _____    ______ ____
ROOT
ATOM      1  O   UNL     1     -37.254  21.338   1.485  0.00  0.00    -0.335 OA
ATOM      2  C   UNL     1     -35.166  21.012   0.361  0.00  0.00    +0.099 C 
ATOM      3  C   UNL     1     -36.271  20.269  -0.381  0.00  0.00    +0.148 C 
ATOM      4  C   UNL     1     -35.831  21.277   1.721  0.00  0.00    +0.201 C 
ATOM      5  C   UNL     1     -37.511  21.000   0.114  0.00  0.00    +0.173 C 
ENDROOT
BRANCH   4   6
ATOM      6  N   UNL     1     -35.342  22.544   2.384  0.00  0.00    -0.249 N 
ATOM      7  N   UNL     1     -34.508  24.601   2.586  0.00  0.00    -0.242 NA
ATOM      8  N   UNL     1     -35.675  21.996   4.727  0.00  0.00    -0.228 NA
ATOM      9  N   UNL     1     -34.988  23.837   6.174  0.00  0.00    -0.229 NA
ATOM     10  C   UNL     1     -35.298  22.804   3.724  0.00  0.00    +0.152 C 
ATOM     11  C   UNL     1     -34.858  23.653   1.743  0.00  0.00    +0.223 C 
ATOM     12  C   UNL     1     -34.778  24.084   3.828  0.00  0.00    +0.140 C 
ATOM     13  C   UNL     1     -34.627  24.598   5.112  0.00  0.00    +0.143 C 
ATOM     14  C   UNL     1     -35.482  22.602   5.919  0.00  0.00    +0.253 C 
ATOM     15  N   UNL     1     -34.107  25.889   5.311  0.00  0.00    -0.342 N 
ATOM     16  H   UNL     1     -34.005  26.243   6.225  0.00  0.00    +0.144 HD
ATOM     17  H   UNL     1     -33.847  26.439   4.539  0.00  0.00    +0.144 HD
ENDBRANCH   4   6
BRANCH   2  18
ATOM     18  C   UNL     1     -33.850  20.272   0.446  0.00  0.00    -0.016 C 
ATOM     19  C   UNL     1     -32.712  20.798  -0.168  0.00  0.00    -0.002 C 
ATOM     20  C   UNL     1     -33.773  19.064   1.139  0.00  0.00    -0.002 C 
ATOM     21  C   UNL     1     -31.499  20.115  -0.088  0.00  0.00    +0.024 C 
ATOM     22  C   UNL     1     -32.559  18.381   1.218  0.00  0.00    +0.024 C 
ATOM     23  C   UNL     1     -31.423  18.907   0.604  0.00  0.00    +0.143 C 
BRANCH  23  26
ATOM     24  O   UNL     1     -29.139  18.788   0.303  0.00  0.00    -0.126 OA
ATOM     25  O   UNL     1     -30.176  17.040   1.133  0.00  0.00    -0.126 OA
ATOM     26  N   UNL     1     -30.187  18.211   0.684  0.00  0.00    +0.058 N 
ENDBRANCH  23  26
ENDBRANCH   2  18
BRANCH   3  27
ATOM     27  O   UNL     1     -36.120  20.393  -1.784  0.00  0.00    -0.381 OA
ATOM     28  H   UNL     1     -35.182  20.513  -1.998  0.00  0.00    +0.210 HD
ENDBRANCH   3  27
BRANCH   5  29
ATOM     29  C   UNL     1     -38.778  20.167   0.027  0.00  0.00    +0.169 C 
BRANCH  29  30
ATOM     30  O   UNL     1     -39.729  20.685   0.942  0.00  0.00    -0.379 OA
ATOM     31  H   UNL     1     -39.927  21.608   0.714  0.00  0.00    +0.211 HD
ENDBRANCH  29  30
ENDBRANCH   5  29
TORSDOF 6
ENDMDL
MODEL 9
REMARK VINA RESULT:      -6.4      3.006      4.990
REMARK  Name = 53420578
REMARK  6 active torsions:
REMARK  status: ('A' for Active; 'I' for Inactive)
REMARK    1  A    between atoms: C_2  and  C_18
REMARK    2  A    between atoms: C_3  and  O_27
REMARK    3  A    between atoms: C_4  and  N_6
REMARK    4  A    between atoms: C_5  and  C_29
REMARK    5  A    between atoms: C_23  and  N_26
REMARK    6  A    between atoms: C_29  and  O_30
REMARK                            x       y       z     vdW  Elec       q    Type
REMARK                         _______ _______ _______ _____ _____    ______ ____
ROOT
ATOM      1  O   UNL     1     -36.993  25.113   3.857  0.00  0.00    -0.335 OA
ATOM      2  C   UNL     1     -36.177  22.898   3.466  0.00  0.00    +0.099 C 
ATOM      3  C   UNL     1     -35.323  23.580   4.528  0.00  0.00    +0.148 C 
ATOM      4  C   UNL     1     -36.904  24.096   2.836  0.00  0.00    +0.201 C 
ATOM      5  C   UNL     1     -36.262  24.676   5.012  0.00  0.00    +0.173 C 
ENDROOT
BRANCH   4   6
ATOM      6  N   UNL     1     -38.274  23.747   2.305  0.00  0.00    -0.249 N 
ATOM      7  N   UNL     1     -40.067  22.517   1.817  0.00  0.00    -0.242 NA
ATOM      8  N   UNL     1     -38.982  25.891   1.411  0.00  0.00    -0.228 NA
ATOM      9  N   UNL     1     -41.214  25.750   0.432  0.00  0.00    -0.229 NA
ATOM     10  C   UNL     1     -39.151  24.588   1.682  0.00  0.00    +0.152 C 
ATOM     11  C   UNL     1     -38.870  22.515   2.363  0.00  0.00    +0.223 C 
ATOM     12  C   UNL     1     -40.256  23.806   1.387  0.00  0.00    +0.140 C 
ATOM     13  C   UNL     1     -41.315  24.433   0.738  0.00  0.00    +0.143 C 
ATOM     14  C   UNL     1     -40.071  26.387   0.783  0.00  0.00    +0.253 C 
ATOM     15  N   UNL     1     -42.476  23.716   0.401  0.00  0.00    -0.342 N 
ATOM     16  H   UNL     1     -43.219  24.171  -0.059  0.00  0.00    +0.144 HD
ATOM     17  H   UNL     1     -42.547  22.761   0.624  0.00  0.00    +0.144 HD
ENDBRANCH   4   6
BRANCH   2  18
ATOM     18  C   UNL     1     -35.404  22.050   2.479  0.00  0.00    -0.016 C 
ATOM     19  C   UNL     1     -35.333  20.668   2.652  0.00  0.00    -0.002 C 
ATOM     20  C   UNL     1     -34.765  22.652   1.396  0.00  0.00    -0.002 C 
ATOM     21  C   UNL     1     -34.621  19.888   1.741  0.00  0.00    +0.024 C 
ATOM     22  C   UNL     1     -34.053  21.872   0.485  0.00  0.00    +0.024 C 
ATOM     23  C   UNL     1     -33.981  20.490   0.658  0.00  0.00    +0.143 C 
BRANCH  23  26
ATOM     24  O   UNL     1     -33.772  19.437  -1.384  0.00  0.00    -0.126 OA
ATOM     25  O   UNL     1     -32.119  19.270   0.052  0.00  0.00    -0.126 OA
ATOM     26  N   UNL     1     -33.256  19.694  -0.269  0.00  0.00    +0.058 N 
ENDBRANCH  23  26
ENDBRANCH   2  18
BRANCH   3  27
ATOM     27  O   UNL     1     -34.988  22.684   5.572  0.00  0.00    -0.381 OA
ATOM     28  H   UNL     1     -34.038  22.744   5.756  0.00  0.00    +0.210 HD
ENDBRANCH   3  27
BRANCH   5  29
ATOM     29  C   UNL     1     -35.541  25.859   5.633  0.00  0.00    +0.169 C 
BRANCH  29  30
ATOM     30  O   UNL     1     -35.786  27.010   4.841  0.00  0.00    -0.379 OA
ATOM     31  H   UNL     1     -34.969  27.269   4.386  0.00  0.00    +0.211 HD
ENDBRANCH  29  30
ENDBRANCH   5  29
TORSDOF 6
ENDMDL
