MODEL 1
REMARK VINA RESULT:      -6.3      0.000      0.000
REMARK  Name = 191963
REMARK  11 active torsions:
REMARK  status: ('A' for Active; 'I' for Inactive)
REMARK    1  A    between atoms: C_2  and  C_31
REMARK    2  A    between atoms: C_3  and  N_6
REMARK    3  A    between atoms: C_4  and  N_18
REMARK    4  A    between atoms: N_18  and  P_20
REMARK    5  A    between atoms: P_20  and  O_22
REMARK    6  A    between atoms: P_20  and  N_24
REMARK    7  A    between atoms: N_24  and  C_25
REMARK    8  A    between atoms: N_24  and  C_28
REMARK    9  A    between atoms: C_25  and  C_27
REMARK   10  A    between atoms: C_28  and  C_30
REMARK   11  A    between atoms: C_31  and  O_32
REMARK                            x       y       z     vdW  Elec       q    Type
REMARK                         _______ _______ _______ _____ _____    ______ ____
ROOT
ATOM      1  O   UNL     1     -36.055  24.256   5.480  0.00  0.00    -0.328 OA
ATOM      2  C   UNL     1     -36.067  22.853   5.127  0.00  0.00    +0.182 C 
ATOM      3  C   UNL     1     -35.725  25.009   4.297  0.00  0.00    +0.220 C 
ATOM      4  C   UNL     1     -35.479  22.779   3.752  0.00  0.00    +0.059 C 
ATOM      5  C   UNL     1     -35.282  24.013   3.289  0.00  0.00    +0.037 C 
ENDROOT
BRANCH   3   6
ATOM      6  N   UNL     1     -34.663  25.919   4.651  0.00  0.00    -0.245 N 
ATOM      7  N   UNL     1     -33.119  26.937   5.897  0.00  0.00    -0.242 NA
ATOM      8  N   UNL     1     -34.352  27.102   2.551  0.00  0.00    -0.228 NA
ATOM      9  N   UNL     1     -32.590  28.780   2.733  0.00  0.00    -0.229 NA
ATOM     10  C   UNL     1     -34.073  26.845   3.839  0.00  0.00    +0.152 C 
ATOM     11  C   UNL     1     -34.057  26.013   5.876  0.00  0.00    +0.223 C 
ATOM     12  C   UNL     1     -33.119  27.465   4.629  0.00  0.00    +0.140 C 
ATOM     13  C   UNL     1     -32.360  28.467   4.031  0.00  0.00    +0.143 C 
ATOM     14  C   UNL     1     -33.556  28.088   2.084  0.00  0.00    +0.253 C 
ATOM     15  N   UNL     1     -31.369  29.148   4.758  0.00  0.00    -0.342 N 
ATOM     16  H   UNL     1     -30.840  29.856   4.325  0.00  0.00    +0.144 HD
ATOM     17  H   UNL     1     -31.206  28.918   5.702  0.00  0.00    +0.144 HD
ENDBRANCH   3   6
BRANCH   4  18
ATOM     18  N   UNL     1     -35.252  21.593   3.142  0.00  0.00    -0.262 N 
ATOM     19  H   UNL     1     -34.466  21.057   3.396  0.00  0.00    +0.156 HD
BRANCH  18  20
ATOM     20  P   UNL     1     -36.279  21.031   1.977  0.00  0.00    +0.362 P 
ATOM     21  O   UNL     1     -37.412  21.916   1.505  0.00  0.00    -0.250 OA
BRANCH  20  22
ATOM     22  O   UNL     1     -36.900  19.656   2.602  0.00  0.00    -0.319 OA
ATOM     23  H   UNL     1     -37.814  19.813   2.887  0.00  0.00    +0.220 HD
ENDBRANCH  20  22
BRANCH  20  24
ATOM     24  N   UNL     1     -35.255  20.526   0.746  0.00  0.00    -0.193 NA
BRANCH  24  25
ATOM     25  C   UNL     1     -35.000  21.486  -0.333  0.00  0.00    +0.099 C 
BRANCH  25  27
ATOM     26 CL   UNL     1     -32.288  21.424  -0.316  0.00  0.00    -0.112 Cl
ATOM     27  C   UNL     1     -33.783  22.335   0.004  0.00  0.00    +0.113 C 
ENDBRANCH  25  27
ENDBRANCH  24  25
BRANCH  24  28
ATOM     28  C   UNL     1     -35.513  19.212   0.151  0.00  0.00    +0.099 C 
BRANCH  28  30
ATOM     29 CL   UNL     1     -33.285  18.758   1.630  0.00  0.00    -0.112 Cl
ATOM     30  C   UNL     1     -34.246  18.368   0.185  0.00  0.00    +0.113 C 
ENDBRANCH  28  30
ENDBRANCH  24  28
ENDBRANCH  20  24
ENDBRANCH  18  20
ENDBRANCH   4  18
BRANCH   2  31
ATOM     31  C   UNL     1     -35.275  22.102   6.190  0.00  0.00    +0.173 C 
BRANCH  31  32
ATOM     32  O   UNL     1     -35.375  20.713   5.932  0.00  0.00    -0.379 OA
ATOM     33  H   UNL     1     -35.947  20.567   5.162  0.00  0.00    +0.211 HD
ENDBRANCH  31  32
ENDBRANCH   2  31
TORSDOF 11
ENDMDL
MODEL 2
REMARK VINA RESULT:      -6.2      0.928      1.253
REMARK  Name = 191963
REMARK  11 active torsions:
REMARK  status: ('A' for Active; 'I' for Inactive)
REMARK    1  A    between atoms: C_2  and  C_31
REMARK    2  A    between atoms: C_3  and  N_6
REMARK    3  A    between atoms: C_4  and  N_18
REMARK    4  A    between atoms: N_18  and  P_20
REMARK    5  A    between atoms: P_20  and  O_22
REMARK    6  A    between atoms: P_20  and  N_24
REMARK    7  A    between atoms: N_24  and  C_25
REMARK    8  A    between atoms: N_24  and  C_28
REMARK    9  A    between atoms: C_25  and  C_27
REMARK   10  A    between atoms: C_28  and  C_30
REMARK   11  A    between atoms: C_31  and  O_32
REMARK                            x       y       z     vdW  Elec       q    Type
REMARK                         _______ _______ _______ _____ _____    ______ ____
ROOT
ATOM      1  O   UNL     1     -36.034  24.243   5.478  0.00  0.00    -0.328 OA
ATOM      2  C   UNL     1     -36.042  22.853   5.074  0.00  0.00    +0.182 C 
ATOM      3  C   UNL     1     -35.723  25.041   4.319  0.00  0.00    +0.220 C 
ATOM      4  C   UNL     1     -35.470  22.834   3.690  0.00  0.00    +0.059 C 
ATOM      5  C   UNL     1     -35.286  24.086   3.270  0.00  0.00    +0.037 C 
ENDROOT
BRANCH   3   6
ATOM      6  N   UNL     1     -34.663  25.944   4.694  0.00  0.00    -0.245 N 
ATOM      7  N   UNL     1     -33.118  26.933   5.962  0.00  0.00    -0.242 NA
ATOM      8  N   UNL     1     -34.358  27.181   2.625  0.00  0.00    -0.228 NA
ATOM      9  N   UNL     1     -32.599  28.858   2.846  0.00  0.00    -0.229 NA
ATOM     10  C   UNL     1     -34.076  26.891   3.905  0.00  0.00    +0.152 C 
ATOM     11  C   UNL     1     -34.054  26.008   5.920  0.00  0.00    +0.223 C 
ATOM     12  C   UNL     1     -33.121  27.493   4.709  0.00  0.00    +0.140 C 
ATOM     13  C   UNL     1     -32.366  28.512   4.135  0.00  0.00    +0.143 C 
ATOM     14  C   UNL     1     -33.566  28.180   2.181  0.00  0.00    +0.253 C 
ATOM     15  N   UNL     1     -31.375  29.177   4.877  0.00  0.00    -0.342 N 
ATOM     16  H   UNL     1     -30.848  29.896   4.461  0.00  0.00    +0.144 HD
ATOM     17  H   UNL     1     -31.209  28.923   5.814  0.00  0.00    +0.144 HD
ENDBRANCH   3   6
BRANCH   4  18
ATOM     18  N   UNL     1     -35.243  21.672   3.034  0.00  0.00    -0.262 N 
ATOM     19  H   UNL     1     -34.412  21.173   3.202  0.00  0.00    +0.156 HD
BRANCH  18  20
ATOM     20  P   UNL     1     -36.346  21.081   1.956  0.00  0.00    +0.362 P 
ATOM     21  O   UNL     1     -37.545  21.928   1.590  0.00  0.00    -0.250 OA
BRANCH  20  22
ATOM     22  O   UNL     1     -36.863  19.682   2.619  0.00  0.00    -0.319 OA
ATOM     23  H   UNL     1     -36.806  19.741   3.586  0.00  0.00    +0.220 HD
ENDBRANCH  20  22
BRANCH  20  24
ATOM     24  N   UNL     1     -35.414  20.619   0.638  0.00  0.00    -0.193 NA
BRANCH  24  25
ATOM     25  C   UNL     1     -34.082  21.222   0.530  0.00  0.00    +0.099 C 
BRANCH  25  27
ATOM     26 CL   UNL     1     -33.333  18.855   1.623  0.00  0.00    -0.112 Cl
ATOM     27  C   UNL     1     -33.025  20.134   0.424  0.00  0.00    +0.113 C 
ENDBRANCH  25  27
ENDBRANCH  24  25
BRANCH  24  28
ATOM     28  C   UNL     1     -36.050  20.651  -0.683  0.00  0.00    +0.099 C 
BRANCH  28  30
ATOM     29 CL   UNL     1     -36.007  17.945  -0.490  0.00  0.00    -0.112 Cl
ATOM     30  C   UNL     1     -36.927  19.421  -0.867  0.00  0.00    +0.113 C 
ENDBRANCH  28  30
ENDBRANCH  24  28
ENDBRANCH  20  24
ENDBRANCH  18  20
ENDBRANCH   4  18
BRANCH   2  31
ATOM     31  C   UNL     1     -35.233  22.069   6.098  0.00  0.00    +0.173 C 
BRANCH  31  32
ATOM     32  O   UNL     1     -35.367  20.687   5.819  0.00  0.00    -0.379 OA
ATOM     33  H   UNL     1     -35.117  20.173   6.603  0.00  0.00    +0.211 HD
ENDBRANCH  31  32
ENDBRANCH   2  31
TORSDOF 11
ENDMDL
MODEL 3
REMARK VINA RESULT:      -5.7      1.653      2.180
REMARK  Name = 191963
REMARK  11 active torsions:
REMARK  status: ('A' for Active; 'I' for Inactive)
REMARK    1  A    between atoms: C_2  and  C_31
REMARK    2  A    between atoms: C_3  and  N_6
REMARK    3  A    between atoms: C_4  and  N_18
REMARK    4  A    between atoms: N_18  and  P_20
REMARK    5  A    between atoms: P_20  and  O_22
REMARK    6  A    between atoms: P_20  and  N_24
REMARK    7  A    between atoms: N_24  and  C_25
REMARK    8  A    between atoms: N_24  and  C_28
REMARK    9  A    between atoms: C_25  and  C_27
REMARK   10  A    between atoms: C_28  and  C_30
REMARK   11  A    between atoms: C_31  and  O_32
REMARK                            x       y       z     vdW  Elec       q    Type
REMARK                         _______ _______ _______ _____ _____    ______ ____
ROOT
ATOM      1  O   UNL     1     -35.866  25.664   2.746  0.00  0.00    -0.328 OA
ATOM      2  C   UNL     1     -36.787  24.552   2.644  0.00  0.00    +0.182 C 
ATOM      3  C   UNL     1     -34.563  25.134   3.060  0.00  0.00    +0.220 C 
ATOM      4  C   UNL     1     -36.041  23.363   3.164  0.00  0.00    +0.059 C 
ATOM      5  C   UNL     1     -34.775  23.706   3.404  0.00  0.00    +0.037 C 
ENDROOT
BRANCH   3   6
ATOM      6  N   UNL     1     -34.056  25.884   4.183  0.00  0.00    -0.245 N 
ATOM      7  N   UNL     1     -33.786  26.549   6.294  0.00  0.00    -0.242 NA
ATOM      8  N   UNL     1     -32.498  27.381   3.071  0.00  0.00    -0.228 NA
ATOM      9  N   UNL     1     -31.397  28.859   4.670  0.00  0.00    -0.229 NA
ATOM     10  C   UNL     1     -33.128  26.885   4.148  0.00  0.00    +0.152 C 
ATOM     11  C   UNL     1     -34.421  25.719   5.493  0.00  0.00    +0.223 C 
ATOM     12  C   UNL     1     -32.975  27.284   5.466  0.00  0.00    +0.140 C 
ATOM     13  C   UNL     1     -32.068  28.311   5.711  0.00  0.00    +0.143 C 
ATOM     14  C   UNL     1     -31.650  28.367   3.434  0.00  0.00    +0.253 C 
ATOM     15  N   UNL     1     -31.848  28.778   7.019  0.00  0.00    -0.342 N 
ATOM     16  H   UNL     1     -31.205  29.505   7.180  0.00  0.00    +0.144 HD
ATOM     17  H   UNL     1     -32.338  28.377   7.773  0.00  0.00    +0.144 HD
ENDBRANCH   3   6
BRANCH   4  18
ATOM     18  N   UNL     1     -36.638  22.156   3.300  0.00  0.00    -0.262 N 
ATOM     19  H   UNL     1     -36.970  21.875   4.183  0.00  0.00    +0.156 HD
BRANCH  18  20
ATOM     20  P   UNL     1     -36.818  21.151   2.003  0.00  0.00    +0.362 P 
ATOM     21  O   UNL     1     -37.967  21.383   1.045  0.00  0.00    -0.250 OA
BRANCH  20  22
ATOM     22  O   UNL     1     -36.957  19.659   2.652  0.00  0.00    -0.319 OA
ATOM     23  H   UNL     1     -37.024  19.731   3.617  0.00  0.00    +0.220 HD
ENDBRANCH  20  22
BRANCH  20  24
ATOM     24  N   UNL     1     -35.309  21.166   1.268  0.00  0.00    -0.193 NA
BRANCH  24  25
ATOM     25  C   UNL     1     -35.287  21.337  -0.189  0.00  0.00    +0.099 C 
BRANCH  25  27
ATOM     26 CL   UNL     1     -33.425  23.295   0.052  0.00  0.00    -0.112 Cl
ATOM     27  C   UNL     1     -35.027  22.795  -0.537  0.00  0.00    +0.113 C 
ENDBRANCH  25  27
ENDBRANCH  24  25
BRANCH  24  28
ATOM     28  C   UNL     1     -34.373  20.097   1.626  0.00  0.00    +0.099 C 
BRANCH  28  30
ATOM     29 CL   UNL     1     -31.942  19.895   0.440  0.00  0.00    -0.112 Cl
ATOM     30  C   UNL     1     -33.688  19.563   0.376  0.00  0.00    +0.113 C 
ENDBRANCH  28  30
ENDBRANCH  24  28
ENDBRANCH  20  24
ENDBRANCH  18  20
ENDBRANCH   4  18
BRANCH   2  31
ATOM     31  C   UNL     1     -38.033  24.910   3.443  0.00  0.00    +0.173 C 
BRANCH  31  32
ATOM     32  O   UNL     1     -37.804  26.136   4.115  0.00  0.00    -0.379 OA
ATOM     33  H   UNL     1     -37.229  26.699   3.573  0.00  0.00    +0.211 HD
ENDBRANCH  31  32
ENDBRANCH   2  31
TORSDOF 11
ENDMDL
MODEL 4
REMARK VINA RESULT:      -5.6      3.600      5.802
REMARK  Name = 191963
REMARK  11 active torsions:
REMARK  status: ('A' for Active; 'I' for Inactive)
REMARK    1  A    between atoms: C_2  and  C_31
REMARK    2  A    between atoms: C_3  and  N_6
REMARK    3  A    between atoms: C_4  and  N_18
REMARK    4  A    between atoms: N_18  and  P_20
REMARK    5  A    between atoms: P_20  and  O_22
REMARK    6  A    between atoms: P_20  and  N_24
REMARK    7  A    between atoms: N_24  and  C_25
REMARK    8  A    between atoms: N_24  and  C_28
REMARK    9  A    between atoms: C_25  and  C_27
REMARK   10  A    between atoms: C_28  and  C_30
REMARK   11  A    between atoms: C_31  and  O_32
REMARK                            x       y       z     vdW  Elec       q    Type
REMARK                         _______ _______ _______ _____ _____    ______ ____
ROOT
ATOM      1  O   UNL     1     -32.388  29.012   3.102  0.00  0.00    -0.328 OA
ATOM      2  C   UNL     1     -33.794  28.843   2.805  0.00  0.00    +0.182 C 
ATOM      3  C   UNL     1     -31.973  27.909   3.931  0.00  0.00    +0.220 C 
ATOM      4  C   UNL     1     -34.264  27.738   3.699  0.00  0.00    +0.059 C 
ATOM      5  C   UNL     1     -33.220  27.215   4.342  0.00  0.00    +0.037 C 
ENDROOT
BRANCH   3   6
ATOM      6  N   UNL     1     -31.273  28.463   5.063  0.00  0.00    -0.245 N 
ATOM      7  N   UNL     1     -30.927  29.625   6.935  0.00  0.00    -0.242 NA
ATOM      8  N   UNL     1     -29.047  27.554   4.719  0.00  0.00    -0.228 NA
ATOM      9  N   UNL     1     -27.514  28.277   6.475  0.00  0.00    -0.229 NA
ATOM     10  C   UNL     1     -29.958  28.281   5.384  0.00  0.00    +0.152 C 
ATOM     11  C   UNL     1     -31.813  29.278   6.024  0.00  0.00    +0.223 C 
ATOM     12  C   UNL     1     -29.764  29.009   6.546  0.00  0.00    +0.140 C 
ATOM     13  C   UNL     1     -28.484  28.990   7.094  0.00  0.00    +0.143 C 
ATOM     14  C   UNL     1     -27.851  27.613   5.343  0.00  0.00    +0.253 C 
ATOM     15  N   UNL     1     -28.198  29.699   8.273  0.00  0.00    -0.342 N 
ATOM     16  H   UNL     1     -27.289  29.679   8.651  0.00  0.00    +0.144 HD
ATOM     17  H   UNL     1     -28.906  30.216   8.721  0.00  0.00    +0.144 HD
ENDBRANCH   3   6
BRANCH   4  18
ATOM     18  N   UNL     1     -35.567  27.375   3.751  0.00  0.00    -0.262 N 
ATOM     19  H   UNL     1     -36.147  27.743   4.457  0.00  0.00    +0.156 HD
BRANCH  18  20
ATOM     20  P   UNL     1     -36.196  26.324   2.644  0.00  0.00    +0.362 P 
ATOM     21  O   UNL     1     -35.694  26.368   1.218  0.00  0.00    -0.250 OA
BRANCH  20  22
ATOM     22  O   UNL     1     -37.801  26.625   2.655  0.00  0.00    -0.319 OA
ATOM     23  H   UNL     1     -38.252  25.961   3.199  0.00  0.00    +0.220 HD
ENDBRANCH  20  22
BRANCH  20  24
ATOM     24  N   UNL     1     -36.031  24.821   3.375  0.00  0.00    -0.193 NA
BRANCH  24  25
ATOM     25  C   UNL     1     -36.238  24.769   4.826  0.00  0.00    +0.099 C 
BRANCH  25  27
ATOM     26 CL   UNL     1     -35.563  22.535   6.207  0.00  0.00    -0.112 Cl
ATOM     27  C   UNL     1     -35.056  24.085   5.497  0.00  0.00    +0.113 C 
ENDBRANCH  25  27
ENDBRANCH  24  25
BRANCH  24  28
ATOM     28  C   UNL     1     -34.837  24.037   3.045  0.00  0.00    +0.099 C 
BRANCH  28  30
ATOM     29 CL   UNL     1     -36.320  21.786   2.743  0.00  0.00    -0.112 Cl
ATOM     30  C   UNL     1     -35.188  22.959   2.030  0.00  0.00    +0.113 C 
ENDBRANCH  28  30
ENDBRANCH  24  28
ENDBRANCH  20  24
ENDBRANCH  18  20
ENDBRANCH   4  18
BRANCH   2  31
ATOM     31  C   UNL     1     -34.481  30.181   3.045  0.00  0.00    +0.173 C 
BRANCH  31  32
ATOM     32  O   UNL     1     -35.830  30.080   2.624  0.00  0.00    -0.379 OA
ATOM     33  H   UNL     1     -36.395  29.893   3.390  0.00  0.00    +0.211 HD
ENDBRANCH  31  32
ENDBRANCH   2  31
TORSDOF 11
ENDMDL
MODEL 5
REMARK VINA RESULT:      -5.6      3.588      4.629
REMARK  Name = 191963
REMARK  11 active torsions:
REMARK  status: ('A' for Active; 'I' for Inactive)
REMARK    1  A    between atoms: C_2  and  C_31
REMARK    2  A    between atoms: C_3  and  N_6
REMARK    3  A    between atoms: C_4  and  N_18
REMARK    4  A    between atoms: N_18  and  P_20
REMARK    5  A    between atoms: P_20  and  O_22
REMARK    6  A    between atoms: P_20  and  N_24
REMARK    7  A    between atoms: N_24  and  C_25
REMARK    8  A    between atoms: N_24  and  C_28
REMARK    9  A    between atoms: C_25  and  C_27
REMARK   10  A    between atoms: C_28  and  C_30
REMARK   11  A    between atoms: C_31  and  O_32
REMARK                            x       y       z     vdW  Elec       q    Type
REMARK                         _______ _______ _______ _____ _____    ______ ____
ROOT
ATOM      1  O   UNL     1     -34.289  24.509   5.395  0.00  0.00    -0.328 OA
ATOM      2  C   UNL     1     -35.549  23.871   5.080  0.00  0.00    +0.182 C 
ATOM      3  C   UNL     1     -34.535  25.918   5.565  0.00  0.00    +0.220 C 
ATOM      4  C   UNL     1     -36.510  24.988   4.815  0.00  0.00    +0.059 C 
ATOM      5  C   UNL     1     -35.921  26.152   5.088  0.00  0.00    +0.037 C 
ENDROOT
BRANCH   3   6
ATOM      6  N   UNL     1     -33.568  26.622   4.759  0.00  0.00    -0.245 N 
ATOM      7  N   UNL     1     -32.420  27.247   2.952  0.00  0.00    -0.242 NA
ATOM      8  N   UNL     1     -32.510  28.030   6.433  0.00  0.00    -0.228 NA
ATOM      9  N   UNL     1     -30.764  29.419   5.446  0.00  0.00    -0.229 NA
ATOM     10  C   UNL     1     -32.676  27.564   5.185  0.00  0.00    +0.152 C 
ATOM     11  C   UNL     1     -33.375  26.466   3.411  0.00  0.00    +0.223 C 
ATOM     12  C   UNL     1     -31.974  27.938   4.051  0.00  0.00    +0.140 C 
ATOM     13  C   UNL     1     -30.986  28.905   4.213  0.00  0.00    +0.143 C 
ATOM     14  C   UNL     1     -31.529  28.957   6.464  0.00  0.00    +0.253 C 
ATOM     15  N   UNL     1     -30.226  29.346   3.116  0.00  0.00    -0.342 N 
ATOM     16  H   UNL     1     -29.529  30.029   3.243  0.00  0.00    +0.144 HD
ATOM     17  H   UNL     1     -30.390  28.970   2.221  0.00  0.00    +0.144 HD
ENDBRANCH   3   6
BRANCH   4  18
ATOM     18  N   UNL     1     -37.775  24.750   4.397  0.00  0.00    -0.262 N 
ATOM     19  H   UNL     1     -38.389  24.237   4.971  0.00  0.00    +0.156 HD
BRANCH  18  20
ATOM     20  P   UNL     1     -38.302  25.311   2.936  0.00  0.00    +0.362 P 
ATOM     21  O   UNL     1     -37.287  25.784   1.920  0.00  0.00    -0.250 OA
BRANCH  20  22
ATOM     22  O   UNL     1     -39.305  26.546   3.306  0.00  0.00    -0.319 OA
ATOM     23  H   UNL     1     -38.845  27.175   3.884  0.00  0.00    +0.220 HD
ENDBRANCH  20  22
BRANCH  20  24
ATOM     24  N   UNL     1     -39.307  24.089   2.373  0.00  0.00    -0.193 NA
BRANCH  24  25
ATOM     25  C   UNL     1     -38.702  23.102   1.473  0.00  0.00    +0.099 C 
BRANCH  25  27
ATOM     26 CL   UNL     1     -39.013  20.648   0.359  0.00  0.00    -0.112 Cl
ATOM     27  C   UNL     1     -39.275  21.721   1.754  0.00  0.00    +0.113 C 
ENDBRANCH  25  27
ENDBRANCH  24  25
BRANCH  24  28
ATOM     28  C   UNL     1     -40.609  24.483   1.828  0.00  0.00    +0.099 C 
BRANCH  28  30
ATOM     29 CL   UNL     1     -41.516  23.920  -0.665  0.00  0.00    -0.112 Cl
ATOM     30  C   UNL     1     -40.458  24.904   0.373  0.00  0.00    +0.113 C 
ENDBRANCH  28  30
ENDBRANCH  24  28
ENDBRANCH  20  24
ENDBRANCH  18  20
ENDBRANCH   4  18
BRANCH   2  31
ATOM     31  C   UNL     1     -35.317  22.947   3.892  0.00  0.00    +0.173 C 
BRANCH  31  32
ATOM     32  O   UNL     1     -36.359  21.989   3.852  0.00  0.00    -0.379 OA
ATOM     33  H   UNL     1     -36.628  21.766   4.757  0.00  0.00    +0.211 HD
ENDBRANCH  31  32
ENDBRANCH   2  31
TORSDOF 11
ENDMDL
MODEL 6
REMARK VINA RESULT:      -5.5      2.877      4.292
REMARK  Name = 191963
REMARK  11 active torsions:
REMARK  status: ('A' for Active; 'I' for Inactive)
REMARK    1  A    between atoms: C_2  and  C_31
REMARK    2  A    between atoms: C_3  and  N_6
REMARK    3  A    between atoms: C_4  and  N_18
REMARK    4  A    between atoms: N_18  and  P_20
REMARK    5  A    between atoms: P_20  and  O_22
REMARK    6  A    between atoms: P_20  and  N_24
REMARK    7  A    between atoms: N_24  and  C_25
REMARK    8  A    between atoms: N_24  and  C_28
REMARK    9  A    between atoms: C_25  and  C_27
REMARK   10  A    between atoms: C_28  and  C_30
REMARK   11  A    between atoms: C_31  and  O_32
REMARK                            x       y       z     vdW  Elec       q    Type
REMARK                         _______ _______ _______ _____ _____    ______ ____
ROOT
ATOM      1  O   UNL     1     -37.023  22.342   0.220  0.00  0.00    -0.328 OA
ATOM      2  C   UNL     1     -37.445  20.995  -0.100  0.00  0.00    +0.182 C 
ATOM      3  C   UNL     1     -35.976  22.257   1.207  0.00  0.00    +0.220 C 
ATOM      4  C   UNL     1     -36.793  20.116   0.921  0.00  0.00    +0.059 C 
ATOM      5  C   UNL     1     -35.962  20.845   1.666  0.00  0.00    +0.037 C 
ENDROOT
BRANCH   3   6
ATOM      6  N   UNL     1     -36.321  23.161   2.276  0.00  0.00    -0.245 N 
ATOM      7  N   UNL     1     -37.523  24.110   3.898  0.00  0.00    -0.242 NA
ATOM      8  N   UNL     1     -34.317  24.529   2.387  0.00  0.00    -0.228 NA
ATOM      9  N   UNL     1     -34.502  26.233   4.125  0.00  0.00    -0.229 NA
ATOM     10  C   UNL     1     -35.549  24.169   2.778  0.00  0.00    +0.152 C 
ATOM     11  C   UNL     1     -37.497  23.166   2.980  0.00  0.00    +0.223 C 
ATOM     12  C   UNL     1     -36.311  24.745   3.782  0.00  0.00    +0.140 C 
ATOM     13  C   UNL     1     -35.744  25.815   4.468  0.00  0.00    +0.143 C 
ATOM     14  C   UNL     1     -33.875  25.573   3.121  0.00  0.00    +0.253 C 
ATOM     15  N   UNL     1     -36.446  26.458   5.502  0.00  0.00    -0.342 N 
ATOM     16  H   UNL     1     -36.035  27.215   5.979  0.00  0.00    +0.144 HD
ATOM     17  H   UNL     1     -37.349  26.152   5.749  0.00  0.00    +0.144 HD
ENDBRANCH   3   6
BRANCH   4  18
ATOM     18  N   UNL     1     -37.046  18.788   0.978  0.00  0.00    -0.262 N 
ATOM     19  H   UNL     1     -37.429  18.400   1.797  0.00  0.00    +0.156 HD
BRANCH  18  20
ATOM     20  P   UNL     1     -36.722  17.810  -0.314  0.00  0.00    +0.362 P 
ATOM     21  O   UNL     1     -37.496  18.007  -1.599  0.00  0.00    -0.250 OA
BRANCH  20  22
ATOM     22  O   UNL     1     -36.982  16.296   0.240  0.00  0.00    -0.319 OA
ATOM     23  H   UNL     1     -37.894  16.221   0.563  0.00  0.00    +0.220 HD
ENDBRANCH  20  22
BRANCH  20  24
ATOM     24  N   UNL     1     -35.057  17.926  -0.499  0.00  0.00    -0.193 NA
BRANCH  24  25
ATOM     25  C   UNL     1     -34.572  18.422  -1.791  0.00  0.00    +0.099 C 
BRANCH  25  27
ATOM     26 CL   UNL     1     -35.197  20.829  -2.875  0.00  0.00    -0.112 Cl
ATOM     27  C   UNL     1     -34.245  19.904  -1.690  0.00  0.00    +0.113 C 
ENDBRANCH  25  27
ENDBRANCH  24  25
BRANCH  24  28
ATOM     28  C   UNL     1     -34.253  16.763  -0.113  0.00  0.00    +0.099 C 
BRANCH  28  30
ATOM     29 CL   UNL     1     -33.165  18.593   1.568  0.00  0.00    -0.112 Cl
ATOM     30  C   UNL     1     -32.920  17.221   0.462  0.00  0.00    +0.113 C 
ENDBRANCH  28  30
ENDBRANCH  24  28
ENDBRANCH  20  24
ENDBRANCH  18  20
ENDBRANCH   4  18
BRANCH   2  31
ATOM     31  C   UNL     1     -38.967  20.969  -0.070  0.00  0.00    +0.173 C 
BRANCH  31  32
ATOM     32  O   UNL     1     -39.391  20.706   1.256  0.00  0.00    -0.379 OA
ATOM     33  H   UNL     1     -40.082  21.338   1.506  0.00  0.00    +0.211 HD
ENDBRANCH  31  32
ENDBRANCH   2  31
TORSDOF 11
ENDMDL
MODEL 7
REMARK VINA RESULT:      -5.4      4.121      7.960
REMARK  Name = 191963
REMARK  11 active torsions:
REMARK  status: ('A' for Active; 'I' for Inactive)
REMARK    1  A    between atoms: C_2  and  C_31
REMARK    2  A    between atoms: C_3  and  N_6
REMARK    3  A    between atoms: C_4  and  N_18
REMARK    4  A    between atoms: N_18  and  P_20
REMARK    5  A    between atoms: P_20  and  O_22
REMARK    6  A    between atoms: P_20  and  N_24
REMARK    7  A    between atoms: N_24  and  C_25
REMARK    8  A    between atoms: N_24  and  C_28
REMARK    9  A    between atoms: C_25  and  C_27
REMARK   10  A    between atoms: C_28  and  C_30
REMARK   11  A    between atoms: C_31  and  O_32
REMARK                            x       y       z     vdW  Elec       q    Type
REMARK                         _______ _______ _______ _____ _____    ______ ____
ROOT
ATOM      1  O   UNL     1     -37.845  24.745   2.781  0.00  0.00    -0.328 OA
ATOM      2  C   UNL     1     -37.319  26.066   3.050  0.00  0.00    +0.182 C 
ATOM      3  C   UNL     1     -37.375  23.860   3.817  0.00  0.00    +0.220 C 
ATOM      4  C   UNL     1     -36.308  25.882   4.138  0.00  0.00    +0.059 C 
ATOM      5  C   UNL     1     -36.342  24.620   4.566  0.00  0.00    +0.037 C 
ENDROOT
BRANCH   3   6
ATOM      6  N   UNL     1     -36.818  22.699   3.168  0.00  0.00    -0.245 N 
ATOM      7  N   UNL     1     -35.348  21.102   2.657  0.00  0.00    -0.242 NA
ATOM      8  N   UNL     1     -38.638  22.084   1.681  0.00  0.00    -0.228 NA
ATOM      9  N   UNL     1     -38.077  20.106   0.367  0.00  0.00    -0.229 NA
ATOM     10  C   UNL     1     -37.416  21.927   2.214  0.00  0.00    +0.152 C 
ATOM     11  C   UNL     1     -35.577  22.164   3.400  0.00  0.00    +0.223 C 
ATOM     12  C   UNL     1     -36.489  20.943   1.910  0.00  0.00    +0.140 C 
ATOM     13  C   UNL     1     -36.857  20.008   0.947  0.00  0.00    +0.143 C 
ATOM     14  C   UNL     1     -38.879  21.123   0.765  0.00  0.00    +0.253 C 
ATOM     15  N   UNL     1     -35.980  18.974   0.578  0.00  0.00    -0.342 N 
ATOM     16  H   UNL     1     -36.251  18.319  -0.104  0.00  0.00    +0.144 HD
ATOM     17  H   UNL     1     -35.094  18.905   1.003  0.00  0.00    +0.144 HD
ENDBRANCH   3   6
BRANCH   4  18
ATOM     18  N   UNL     1     -35.545  26.911   4.578  0.00  0.00    -0.262 N 
ATOM     19  H   UNL     1     -35.964  27.782   4.764  0.00  0.00    +0.156 HD
BRANCH  18  20
ATOM     20  P   UNL     1     -33.921  26.720   4.807  0.00  0.00    +0.362 P 
ATOM     21  O   UNL     1     -33.198  25.611   4.074  0.00  0.00    -0.250 OA
BRANCH  20  22
ATOM     22  O   UNL     1     -33.755  26.494   6.416  0.00  0.00    -0.319 OA
ATOM     23  H   UNL     1     -32.813  26.420   6.637  0.00  0.00    +0.220 HD
ENDBRANCH  20  22
BRANCH  20  24
ATOM     24  N   UNL     1     -33.290  28.249   4.515  0.00  0.00    -0.193 NA
BRANCH  24  25
ATOM     25  C   UNL     1     -33.559  28.831   3.196  0.00  0.00    +0.099 C 
BRANCH  25  27
ATOM     26 CL   UNL     1     -35.357  30.861   3.150  0.00  0.00    -0.112 Cl
ATOM     27  C   UNL     1     -33.661  30.345   3.306  0.00  0.00    +0.113 C 
ENDBRANCH  25  27
ENDBRANCH  24  25
BRANCH  24  28
ATOM     28  C   UNL     1     -31.881  28.473   4.847  0.00  0.00    +0.099 C 
BRANCH  28  30
ATOM     29 CL   UNL     1     -30.059  29.462   6.597  0.00  0.00    -0.112 Cl
ATOM     30  C   UNL     1     -31.769  29.218   6.169  0.00  0.00    +0.113 C 
ENDBRANCH  28  30
ENDBRANCH  24  28
ENDBRANCH  20  24
ENDBRANCH  18  20
ENDBRANCH   4  18
BRANCH   2  31
ATOM     31  C   UNL     1     -36.747  26.609   1.747  0.00  0.00    +0.173 C 
BRANCH  31  32
ATOM     32  O   UNL     1     -36.780  28.025   1.793  0.00  0.00    -0.379 OA
ATOM     33  H   UNL     1     -36.062  28.347   2.360  0.00  0.00    +0.211 HD
ENDBRANCH  31  32
ENDBRANCH   2  31
TORSDOF 11
ENDMDL
MODEL 8
REMARK VINA RESULT:      -5.4      3.357      6.993
REMARK  Name = 191963
REMARK  11 active torsions:
REMARK  status: ('A' for Active; 'I' for Inactive)
REMARK    1  A    between atoms: C_2  and  C_31
REMARK    2  A    between atoms: C_3  and  N_6
REMARK    3  A    between atoms: C_4  and  N_18
REMARK    4  A    between atoms: N_18  and  P_20
REMARK    5  A    between atoms: P_20  and  O_22
REMARK    6  A    between atoms: P_20  and  N_24
REMARK    7  A    between atoms: N_24  and  C_25
REMARK    8  A    between atoms: N_24  and  C_28
REMARK    9  A    between atoms: C_25  and  C_27
REMARK   10  A    between atoms: C_28  and  C_30
REMARK   11  A    between atoms: C_31  and  O_32
REMARK                            x       y       z     vdW  Elec       q    Type
REMARK                         _______ _______ _______ _____ _____    ______ ____
ROOT
ATOM      1  O   UNL     1     -36.384  20.188   0.792  0.00  0.00    -0.328 OA
ATOM      2  C   UNL     1     -37.397  21.047   1.369  0.00  0.00    +0.182 C 
ATOM      3  C   UNL     1     -35.297  20.091   1.732  0.00  0.00    +0.220 C 
ATOM      4  C   UNL     1     -36.761  21.665   2.575  0.00  0.00    +0.059 C 
ATOM      5  C   UNL     1     -35.561  21.119   2.771  0.00  0.00    +0.037 C 
ENDROOT
BRANCH   3   6
ATOM      6  N   UNL     1     -34.080  20.365   1.008  0.00  0.00    -0.245 N 
ATOM      7  N   UNL     1     -32.614  21.460  -0.266  0.00  0.00    -0.242 NA
ATOM      8  N   UNL     1     -32.807  18.347   1.468  0.00  0.00    -0.228 NA
ATOM      9  N   UNL     1     -30.618  18.417   0.391  0.00  0.00    -0.229 NA
ATOM     10  C   UNL     1     -32.983  19.557   0.914  0.00  0.00    +0.152 C 
ATOM     11  C   UNL     1     -33.810  21.496   0.283  0.00  0.00    +0.223 C 
ATOM     12  C   UNL     1     -32.086  20.254   0.120  0.00  0.00    +0.140 C 
ATOM     13  C   UNL     1     -30.864  19.640  -0.136  0.00  0.00    +0.143 C 
ATOM     14  C   UNL     1     -31.590  17.856   1.149  0.00  0.00    +0.253 C 
ATOM     15  N   UNL     1     -29.894  20.275  -0.931  0.00  0.00    -0.342 N 
ATOM     16  H   UNL     1     -29.033  19.831  -1.106  0.00  0.00    +0.144 HD
ATOM     17  H   UNL     1     -30.076  21.164  -1.313  0.00  0.00    +0.144 HD
ENDBRANCH   3   6
BRANCH   4  18
ATOM     18  N   UNL     1     -37.401  22.604   3.310  0.00  0.00    -0.262 N 
ATOM     19  H   UNL     1     -38.193  22.352   3.837  0.00  0.00    +0.156 HD
BRANCH  18  20
ATOM     20  P   UNL     1     -36.866  24.166   3.336  0.00  0.00    +0.362 P 
ATOM     21  O   UNL     1     -37.790  25.269   2.867  0.00  0.00    -0.250 OA
BRANCH  20  22
ATOM     22  O   UNL     1     -35.527  24.159   2.402  0.00  0.00    -0.319 OA
ATOM     23  H   UNL     1     -34.857  23.582   2.801  0.00  0.00    +0.220 HD
ENDBRANCH  20  22
BRANCH  20  24
ATOM     24  N   UNL     1     -36.302  24.374   4.904  0.00  0.00    -0.193 NA
BRANCH  24  25
ATOM     25  C   UNL     1     -36.159  25.756   5.374  0.00  0.00    +0.099 C 
BRANCH  25  27
ATOM     26 CL   UNL     1     -34.317  27.091   3.896  0.00  0.00    -0.112 Cl
ATOM     27  C   UNL     1     -34.692  26.159   5.365  0.00  0.00    +0.113 C 
ENDBRANCH  25  27
ENDBRANCH  24  25
BRANCH  24  28
ATOM     28  C   UNL     1     -35.108  23.620   5.297  0.00  0.00    +0.099 C 
BRANCH  28  30
ATOM     29 CL   UNL     1     -34.900  20.998   5.957  0.00  0.00    -0.112 Cl
ATOM     30  C   UNL     1     -35.459  22.628   6.397  0.00  0.00    +0.113 C 
ENDBRANCH  28  30
ENDBRANCH  24  28
ENDBRANCH  20  24
ENDBRANCH  18  20
ENDBRANCH   4  18
BRANCH   2  31
ATOM     31  C   UNL     1     -37.819  22.046   0.300  0.00  0.00    +0.173 C 
BRANCH  31  32
ATOM     32  O   UNL     1     -36.756  22.957   0.085  0.00  0.00    -0.379 OA
ATOM     33  H   UNL     1     -37.103  23.773  -0.307  0.00  0.00    +0.211 HD
ENDBRANCH  31  32
ENDBRANCH   2  31
TORSDOF 11
ENDMDL
MODEL 9
REMARK VINA RESULT:      -5.4      3.164      7.734
REMARK  Name = 191963
REMARK  11 active torsions:
REMARK  status: ('A' for Active; 'I' for Inactive)
REMARK    1  A    between atoms: C_2  and  C_31
REMARK    2  A    between atoms: C_3  and  N_6
REMARK    3  A    between atoms: C_4  and  N_18
REMARK    4  A    between atoms: N_18  and  P_20
REMARK    5  A    between atoms: P_20  and  O_22
REMARK    6  A    between atoms: P_20  and  N_24
REMARK    7  A    between atoms: N_24  and  C_25
REMARK    8  A    between atoms: N_24  and  C_28
REMARK    9  A    between atoms: C_25  and  C_27
REMARK   10  A    between atoms: C_28  and  C_30
REMARK   11  A    between atoms: C_31  and  O_32
REMARK                            x       y       z     vdW  Elec       q    Type
REMARK                         _______ _______ _______ _____ _____    ______ ____
ROOT
ATOM      1  O   UNL     1     -37.263  22.829   3.664  0.00  0.00    -0.328 OA
ATOM      2  C   UNL     1     -37.023  24.255   3.741  0.00  0.00    +0.182 C 
ATOM      3  C   UNL     1     -36.042  22.196   3.236  0.00  0.00    +0.220 C 
ATOM      4  C   UNL     1     -35.690  24.473   3.094  0.00  0.00    +0.059 C 
ATOM      5  C   UNL     1     -35.141  23.294   2.804  0.00  0.00    +0.037 C 
ENDROOT
BRANCH   3   6
ATOM      6  N   UNL     1     -36.376  21.318   2.141  0.00  0.00    -0.245 N 
ATOM      7  N   UNL     1     -37.568  20.400   0.495  0.00  0.00    -0.242 NA
ATOM      8  N   UNL     1     -34.351  19.985   1.984  0.00  0.00    -0.228 NA
ATOM      9  N   UNL     1     -34.516  18.332   0.196  0.00  0.00    -0.229 NA
ATOM     10  C   UNL     1     -35.590  20.338   1.607  0.00  0.00    +0.152 C 
ATOM     11  C   UNL     1     -37.554  21.317   1.440  0.00  0.00    +0.223 C 
ATOM     12  C   UNL     1     -36.346  19.781   0.588  0.00  0.00    +0.140 C 
ATOM     13  C   UNL     1     -35.765  18.740  -0.131  0.00  0.00    +0.143 C 
ATOM     14  C   UNL     1     -33.896  18.971   1.218  0.00  0.00    +0.253 C 
ATOM     15  N   UNL     1     -36.460  18.118  -1.182  0.00  0.00    -0.342 N 
ATOM     16  H   UNL     1     -36.039  17.383  -1.683  0.00  0.00    +0.144 HD
ATOM     17  H   UNL     1     -37.368  18.418  -1.417  0.00  0.00    +0.144 HD
ENDBRANCH   3   6
BRANCH   4  18
ATOM     18  N   UNL     1     -35.189  25.716   2.907  0.00  0.00    -0.262 N 
ATOM     19  H   UNL     1     -35.218  26.123   2.011  0.00  0.00    +0.156 HD
BRANCH  18  20
ATOM     20  P   UNL     1     -34.531  26.560   4.166  0.00  0.00    +0.362 P 
ATOM     21  O   UNL     1     -33.488  25.893   5.034  0.00  0.00    -0.250 OA
BRANCH  20  22
ATOM     22  O   UNL     1     -35.808  26.981   5.093  0.00  0.00    -0.319 OA
ATOM     23  H   UNL     1     -36.104  26.213   5.606  0.00  0.00    +0.220 HD
ENDBRANCH  20  22
BRANCH  20  24
ATOM     24  N   UNL     1     -34.013  27.994   3.462  0.00  0.00    -0.193 NA
BRANCH  24  25
ATOM     25  C   UNL     1     -34.448  28.246   2.085  0.00  0.00    +0.099 C 
BRANCH  25  27
ATOM     26 CL   UNL     1     -35.284  30.628   3.078  0.00  0.00    -0.112 Cl
ATOM     27  C   UNL     1     -35.635  29.198   2.080  0.00  0.00    +0.113 C 
ENDBRANCH  25  27
ENDBRANCH  24  25
BRANCH  24  28
ATOM     28  C   UNL     1     -32.589  28.323   3.571  0.00  0.00    +0.099 C 
BRANCH  28  30
ATOM     29 CL   UNL     1     -31.327  26.377   2.163  0.00  0.00    -0.112 Cl
ATOM     30  C   UNL     1     -31.892  28.063   2.243  0.00  0.00    +0.113 C 
ENDBRANCH  28  30
ENDBRANCH  24  28
ENDBRANCH  20  24
ENDBRANCH  18  20
ENDBRANCH   4  18
BRANCH   2  31
ATOM     31  C   UNL     1     -38.181  24.957   3.045  0.00  0.00    +0.173 C 
BRANCH  31  32
ATOM     32  O   UNL     1     -38.204  26.311   3.458  0.00  0.00    -0.379 OA
ATOM     33  H   UNL     1     -37.307  26.592   3.697  0.00  0.00    +0.211 HD
ENDBRANCH  31  32
ENDBRANCH   2  31
TORSDOF 11
ENDMDL
