MODEL 1
REMARK VINA RESULT:      -5.5      0.000      0.000
REMARK  Name = 5458664
REMARK  12 active torsions:
REMARK  status: ('A' for Active; 'I' for Inactive)
REMARK    1  A    between atoms: C_3  and  O_10
REMARK    2  A    between atoms: C_6  and  C_17
REMARK    3  A    between atoms: O_10  and  C_12
REMARK    4  A    between atoms: C_12  and  C_13
REMARK    5  A    between atoms: C_17  and  O_18
REMARK    6  A    between atoms: O_18  and  C_20
REMARK    7  A    between atoms: C_20  and  C_21
REMARK    8  A    between atoms: C_21  and  C_22
REMARK    9  A    between atoms: C_21  and  O_27
REMARK   10  A    between atoms: C_21  and  C_29
REMARK   11  A    between atoms: C_22  and  O_25
REMARK   12  A    between atoms: C_29  and  O_31
REMARK                            x       y       z     vdW  Elec       q    Type
REMARK                         _______ _______ _______ _____ _____    ______ ____
ROOT
ATOM      1  N   UNL     1     -36.369  20.938   0.737  0.00  0.00    +0.396 N 
ATOM      2  C   UNL     1     -37.287  21.300   1.861  0.00  0.00    +0.006 C 
ATOM      3  C   UNL     1     -36.698  22.562   2.494  0.00  0.00    +0.152 C 
ATOM      4  C   UNL     1     -35.278  22.608   1.957  0.00  0.00    +0.019 C 
ATOM      5  C   UNL     1     -35.453  22.074   0.550  0.00  0.00    -0.073 C 
ATOM      6  C   UNL     1     -38.642  21.468   1.242  0.00  0.00    -0.023 C 
ATOM      7  C   UNL     1     -37.227  20.708  -0.445  0.00  0.00    -0.050 C 
ATOM      8  C   UNL     1     -38.601  21.134  -0.051  0.00  0.00    -0.056 C 
ATOM      9  H   UNL     1     -35.811  20.100   0.908  0.00  0.00    -0.079 HD
ENDROOT
BRANCH   3  10
ATOM     10  O   UNL     1     -36.700  22.465   3.907  0.00  0.00    -0.451 OA
BRANCH  10  12
ATOM     11  O   UNL     1     -36.972  24.669   4.520  0.00  0.00    -0.245 OA
ATOM     12  C   UNL     1     -36.373  23.605   4.591  0.00  0.00    +0.337 C 
BRANCH  12  13
ATOM     13  C   UNL     1     -35.169  23.363   5.442  0.00  0.00    +0.049 C 
ATOM     14  C   UNL     1     -35.236  22.279   6.478  0.00  0.00    +0.037 C 
ATOM     15  C   UNL     1     -34.120  24.175   5.220  0.00  0.00    -0.024 C 
ATOM     16  C   UNL     1     -34.030  25.286   4.222  0.00  0.00    +0.031 C 
ENDBRANCH  12  13
ENDBRANCH  10  12
ENDBRANCH   3  10
BRANCH   6  17
ATOM     17  C   UNL     1     -39.829  21.896   2.024  0.00  0.00    +0.229 C 
BRANCH  17  18
ATOM     18  O   UNL     1     -40.350  23.122   1.502  0.00  0.00    -0.442 OA
BRANCH  18  20
ATOM     19  O   UNL     1     -39.772  24.268   3.407  0.00  0.00    -0.247 OA
ATOM     20  C   UNL     1     -40.046  24.246   2.213  0.00  0.00    +0.346 C 
BRANCH  20  21
ATOM     21  C   UNL     1     -40.100  25.494   1.318  0.00  0.00    +0.225 C 
BRANCH  21  22
ATOM     22  C   UNL     1     -38.712  26.209   1.224  0.00  0.00    +0.123 C 
ATOM     23  C   UNL     1     -37.620  25.271   0.680  0.00  0.00    +0.032 C 
ATOM     24  C   UNL     1     -38.764  27.457   0.321  0.00  0.00    +0.032 C 
BRANCH  22  25
ATOM     25  O   UNL     1     -38.293  26.643   2.520  0.00  0.00    -0.384 OA
ATOM     26  H   UNL     1     -37.850  25.912   2.978  0.00  0.00    +0.210 HD
ENDBRANCH  22  25
ENDBRANCH  21  22
BRANCH  21  27
ATOM     27  O   UNL     1     -40.367  24.955   0.005  0.00  0.00    -0.373 OA
ATOM     28  H   UNL     1     -41.089  24.308   0.062  0.00  0.00    +0.211 HD
ENDBRANCH  21  27
BRANCH  21  29
ATOM     29  C   UNL     1     -41.319  26.398   1.658  0.00  0.00    +0.152 C 
ATOM     30  C   UNL     1     -42.694  25.747   1.723  0.00  0.00    +0.035 C 
BRANCH  29  31
ATOM     31  O   UNL     1     -41.086  27.061   2.909  0.00  0.00    -0.351 OA
ATOM     32  C   UNL     1     -42.209  26.943   3.764  0.00  0.00    +0.174 C 
ENDBRANCH  29  31
ENDBRANCH  21  29
ENDBRANCH  20  21
ENDBRANCH  18  20
ENDBRANCH  17  18
ENDBRANCH   6  17
TORSDOF 12
ENDMDL
MODEL 2
REMARK VINA RESULT:      -5.3      2.694      4.991
REMARK  Name = 5458664
REMARK  12 active torsions:
REMARK  status: ('A' for Active; 'I' for Inactive)
REMARK    1  A    between atoms: C_3  and  O_10
REMARK    2  A    between atoms: C_6  and  C_17
REMARK    3  A    between atoms: O_10  and  C_12
REMARK    4  A    between atoms: C_12  and  C_13
REMARK    5  A    between atoms: C_17  and  O_18
REMARK    6  A    between atoms: O_18  and  C_20
REMARK    7  A    between atoms: C_20  and  C_21
REMARK    8  A    between atoms: C_21  and  C_22
REMARK    9  A    between atoms: C_21  and  O_27
REMARK   10  A    between atoms: C_21  and  C_29
REMARK   11  A    between atoms: C_22  and  O_25
REMARK   12  A    between atoms: C_29  and  O_31
REMARK                            x       y       z     vdW  Elec       q    Type
REMARK                         _______ _______ _______ _____ _____    ______ ____
ROOT
ATOM      1  N   UNL     1     -40.367  23.224   1.844  0.00  0.00    +0.396 N 
ATOM      2  C   UNL     1     -39.289  23.911   2.621  0.00  0.00    +0.006 C 
ATOM      3  C   UNL     1     -38.038  23.045   2.460  0.00  0.00    +0.152 C 
ATOM      4  C   UNL     1     -38.578  21.722   1.945  0.00  0.00    +0.019 C 
ATOM      5  C   UNL     1     -39.717  22.169   1.052  0.00  0.00    -0.073 C 
ATOM      6  C   UNL     1     -39.189  25.292   2.044  0.00  0.00    -0.023 C 
ATOM      7  C   UNL     1     -40.994  24.259   0.995  0.00  0.00    -0.050 C 
ATOM      8  C   UNL     1     -40.148  25.480   1.134  0.00  0.00    -0.056 C 
ATOM      9  H   UNL     1     -41.087  22.793   2.425  0.00  0.00    -0.079 HD
ENDROOT
BRANCH   3  10
ATOM     10  O   UNL     1     -37.380  22.873   3.702  0.00  0.00    -0.451 OA
BRANCH  10  12
ATOM     11  O   UNL     1     -35.265  23.214   2.856  0.00  0.00    -0.245 OA
ATOM     12  C   UNL     1     -36.082  23.300   3.763  0.00  0.00    +0.337 C 
BRANCH  12  13
ATOM     13  C   UNL     1     -35.800  23.887   5.108  0.00  0.00    +0.049 C 
ATOM     14  C   UNL     1     -36.010  25.361   5.299  0.00  0.00    +0.037 C 
ATOM     15  C   UNL     1     -35.344  23.030   6.040  0.00  0.00    -0.024 C 
ATOM     16  C   UNL     1     -35.090  21.565   5.876  0.00  0.00    +0.031 C 
ENDBRANCH  12  13
ENDBRANCH  10  12
ENDBRANCH   3  10
BRANCH   6  17
ATOM     17  C   UNL     1     -38.178  26.278   2.503  0.00  0.00    +0.229 C 
BRANCH  17  18
ATOM     18  O   UNL     1     -37.055  26.287   1.617  0.00  0.00    -0.442 OA
BRANCH  18  20
ATOM     19  O   UNL     1     -36.951  28.568   1.371  0.00  0.00    -0.247 OA
ATOM     20  C   UNL     1     -36.404  27.478   1.496  0.00  0.00    +0.346 C 
BRANCH  20  21
ATOM     21  C   UNL     1     -34.880  27.278   1.528  0.00  0.00    +0.225 C 
BRANCH  21  22
ATOM     22  C   UNL     1     -34.202  28.117   2.661  0.00  0.00    +0.123 C 
ATOM     23  C   UNL     1     -33.173  27.287   3.449  0.00  0.00    +0.032 C 
ATOM     24  C   UNL     1     -33.488  29.365   2.108  0.00  0.00    +0.032 C 
BRANCH  22  25
ATOM     25  O   UNL     1     -35.186  28.571   3.593  0.00  0.00    -0.384 OA
ATOM     26  H   UNL     1     -34.769  29.161   4.241  0.00  0.00    +0.210 HD
ENDBRANCH  22  25
ENDBRANCH  21  22
BRANCH  21  27
ATOM     27  O   UNL     1     -34.731  25.893   1.905  0.00  0.00    -0.373 OA
ATOM     28  H   UNL     1     -35.557  25.575   2.304  0.00  0.00    +0.211 HD
ENDBRANCH  21  27
BRANCH  21  29
ATOM     29  C   UNL     1     -34.251  27.399   0.111  0.00  0.00    +0.152 C 
ATOM     30  C   UNL     1     -33.473  26.206  -0.429  0.00  0.00    +0.035 C 
BRANCH  29  31
ATOM     31  O   UNL     1     -35.276  27.724  -0.840  0.00  0.00    -0.351 OA
ATOM     32  C   UNL     1     -35.129  26.963  -2.025  0.00  0.00    +0.174 C 
ENDBRANCH  29  31
ENDBRANCH  21  29
ENDBRANCH  20  21
ENDBRANCH  18  20
ENDBRANCH  17  18
ENDBRANCH   6  17
TORSDOF 12
ENDMDL
MODEL 3
REMARK VINA RESULT:      -5.3      2.652      4.753
REMARK  Name = 5458664
REMARK  12 active torsions:
REMARK  status: ('A' for Active; 'I' for Inactive)
REMARK    1  A    between atoms: C_3  and  O_10
REMARK    2  A    between atoms: C_6  and  C_17
REMARK    3  A    between atoms: O_10  and  C_12
REMARK    4  A    between atoms: C_12  and  C_13
REMARK    5  A    between atoms: C_17  and  O_18
REMARK    6  A    between atoms: O_18  and  C_20
REMARK    7  A    between atoms: C_20  and  C_21
REMARK    8  A    between atoms: C_21  and  C_22
REMARK    9  A    between atoms: C_21  and  O_27
REMARK   10  A    between atoms: C_21  and  C_29
REMARK   11  A    between atoms: C_22  and  O_25
REMARK   12  A    between atoms: C_29  and  O_31
REMARK                            x       y       z     vdW  Elec       q    Type
REMARK                         _______ _______ _______ _____ _____    ______ ____
ROOT
ATOM      1  N   UNL     1     -38.669  20.345  -0.980  0.00  0.00    +0.396 N 
ATOM      2  C   UNL     1     -37.985  20.330   0.351  0.00  0.00    +0.006 C 
ATOM      3  C   UNL     1     -36.485  20.383   0.054  0.00  0.00    +0.152 C 
ATOM      4  C   UNL     1     -36.394  20.018  -1.418  0.00  0.00    +0.019 C 
ATOM      5  C   UNL     1     -37.642  20.666  -1.984  0.00  0.00    -0.073 C 
ATOM      6  C   UNL     1     -38.530  21.508   1.102  0.00  0.00    -0.023 C 
ATOM      7  C   UNL     1     -39.718  21.383  -0.899  0.00  0.00    -0.050 C 
ATOM      8  C   UNL     1     -39.502  22.093   0.396  0.00  0.00    -0.056 C 
ATOM      9  H   UNL     1     -39.101  19.457  -1.235  0.00  0.00    -0.079 HD
ENDROOT
BRANCH   3  10
ATOM     10  O   UNL     1     -35.780  19.448   0.850  0.00  0.00    -0.451 OA
BRANCH  10  12
ATOM     11  O   UNL     1     -34.915  20.631   2.627  0.00  0.00    -0.245 OA
ATOM     12  C   UNL     1     -34.768  19.952   1.621  0.00  0.00    +0.337 C 
BRANCH  12  13
ATOM     13  C   UNL     1     -33.445  19.554   1.050  0.00  0.00    +0.049 C 
ATOM     14  C   UNL     1     -32.916  18.186   1.367  0.00  0.00    +0.037 C 
ATOM     15  C   UNL     1     -32.818  20.489   0.312  0.00  0.00    -0.024 C 
ATOM     16  C   UNL     1     -33.300  21.872   0.004  0.00  0.00    +0.031 C 
ENDBRANCH  12  13
ENDBRANCH  10  12
ENDBRANCH   3  10
BRANCH   6  17
ATOM     17  C   UNL     1     -38.051  21.883   2.456  0.00  0.00    +0.229 C 
BRANCH  17  18
ATOM     18  O   UNL     1     -37.258  23.072   2.390  0.00  0.00    -0.442 OA
BRANCH  18  20
ATOM     19  O   UNL     1     -38.839  24.333   3.478  0.00  0.00    -0.247 OA
ATOM     20  C   UNL     1     -37.674  24.107   3.174  0.00  0.00    +0.346 C 
BRANCH  20  21
ATOM     21  C   UNL     1     -36.483  24.968   3.625  0.00  0.00    +0.225 C 
BRANCH  21  22
ATOM     22  C   UNL     1     -35.817  25.722   2.427  0.00  0.00    +0.123 C 
ATOM     23  C   UNL     1     -35.487  27.182   2.783  0.00  0.00    +0.032 C 
ATOM     24  C   UNL     1     -34.518  25.037   1.962  0.00  0.00    +0.032 C 
BRANCH  22  25
ATOM     25  O   UNL     1     -36.705  25.748   1.307  0.00  0.00    -0.384 OA
ATOM     26  H   UNL     1     -37.266  26.539   1.357  0.00  0.00    +0.210 HD
ENDBRANCH  22  25
ENDBRANCH  21  22
BRANCH  21  27
ATOM     27  O   UNL     1     -37.095  25.980   4.452  0.00  0.00    -0.373 OA
ATOM     28  H   UNL     1     -37.484  25.565   5.237  0.00  0.00    +0.211 HD
ENDBRANCH  21  27
BRANCH  21  29
ATOM     29  C   UNL     1     -35.522  24.182   4.562  0.00  0.00    +0.152 C 
ATOM     30  C   UNL     1     -34.637  24.981   5.509  0.00  0.00    +0.035 C 
BRANCH  29  31
ATOM     31  O   UNL     1     -36.280  23.250   5.349  0.00  0.00    -0.351 OA
ATOM     32  C   UNL     1     -35.429  22.326   6.001  0.00  0.00    +0.174 C 
ENDBRANCH  29  31
ENDBRANCH  21  29
ENDBRANCH  20  21
ENDBRANCH  18  20
ENDBRANCH  17  18
ENDBRANCH   6  17
TORSDOF 12
ENDMDL
MODEL 4
REMARK VINA RESULT:      -5.2      2.220      4.483
REMARK  Name = 5458664
REMARK  12 active torsions:
REMARK  status: ('A' for Active; 'I' for Inactive)
REMARK    1  A    between atoms: C_3  and  O_10
REMARK    2  A    between atoms: C_6  and  C_17
REMARK    3  A    between atoms: O_10  and  C_12
REMARK    4  A    between atoms: C_12  and  C_13
REMARK    5  A    between atoms: C_17  and  O_18
REMARK    6  A    between atoms: O_18  and  C_20
REMARK    7  A    between atoms: C_20  and  C_21
REMARK    8  A    between atoms: C_21  and  C_22
REMARK    9  A    between atoms: C_21  and  O_27
REMARK   10  A    between atoms: C_21  and  C_29
REMARK   11  A    between atoms: C_22  and  O_25
REMARK   12  A    between atoms: C_29  and  O_31
REMARK                            x       y       z     vdW  Elec       q    Type
REMARK                         _______ _______ _______ _____ _____    ______ ____
ROOT
ATOM      1  N   UNL     1     -33.435  27.006   3.711  0.00  0.00    +0.396 N 
ATOM      2  C   UNL     1     -34.370  26.214   2.853  0.00  0.00    +0.006 C 
ATOM      3  C   UNL     1     -35.086  25.245   3.796  0.00  0.00    +0.152 C 
ATOM      4  C   UNL     1     -34.232  25.263   5.052  0.00  0.00    +0.019 C 
ATOM      5  C   UNL     1     -33.782  26.709   5.110  0.00  0.00    -0.073 C 
ATOM      6  C   UNL     1     -35.254  27.221   2.179  0.00  0.00    -0.023 C 
ATOM      7  C   UNL     1     -33.655  28.427   3.368  0.00  0.00    -0.050 C 
ATOM      8  C   UNL     1     -34.847  28.459   2.471  0.00  0.00    -0.056 C 
ATOM      9  H   UNL     1     -32.449  26.781   3.570  0.00  0.00    -0.079 HD
ENDROOT
BRANCH   3  10
ATOM     10  O   UNL     1     -35.137  23.944   3.238  0.00  0.00    -0.451 OA
BRANCH  10  12
ATOM     11  O   UNL     1     -37.242  23.426   4.017  0.00  0.00    -0.245 OA
ATOM     12  C   UNL     1     -36.093  23.107   3.745  0.00  0.00    +0.337 C 
BRANCH  12  13
ATOM     13  C   UNL     1     -35.527  21.735   3.925  0.00  0.00    +0.049 C 
ATOM     14  C   UNL     1     -35.400  20.854   2.716  0.00  0.00    +0.037 C 
ATOM     15  C   UNL     1     -35.204  21.393   5.185  0.00  0.00    -0.024 C 
ATOM     16  C   UNL     1     -35.348  22.231   6.416  0.00  0.00    +0.031 C 
ENDBRANCH  12  13
ENDBRANCH  10  12
ENDBRANCH   3  10
BRANCH   6  17
ATOM     17  C   UNL     1     -36.371  26.829   1.283  0.00  0.00    +0.229 C 
BRANCH  17  18
ATOM     18  O   UNL     1     -37.621  26.943   1.970  0.00  0.00    -0.442 OA
BRANCH  18  20
ATOM     19  O   UNL     1     -38.949  26.940   0.096  0.00  0.00    -0.247 OA
ATOM     20  C   UNL     1     -38.727  26.597   1.252  0.00  0.00    +0.346 C 
BRANCH  20  21
ATOM     21  C   UNL     1     -39.673  25.720   2.087  0.00  0.00    +0.225 C 
BRANCH  21  22
ATOM     22  C   UNL     1     -39.712  24.244   1.573  0.00  0.00    +0.123 C 
ATOM     23  C   UNL     1     -40.920  23.990   0.653  0.00  0.00    +0.032 C 
ATOM     24  C   UNL     1     -38.434  23.868   0.799  0.00  0.00    +0.032 C 
BRANCH  22  25
ATOM     25  O   UNL     1     -39.820  23.341   2.676  0.00  0.00    -0.384 OA
ATOM     26  H   UNL     1     -39.161  23.573   3.349  0.00  0.00    +0.210 HD
ENDBRANCH  22  25
ENDBRANCH  21  22
BRANCH  21  27
ATOM     27  O   UNL     1     -39.039  25.681   3.383  0.00  0.00    -0.373 OA
ATOM     28  H   UNL     1     -38.793  26.582   3.651  0.00  0.00    +0.211 HD
ENDBRANCH  21  27
BRANCH  21  29
ATOM     29  C   UNL     1     -41.050  26.407   2.313  0.00  0.00    +0.152 C 
ATOM     30  C   UNL     1     -41.544  26.563   3.745  0.00  0.00    +0.035 C 
BRANCH  29  31
ATOM     31  O   UNL     1     -41.039  27.708   1.707  0.00  0.00    -0.351 OA
ATOM     32  C   UNL     1     -42.353  28.139   1.402  0.00  0.00    +0.174 C 
ENDBRANCH  29  31
ENDBRANCH  21  29
ENDBRANCH  20  21
ENDBRANCH  18  20
ENDBRANCH  17  18
ENDBRANCH   6  17
TORSDOF 12
ENDMDL
MODEL 5
REMARK VINA RESULT:      -5.2      4.558      8.118
REMARK  Name = 5458664
REMARK  12 active torsions:
REMARK  status: ('A' for Active; 'I' for Inactive)
REMARK    1  A    between atoms: C_3  and  O_10
REMARK    2  A    between atoms: C_6  and  C_17
REMARK    3  A    between atoms: O_10  and  C_12
REMARK    4  A    between atoms: C_12  and  C_13
REMARK    5  A    between atoms: C_17  and  O_18
REMARK    6  A    between atoms: O_18  and  C_20
REMARK    7  A    between atoms: C_20  and  C_21
REMARK    8  A    between atoms: C_21  and  C_22
REMARK    9  A    between atoms: C_21  and  O_27
REMARK   10  A    between atoms: C_21  and  C_29
REMARK   11  A    between atoms: C_22  and  O_25
REMARK   12  A    between atoms: C_29  and  O_31
REMARK                            x       y       z     vdW  Elec       q    Type
REMARK                         _______ _______ _______ _____ _____    ______ ____
ROOT
ATOM      1  N   UNL     1     -33.471  25.049   0.463  0.00  0.00    +0.396 N 
ATOM      2  C   UNL     1     -34.123  25.568   1.706  0.00  0.00    +0.006 C 
ATOM      3  C   UNL     1     -34.787  24.359   2.368  0.00  0.00    +0.152 C 
ATOM      4  C   UNL     1     -34.819  23.314   1.265  0.00  0.00    +0.019 C 
ATOM      5  C   UNL     1     -33.517  23.580   0.537  0.00  0.00    -0.073 C 
ATOM      6  C   UNL     1     -33.027  26.210   2.502  0.00  0.00    -0.023 C 
ATOM      7  C   UNL     1     -32.087  25.568   0.469  0.00  0.00    -0.050 C 
ATOM      8  C   UNL     1     -31.889  26.208   1.803  0.00  0.00    -0.056 C 
ATOM      9  H   UNL     1     -33.930  25.341  -0.401  0.00  0.00    -0.079 HD
ENDROOT
BRANCH   3  10
ATOM     10  O   UNL     1     -36.098  24.677   2.799  0.00  0.00    -0.451 OA
BRANCH  10  12
ATOM     11  O   UNL     1     -37.441  23.024   3.677  0.00  0.00    -0.245 OA
ATOM     12  C   UNL     1     -36.605  23.907   3.810  0.00  0.00    +0.337 C 
BRANCH  12  13
ATOM     13  C   UNL     1     -35.990  24.305   5.113  0.00  0.00    +0.049 C 
ATOM     14  C   UNL     1     -36.112  25.735   5.550  0.00  0.00    +0.037 C 
ATOM     15  C   UNL     1     -35.341  23.332   5.778  0.00  0.00    -0.024 C 
ATOM     16  C   UNL     1     -35.170  21.906   5.357  0.00  0.00    +0.031 C 
ENDBRANCH  12  13
ENDBRANCH  10  12
ENDBRANCH   3  10
BRANCH   6  17
ATOM     17  C   UNL     1     -33.255  26.795   3.848  0.00  0.00    +0.229 C 
BRANCH  17  18
ATOM     18  O   UNL     1     -32.009  27.158   4.448  0.00  0.00    -0.442 OA
BRANCH  18  20
ATOM     19  O   UNL     1     -32.836  27.610   6.543  0.00  0.00    -0.247 OA
ATOM     20  C   UNL     1     -32.094  27.876   5.604  0.00  0.00    +0.346 C 
BRANCH  20  21
ATOM     21  C   UNL     1     -31.137  29.078   5.577  0.00  0.00    +0.225 C 
BRANCH  21  22
ATOM     22  C   UNL     1     -31.586  30.162   4.541  0.00  0.00    +0.123 C 
ATOM     23  C   UNL     1     -31.226  31.583   5.008  0.00  0.00    +0.032 C 
ATOM     24  C   UNL     1     -30.947  29.937   3.157  0.00  0.00    +0.032 C 
BRANCH  22  25
ATOM     25  O   UNL     1     -33.003  30.118   4.365  0.00  0.00    -0.384 OA
ATOM     26  H   UNL     1     -33.320  30.987   4.074  0.00  0.00    +0.210 HD
ENDBRANCH  22  25
ENDBRANCH  21  22
BRANCH  21  27
ATOM     27  O   UNL     1     -31.306  29.672   6.882  0.00  0.00    -0.373 OA
ATOM     28  H   UNL     1     -30.929  30.566   6.882  0.00  0.00    +0.211 HD
ENDBRANCH  21  27
BRANCH  21  29
ATOM     29  C   UNL     1     -29.649  28.632   5.506  0.00  0.00    +0.152 C 
ATOM     30  C   UNL     1     -28.585  29.619   5.969  0.00  0.00    +0.035 C 
BRANCH  29  31
ATOM     31  O   UNL     1     -29.479  27.418   6.251  0.00  0.00    -0.351 OA
ATOM     32  C   UNL     1     -28.243  27.415   6.943  0.00  0.00    +0.174 C 
ENDBRANCH  29  31
ENDBRANCH  21  29
ENDBRANCH  20  21
ENDBRANCH  18  20
ENDBRANCH  17  18
ENDBRANCH   6  17
TORSDOF 12
ENDMDL
MODEL 6
REMARK VINA RESULT:      -5.2      2.599      4.820
REMARK  Name = 5458664
REMARK  12 active torsions:
REMARK  status: ('A' for Active; 'I' for Inactive)
REMARK    1  A    between atoms: C_3  and  O_10
REMARK    2  A    between atoms: C_6  and  C_17
REMARK    3  A    between atoms: O_10  and  C_12
REMARK    4  A    between atoms: C_12  and  C_13
REMARK    5  A    between atoms: C_17  and  O_18
REMARK    6  A    between atoms: O_18  and  C_20
REMARK    7  A    between atoms: C_20  and  C_21
REMARK    8  A    between atoms: C_21  and  C_22
REMARK    9  A    between atoms: C_21  and  O_27
REMARK   10  A    between atoms: C_21  and  C_29
REMARK   11  A    between atoms: C_22  and  O_25
REMARK   12  A    between atoms: C_29  and  O_31
REMARK                            x       y       z     vdW  Elec       q    Type
REMARK                         _______ _______ _______ _____ _____    ______ ____
ROOT
ATOM      1  N   UNL     1     -38.585  20.013  -1.183  0.00  0.00    +0.396 N 
ATOM      2  C   UNL     1     -37.912  20.077   0.151  0.00  0.00    +0.006 C 
ATOM      3  C   UNL     1     -36.421  20.259  -0.139  0.00  0.00    +0.152 C 
ATOM      4  C   UNL     1     -36.288  19.883  -1.605  0.00  0.00    +0.019 C 
ATOM      5  C   UNL     1     -37.585  20.410  -2.186  0.00  0.00    -0.073 C 
ATOM      6  C   UNL     1     -38.564  21.213   0.882  0.00  0.00    -0.023 C 
ATOM      7  C   UNL     1     -39.723  20.955  -1.122  0.00  0.00    -0.050 C 
ATOM      8  C   UNL     1     -39.579  21.700   0.163  0.00  0.00    -0.056 C 
ATOM      9  H   UNL     1     -38.936  19.087  -1.428  0.00  0.00    -0.079 HD
ENDROOT
BRANCH   3  10
ATOM     10  O   UNL     1     -35.640  19.402   0.674  0.00  0.00    -0.451 OA
BRANCH  10  12
ATOM     11  O   UNL     1     -34.947  20.234   2.707  0.00  0.00    -0.245 OA
ATOM     12  C   UNL     1     -34.754  20.011   1.520  0.00  0.00    +0.337 C 
BRANCH  12  13
ATOM     13  C   UNL     1     -33.508  20.375   0.778  0.00  0.00    +0.049 C 
ATOM     14  C   UNL     1     -33.443  21.717   0.112  0.00  0.00    +0.037 C 
ATOM     15  C   UNL     1     -32.547  19.434   0.748  0.00  0.00    -0.024 C 
ATOM     16  C   UNL     1     -32.590  18.074   1.371  0.00  0.00    +0.031 C 
ENDBRANCH  12  13
ENDBRANCH  10  12
ENDBRANCH   3  10
BRANCH   6  17
ATOM     17  C   UNL     1     -38.129  21.648   2.233  0.00  0.00    +0.229 C 
BRANCH  17  18
ATOM     18  O   UNL     1     -37.117  22.654   2.128  0.00  0.00    -0.442 OA
BRANCH  18  20
ATOM     19  O   UNL     1     -38.263  24.085   3.511  0.00  0.00    -0.247 OA
ATOM     20  C   UNL     1     -37.218  23.691   3.008  0.00  0.00    +0.346 C 
BRANCH  20  21
ATOM     21  C   UNL     1     -35.840  24.314   3.283  0.00  0.00    +0.225 C 
BRANCH  21  22
ATOM     22  C   UNL     1     -35.592  24.538   4.811  0.00  0.00    +0.123 C 
ATOM     23  C   UNL     1     -35.641  23.216   5.598  0.00  0.00    +0.032 C 
ATOM     24  C   UNL     1     -34.232  25.208   5.084  0.00  0.00    +0.032 C 
BRANCH  22  25
ATOM     25  O   UNL     1     -36.601  25.393   5.354  0.00  0.00    -0.384 OA
ATOM     26  H   UNL     1     -36.207  26.246   5.594  0.00  0.00    +0.210 HD
ENDBRANCH  22  25
ENDBRANCH  21  22
BRANCH  21  27
ATOM     27  O   UNL     1     -34.917  23.284   2.869  0.00  0.00    -0.373 OA
ATOM     28  H   UNL     1     -35.291  22.412   3.073  0.00  0.00    +0.211 HD
ENDBRANCH  21  27
BRANCH  21  29
ATOM     29  C   UNL     1     -35.559  25.530   2.355  0.00  0.00    +0.152 C 
ATOM     30  C   UNL     1     -35.665  25.318   0.850  0.00  0.00    +0.035 C 
BRANCH  29  31
ATOM     31  O   UNL     1     -36.431  26.613   2.709  0.00  0.00    -0.351 OA
ATOM     32  C   UNL     1     -37.130  27.096   1.576  0.00  0.00    +0.174 C 
ENDBRANCH  29  31
ENDBRANCH  21  29
ENDBRANCH  20  21
ENDBRANCH  18  20
ENDBRANCH  17  18
ENDBRANCH   6  17
TORSDOF 12
ENDMDL
MODEL 7
REMARK VINA RESULT:      -5.2      3.788      6.500
REMARK  Name = 5458664
REMARK  12 active torsions:
REMARK  status: ('A' for Active; 'I' for Inactive)
REMARK    1  A    between atoms: C_3  and  O_10
REMARK    2  A    between atoms: C_6  and  C_17
REMARK    3  A    between atoms: O_10  and  C_12
REMARK    4  A    between atoms: C_12  and  C_13
REMARK    5  A    between atoms: C_17  and  O_18
REMARK    6  A    between atoms: O_18  and  C_20
REMARK    7  A    between atoms: C_20  and  C_21
REMARK    8  A    between atoms: C_21  and  C_22
REMARK    9  A    between atoms: C_21  and  O_27
REMARK   10  A    between atoms: C_21  and  C_29
REMARK   11  A    between atoms: C_22  and  O_25
REMARK   12  A    between atoms: C_29  and  O_31
REMARK                            x       y       z     vdW  Elec       q    Type
REMARK                         _______ _______ _______ _____ _____    ______ ____
ROOT
ATOM      1  N   UNL     1     -30.943  25.875   0.844  0.00  0.00    +0.396 N 
ATOM      2  C   UNL     1     -32.085  26.132   1.775  0.00  0.00    +0.006 C 
ATOM      3  C   UNL     1     -31.657  27.312   2.650  0.00  0.00    +0.152 C 
ATOM      4  C   UNL     1     -30.154  27.392   2.440  0.00  0.00    +0.019 C 
ATOM      5  C   UNL     1     -30.016  27.010   0.981  0.00  0.00    -0.073 C 
ATOM      6  C   UNL     1     -33.275  26.384   0.899  0.00  0.00    -0.023 C 
ATOM      7  C   UNL     1     -31.522  25.784  -0.512  0.00  0.00    -0.050 C 
ATOM      8  C   UNL     1     -32.953  26.186  -0.382  0.00  0.00    -0.056 C 
ATOM      9  H   UNL     1     -30.429  25.016   1.043  0.00  0.00    -0.079 HD
ENDROOT
BRANCH   3  10
ATOM     10  O   UNL     1     -31.964  27.068   4.011  0.00  0.00    -0.451 OA
BRANCH  10  12
ATOM     11  O   UNL     1     -33.483  28.793   4.168  0.00  0.00    -0.245 OA
ATOM     12  C   UNL     1     -32.637  28.063   4.666  0.00  0.00    +0.337 C 
BRANCH  12  13
ATOM     13  C   UNL     1     -32.183  28.136   6.089  0.00  0.00    +0.049 C 
ATOM     14  C   UNL     1     -32.691  27.103   7.051  0.00  0.00    +0.037 C 
ATOM     15  C   UNL     1     -31.367  29.162   6.393  0.00  0.00    -0.024 C 
ATOM     16  C   UNL     1     -30.868  30.227   5.469  0.00  0.00    +0.031 C 
ENDBRANCH  12  13
ENDBRANCH  10  12
ENDBRANCH   3  10
BRANCH   6  17
ATOM     17  C   UNL     1     -34.607  26.746   1.446  0.00  0.00    +0.229 C 
BRANCH  17  18
ATOM     18  O   UNL     1     -34.845  26.049   2.673  0.00  0.00    -0.442 OA
BRANCH  18  20
ATOM     19  O   UNL     1     -37.047  25.622   2.174  0.00  0.00    -0.247 OA
ATOM     20  C   UNL     1     -35.995  25.318   2.726  0.00  0.00    +0.346 C 
BRANCH  20  21
ATOM     21  C   UNL     1     -35.805  24.056   3.582  0.00  0.00    +0.225 C 
BRANCH  21  22
ATOM     22  C   UNL     1     -35.127  24.375   4.955  0.00  0.00    +0.123 C 
ATOM     23  C   UNL     1     -35.774  25.589   5.644  0.00  0.00    +0.032 C 
ATOM     24  C   UNL     1     -35.196  23.180   5.925  0.00  0.00    +0.032 C 
BRANCH  22  25
ATOM     25  O   UNL     1     -33.744  24.683   4.762  0.00  0.00    -0.384 OA
ATOM     26  H   UNL     1     -33.522  25.492   5.248  0.00  0.00    +0.210 HD
ENDBRANCH  22  25
ENDBRANCH  21  22
BRANCH  21  27
ATOM     27  O   UNL     1     -37.156  23.648   3.883  0.00  0.00    -0.373 OA
ATOM     28  H   UNL     1     -37.142  22.786   4.330  0.00  0.00    +0.211 HD
ENDBRANCH  21  27
BRANCH  21  29
ATOM     29  C   UNL     1     -35.185  22.889   2.762  0.00  0.00    +0.152 C 
ATOM     30  C   UNL     1     -35.722  21.484   3.003  0.00  0.00    +0.035 C 
BRANCH  29  31
ATOM     31  O   UNL     1     -35.306  23.173   1.361  0.00  0.00    -0.351 OA
ATOM     32  C   UNL     1     -36.133  22.220   0.719  0.00  0.00    +0.174 C 
ENDBRANCH  29  31
ENDBRANCH  21  29
ENDBRANCH  20  21
ENDBRANCH  18  20
ENDBRANCH  17  18
ENDBRANCH   6  17
TORSDOF 12
ENDMDL
MODEL 8
REMARK VINA RESULT:      -5.2      4.571      7.826
REMARK  Name = 5458664
REMARK  12 active torsions:
REMARK  status: ('A' for Active; 'I' for Inactive)
REMARK    1  A    between atoms: C_3  and  O_10
REMARK    2  A    between atoms: C_6  and  C_17
REMARK    3  A    between atoms: O_10  and  C_12
REMARK    4  A    between atoms: C_12  and  C_13
REMARK    5  A    between atoms: C_17  and  O_18
REMARK    6  A    between atoms: O_18  and  C_20
REMARK    7  A    between atoms: C_20  and  C_21
REMARK    8  A    between atoms: C_21  and  C_22
REMARK    9  A    between atoms: C_21  and  O_27
REMARK   10  A    between atoms: C_21  and  C_29
REMARK   11  A    between atoms: C_22  and  O_25
REMARK   12  A    between atoms: C_29  and  O_31
REMARK                            x       y       z     vdW  Elec       q    Type
REMARK                         _______ _______ _______ _____ _____    ______ ____
ROOT
ATOM      1  N   UNL     1     -36.596  27.764   2.158  0.00  0.00    +0.396 N 
ATOM      2  C   UNL     1     -35.545  27.032   2.931  0.00  0.00    +0.006 C 
ATOM      3  C   UNL     1     -35.947  25.556   2.894  0.00  0.00    +0.152 C 
ATOM      4  C   UNL     1     -37.401  25.588   2.454  0.00  0.00    +0.019 C 
ATOM      5  C   UNL     1     -37.413  26.746   1.478  0.00  0.00    -0.073 C 
ATOM      6  C   UNL     1     -34.245  27.357   2.258  0.00  0.00    -0.023 C 
ATOM      7  C   UNL     1     -35.880  28.638   1.204  0.00  0.00    -0.050 C 
ATOM      8  C   UNL     1     -34.440  28.258   1.292  0.00  0.00    -0.056 C 
ATOM      9  H   UNL     1     -37.212  28.338   2.734  0.00  0.00    -0.079 HD
ENDROOT
BRANCH   3  10
ATOM     10  O   UNL     1     -35.820  24.967   4.175  0.00  0.00    -0.451 OA
BRANCH  10  12
ATOM     11  O   UNL     1     -33.654  24.406   4.721  0.00  0.00    -0.245 OA
ATOM     12  C   UNL     1     -34.776  24.099   4.341  0.00  0.00    +0.337 C 
BRANCH  12  13
ATOM     13  C   UNL     1     -35.202  22.712   3.984  0.00  0.00    +0.049 C 
ATOM     14  C   UNL     1     -35.327  22.358   2.531  0.00  0.00    +0.037 C 
ATOM     15  C   UNL     1     -35.470  21.895   5.018  0.00  0.00    -0.024 C 
ATOM     16  C   UNL     1     -35.389  22.222   6.476  0.00  0.00    +0.031 C 
ENDBRANCH  12  13
ENDBRANCH  10  12
ENDBRANCH   3  10
BRANCH   6  17
ATOM     17  C   UNL     1     -32.953  26.766   2.690  0.00  0.00    +0.229 C 
BRANCH  17  18
ATOM     18  O   UNL     1     -32.110  27.775   3.253  0.00  0.00    -0.442 OA
BRANCH  18  20
ATOM     19  O   UNL     1     -33.157  27.514   5.281  0.00  0.00    -0.247 OA
ATOM     20  C   UNL     1     -32.347  28.085   4.560  0.00  0.00    +0.346 C 
BRANCH  20  21
ATOM     21  C   UNL     1     -31.466  29.259   5.015  0.00  0.00    +0.225 C 
BRANCH  21  22
ATOM     22  C   UNL     1     -30.791  28.983   6.399  0.00  0.00    +0.123 C 
ATOM     23  C   UNL     1     -29.366  29.563   6.466  0.00  0.00    +0.032 C 
ATOM     24  C   UNL     1     -31.604  29.575   7.567  0.00  0.00    +0.032 C 
BRANCH  22  25
ATOM     25  O   UNL     1     -30.688  27.576   6.626  0.00  0.00    -0.384 OA
ATOM     26  H   UNL     1     -30.994  27.370   7.523  0.00  0.00    +0.210 HD
ENDBRANCH  22  25
ENDBRANCH  21  22
BRANCH  21  27
ATOM     27  O   UNL     1     -30.400  29.278   4.041  0.00  0.00    -0.373 OA
ATOM     28  H   UNL     1     -30.432  30.110   3.543  0.00  0.00    +0.211 HD
ENDBRANCH  21  27
BRANCH  21  29
ATOM     29  C   UNL     1     -32.197  30.624   4.866  0.00  0.00    +0.152 C 
ATOM     30  C   UNL     1     -31.447  31.765   4.192  0.00  0.00    +0.035 C 
BRANCH  29  31
ATOM     31  O   UNL     1     -33.430  30.429   4.158  0.00  0.00    -0.351 OA
ATOM     32  C   UNL     1     -33.559  31.356   3.096  0.00  0.00    +0.174 C 
ENDBRANCH  29  31
ENDBRANCH  21  29
ENDBRANCH  20  21
ENDBRANCH  18  20
ENDBRANCH  17  18
ENDBRANCH   6  17
TORSDOF 12
ENDMDL
MODEL 9
REMARK VINA RESULT:      -5.2      2.765      5.361
REMARK  Name = 5458664
REMARK  12 active torsions:
REMARK  status: ('A' for Active; 'I' for Inactive)
REMARK    1  A    between atoms: C_3  and  O_10
REMARK    2  A    between atoms: C_6  and  C_17
REMARK    3  A    between atoms: O_10  and  C_12
REMARK    4  A    between atoms: C_12  and  C_13
REMARK    5  A    between atoms: C_17  and  O_18
REMARK    6  A    between atoms: O_18  and  C_20
REMARK    7  A    between atoms: C_20  and  C_21
REMARK    8  A    between atoms: C_21  and  C_22
REMARK    9  A    between atoms: C_21  and  O_27
REMARK   10  A    between atoms: C_21  and  C_29
REMARK   11  A    between atoms: C_22  and  O_25
REMARK   12  A    between atoms: C_29  and  O_31
REMARK                            x       y       z     vdW  Elec       q    Type
REMARK                         _______ _______ _______ _____ _____    ______ ____
ROOT
ATOM      1  N   UNL     1     -36.054  26.839   0.135  0.00  0.00    +0.396 N 
ATOM      2  C   UNL     1     -36.388  25.528   0.772  0.00  0.00    +0.006 C 
ATOM      3  C   UNL     1     -36.478  25.801   2.275  0.00  0.00    +0.152 C 
ATOM      4  C   UNL     1     -35.798  27.149   2.439  0.00  0.00    +0.019 C 
ATOM      5  C   UNL     1     -36.211  27.871   1.173  0.00  0.00    -0.073 C 
ATOM      6  C   UNL     1     -37.663  25.075   0.127  0.00  0.00    -0.023 C 
ATOM      7  C   UNL     1     -37.007  27.016  -0.981  0.00  0.00    -0.050 C 
ATOM      8  C   UNL     1     -38.004  25.913  -0.856  0.00  0.00    -0.056 C 
ATOM      9  H   UNL     1     -35.103  26.894  -0.230  0.00  0.00    -0.079 HD
ENDROOT
BRANCH   3  10
ATOM     10  O   UNL     1     -35.799  24.800   3.011  0.00  0.00    -0.451 OA
BRANCH  10  12
ATOM     11  O   UNL     1     -37.477  24.403   4.538  0.00  0.00    -0.245 OA
ATOM     12  C   UNL     1     -36.293  24.526   4.257  0.00  0.00    +0.337 C 
BRANCH  12  13
ATOM     13  C   UNL     1     -35.170  24.402   5.237  0.00  0.00    +0.049 C 
ATOM     14  C   UNL     1     -34.519  25.659   5.734  0.00  0.00    +0.037 C 
ATOM     15  C   UNL     1     -34.816  23.147   5.569  0.00  0.00    -0.024 C 
ATOM     16  C   UNL     1     -35.420  21.873   5.068  0.00  0.00    +0.031 C 
ENDBRANCH  12  13
ENDBRANCH  10  12
ENDBRANCH   3  10
BRANCH   6  17
ATOM     17  C   UNL     1     -38.367  23.832   0.534  0.00  0.00    +0.229 C 
BRANCH  17  18
ATOM     18  O   UNL     1     -37.477  22.714   0.468  0.00  0.00    -0.442 OA
BRANCH  18  20
ATOM     19  O   UNL     1     -38.198  22.010   2.532  0.00  0.00    -0.247 OA
ATOM     20  C   UNL     1     -37.559  21.829   1.502  0.00  0.00    +0.346 C 
BRANCH  20  21
ATOM     21  C   UNL     1     -36.735  20.565   1.210  0.00  0.00    +0.225 C 
BRANCH  21  22
ATOM     22  C   UNL     1     -35.207  20.878   1.083  0.00  0.00    +0.123 C 
ATOM     23  C   UNL     1     -34.349  19.861   1.856  0.00  0.00    +0.032 C 
ATOM     24  C   UNL     1     -34.738  20.882  -0.385  0.00  0.00    +0.032 C 
BRANCH  22  25
ATOM     25  O   UNL     1     -34.923  22.171   1.621  0.00  0.00    -0.384 OA
ATOM     26  H   UNL     1     -34.376  22.669   0.994  0.00  0.00    +0.210 HD
ENDBRANCH  22  25
ENDBRANCH  21  22
BRANCH  21  27
ATOM     27  O   UNL     1     -36.889  19.779   2.411  0.00  0.00    -0.373 OA
ATOM     28  H   UNL     1     -37.832  19.697   2.625  0.00  0.00    +0.211 HD
ENDBRANCH  21  27
BRANCH  21  29
ATOM     29  C   UNL     1     -37.361  19.716   0.067  0.00  0.00    +0.152 C 
ATOM     30  C   UNL     1     -37.042  18.228   0.027  0.00  0.00    +0.035 C 
BRANCH  29  31
ATOM     31  O   UNL     1     -38.789  19.860   0.093  0.00  0.00    -0.351 OA
ATOM     32  C   UNL     1     -39.320  19.902  -1.219  0.00  0.00    +0.174 C 
ENDBRANCH  29  31
ENDBRANCH  21  29
ENDBRANCH  20  21
ENDBRANCH  18  20
ENDBRANCH  17  18
ENDBRANCH   6  17
TORSDOF 12
ENDMDL
